@<TRIPOS>MOLECULE
1gwv_LAT_A_1.pdb
 23 24 0 0 0
SMALL
GASTEIGER

@<TRIPOS>ATOM
      1  C1         8.3750    9.7520   55.8080 C.3   1371  LAT1371     0.2695
      2  C2         8.2590    9.6630   54.2910 C.3   1371  LAT1371     0.2406
      3  C3         6.7730    9.5550   53.9050 C.3   1371  LAT1371     0.2198
      4  C4         6.1810    8.3110   54.6170 C.3   1371  LAT1371     0.2144
      5  C5         6.3670    8.4610   56.1560 C.3   1371  LAT1371     0.1835
      6  C6         5.8860    7.3960   56.8280 C.3   1371  LAT1371     0.2142
      7  O1         9.7430    9.7950   56.1820 O.3   1371  LAT1371    -0.3257
      8  O2         8.8310   10.8150   53.6450 O.3   1371  LAT1371    -0.2149
      9  O3         6.6540    9.4630   52.4910 O.3   1371  LAT1371    -0.2174
     10  O4         6.8410    7.1050   54.1860 O.3   1371  LAT1371    -0.2176
     11  O5         7.7920    8.6140   56.4730 O.3   1371  LAT1371    -0.3256
     12  O6         5.8790    7.6850   58.2130 O.3   1371  LAT1371    -0.2176
     13  C1'       11.9910   10.4990   59.6800 C.3   1371  LAT1371     0.3023
     14  C2'       10.7230    9.6380   59.8780 C.3   1371  LAT1371     0.2433
     15  C3'       10.3290    9.0690   58.4910 C.3   1371  LAT1371     0.2168
     16  C4'       10.0740   10.2460   57.5280 C.3   1371  LAT1371     0.1804
     17  C5'       11.3200   11.1370   57.4080 C.3   1371  LAT1371     0.1804
     18  C6'       11.0840   12.3910   56.5740 C.3   1371  LAT1371     0.2141
     19  O1'       12.3800   11.0420   60.9000 O.3   1371  LAT1371    -0.1869
     20  O2'       10.9530    8.5690   60.7590 O.3   1371  LAT1371    -0.2148
     21  O3'        9.1830    8.2540   58.6500 O.3   1371  LAT1371    -0.2175
     22  O5'       11.7200   11.5810   58.7410 O.3   1371  LAT1371    -0.3237
     23  O6'       12.3030   12.8390   56.0060 O.3   1371  LAT1371    -0.2176
@<TRIPOS>BOND
     1     9     3    1
     2     8     2    1
     3     3     2    1
     4     3     4    1
     5    10     4    1
     6     2     1    1
     7     4     5    1
     8     1     7    1
     9     1    11    1
    10    23    18    1
    11     5    11    1
    12     5     6    1
    13     7    16    1
    14    18    17    1
    15     6    12    1
    16    17    16    1
    17    17    22    1
    18    16    15    1
    19    15    21    1
    20    15    14    1
    21    22    13    1
    22    13    14    1
    23    13    19    1
    24    14    20    1
