@<TRIPOS>MOLECULE
1gww_UDP_A_1.pdb
 25 26 0 0 0
SMALL
GASTEIGER

@<TRIPOS>ATOM
      1  N1         2.6080   13.5650   43.2950 N.am  1369  UDP1369    -0.1766
      2  C2         2.7140   14.5600   42.3200 C.1   1369  UDP1369     0.2845
      3  N3         2.2930   15.8320   42.6960 N.2   1369  UDP1369    -0.2452
      4  C4         1.7730   16.2050   43.9610 C.1   1369  UDP1369     0.2182
      5  C5         1.6880   15.1390   44.9300 C.2   1369  UDP1369     0.1242
      6  C6         2.0930   13.8960   44.5790 C.2   1369  UDP1369     0.0929
      7  O2         3.1550   14.3350   41.1860 O.2   1369  UDP1369    -0.1918
      8  O4         1.4470   17.3780   44.1270 O.2   1369  UDP1369    -0.2085
      9  C1'        3.0420   12.1610   42.9570 C.3   1369  UDP1369     0.2401
     10  C2'        4.5590   11.9670   42.7550 C.3   1369  UDP1369     0.2319
     11  O2'        4.8260   10.9340   41.8180 O.3   1369  UDP1369    -0.2157
     12  C3'        5.0140   11.6420   44.1740 C.3   1369  UDP1369     0.2158
     13  C4'        3.8930   10.7030   44.6580 C.3   1369  UDP1369     0.1799
     14  O4'        2.6880   11.2560   44.0270 O.3   1369  UDP1369    -0.3320
     15  O3'        6.2730   10.9660   44.0870 O.3   1369  UDP1369    -0.2175
     16  C5'        3.6750   10.6900   46.2030 C.3   1369  UDP1369     0.1813
     17  O5'        4.1010   11.9470   46.7110 O.3   1369  UDP1369    -0.3111
     18  PA         5.3630   12.4090   47.5200 P.3   1369  UDP1369     0.2231
     19  O1A        6.5680   11.9040   46.8120 O.2   1369  UDP1369    -0.5169
     20  O2A        5.2500   13.9040   47.7020 O.3   1369  UDP1369    -0.4370
     21  O3A        5.1650   11.5990   48.8650 O.3   1369  UDP1369    -0.2261
     22  PB         6.2230   11.3600   50.0360 P.3   1369  UDP1369     0.5373
     23  O1B        7.2160   10.2270   49.4490 O.2   1369  UDP1369    -0.2221
     24  O2B        5.3810   10.8690   51.1590 O.3   1369  UDP1369    -0.1143
     25  O3B        7.1240   12.5210   50.2320 O.3   1369  UDP1369    -0.1143
@<TRIPOS>BOND
     1     7     2    2
     2    11    10    1
     3     2     3    2
     4     2     1   am
     5     3     4    2
     6    10     9    1
     7    10    12    1
     8     9     1    1
     9     9    14    1
    10     1     6    1
    11     4     8    2
    12     4     5    1
    13    14    13    1
    14    15    12    1
    15    12    13    1
    16     6     5    2
    17    13    16    1
    18    16    17    1
    19    17    18    1
    20    19    18    2
    21    18    20    1
    22    18    21    1
    23    21    22    1
    24    23    22    2
    25    22    25    1
    26    22    24    1
