@<TRIPOS>MOLECULE
1gww_GLC_B_1.pdb
 12 12 0 0 0
SMALL
GASTEIGER

@<TRIPOS>ATOM
      1  C1        12.1710   11.1730   -4.4780 C.3   1371  GLC1371     0.3024
      2  C2        12.6590   10.7460   -3.1020 C.3   1371  GLC1371     0.2434
      3  C3        12.3130   11.8160   -2.0350 C.3   1371  GLC1371     0.2199
      4  C4        12.9250   13.1820   -2.4840 C.3   1371  GLC1371     0.2144
      5  C5        12.3360   13.5730   -3.7550 C.3   1371  GLC1371     0.1836
      6  C6        12.6840   14.6950   -4.3820 C.3   1371  GLC1371     0.2142
      7  O1        10.7090   11.0890   -4.4940 O.3   1371  GLC1371    -0.1869
      8  O2        12.0710    9.4890   -2.6840 O.3   1371  GLC1371    -0.2148
      9  O3        12.8360   11.3240   -0.7580 O.3   1371  GLC1371    -0.2174
     10  O4        12.5500   14.0310   -1.3960 O.3   1371  GLC1371    -0.2176
     11  O5        12.4380   12.5940   -4.8180 O.3   1371  GLC1371    -0.3236
     12  O6        11.5160   15.4290   -4.1360 O.3   1371  GLC1371    -0.2176
@<TRIPOS>BOND
     1    11     1    1
     2    11     5    1
     3     7     1    1
     4     1     2    1
     5     6    12    1
     6     6     5    1
     7     5     4    1
     8     2     8    1
     9     2     3    1
    10     4     3    1
    11     4    10    1
    12     3     9    1
