@<TRIPOS>MOLECULE
1gwx_433_A_1.pdb
 38 40 0 0 0
SMALL
GASTEIGER

@<TRIPOS>ATOM
      1  C1A       35.6000   12.1910   61.8230 C.2     1  4331        0.4000
      2  O1C       36.3040   11.6710   62.7480 O.co2   1  4331       -0.2418
      3  O1B       34.5370   12.7790   62.0220 O.co2   1  4331       -0.2418
      4  C1D       36.0750   11.9710   60.4610 C.3     1  4331        0.2253
      5  C1X       37.2330   13.0430   60.2940 C.3     1  4331        0.0554
      6  C1Y       35.0530   12.3230   59.3890 C.3     1  4331        0.0554
      7  O1E       36.3150   10.5020   60.3500 O.3     1  4331       -0.4718
      8  C1F       35.3400    9.4410   60.1020 C.ar    1  4331        0.1390
      9  C1G       34.2710    9.5320   60.9330 C.ar    1  4331        0.0366
     10  C1I       33.2130    8.6390   60.9040 C.ar    1  4331       -0.0012
     11  C1K       33.1870    7.5980   60.0030 C.ar    1  4331       -0.0219
     12  C1J       34.2830    7.4720   59.1340 C.ar    1  4331       -0.0012
     13  C1H       35.3200    8.3810   59.2050 C.ar    1  4331        0.0366
     14  C1L       32.0560    6.5490   59.9020 C.3     1  4331        0.0281
     15  C1M       31.3090    6.0160   58.7530 C.3     1  4331        0.0266
     16  C1N       30.7520    7.0880   57.8400 C.3     1  4331        0.1002
     17  N2B       29.2840    7.3590   57.4340 N.am    1  4331       -0.2404
     18  C2C       28.0920    7.5370   58.4970 C.2     1  4331        0.0691
     19  C2A       28.9860    7.1950   56.0570 C.2     1  4331        0.3313
     20  O2A       27.8430    7.3520   55.6490 O.2     1  4331       -0.2501
     21  N3A       30.0000    6.9280   55.1040 N.am    1  4331       -0.1610
     22  C3B       30.1130    6.5870   53.6360 C.ar    1  4331        0.0863
     23  C3C       29.4310    7.2540   52.5850 C.ar    1  4331        0.0176
     24  C3E       29.5870    6.9150   51.2270 C.ar    1  4331        0.0023
     25  C3G       30.4290    5.8820   50.8480 C.ar    1  4331        0.0123
     26  C3F       31.1060    5.2210   51.8170 C.ar    1  4331        0.0695
     27 CL3F       32.1060    3.9630   51.1460 Cl      1  4331       -0.0813
     28  C3D       30.9860    5.5280   53.1920 C.ar    1  4331        0.0835
     29 CL3D       31.8820    4.6150   54.3830 Cl      1  4331       -0.0800
     30  C2D       27.6610    8.6360   59.5770 C.2     1  4331        0.0193
     31  C2E       26.3760    8.4620   60.5120 C.ar    1  4331        0.0393
     32  C2F       26.4910    7.9040   61.7860 C.ar    1  4331        0.0599
     33 CL2F       28.0010    7.3380   62.4770 Cl      1  4331       -0.0822
     34  C2H       25.4130    7.7390   62.6230 C.ar    1  4331        0.0115
     35  C2J       24.1520    8.1040   62.2740 C.ar    1  4331        0.0032
     36  C2I       23.9590    8.6630   60.9960 C.ar    1  4331        0.0297
     37  C2G       25.0750    8.8530   60.1410 C.ar    1  4331        0.1409
     38  F2G       24.8060    9.3740   58.9240 F       1  4331       -0.2041
@<TRIPOS>BOND
     1    25    24   ar
     2    25    26   ar
     3    27    26    1
     4    24    23   ar
     5    26    28   ar
     6    23    22   ar
     7    28    22   ar
     8    28    29    1
     9    22    21    1
    10    21    19   am
    11    20    19    2
    12    19    17   am
    13    17    16    1
    14    17    18    1
    15    16    15    1
    16    18    30    2
    17    15    14    1
    18    38    37    1
    19    12    13   ar
    20    12    11   ar
    21    13     8   ar
    22     6     4    1
    23    30    31    1
    24    14    11    1
    25    11    10   ar
    26     8     7    1
    27     8     9   ar
    28    37    31   ar
    29    37    36   ar
    30     5     4    1
    31     7     4    1
    32     4     1    1
    33    31    32   ar
    34    10     9   ar
    35    36    35   ar
    36    32    33    1
    37    32    34   ar
    38     1     3   ar
    39     1     2   ar
    40    35    34   ar
