@<TRIPOS>MOLECULE
1gx0_UDP_A_1.pdb
 25 26 0 0 0
SMALL
GASTEIGER

@<TRIPOS>ATOM
      1  N1         2.6520   13.3320   43.2820 N.am  1369  UDP1369    -0.1766
      2  C2         2.7170   14.3280   42.2910 C.1   1369  UDP1369     0.2845
      3  N3         2.3500   15.6320   42.6440 N.2   1369  UDP1369    -0.2452
      4  C4         1.9050   16.1090   43.9020 C.1   1369  UDP1369     0.2182
      5  C5         1.8290   15.0530   44.9860 C.2   1369  UDP1369     0.1242
      6  C6         2.2270   13.6530   44.5880 C.2   1369  UDP1369     0.0929
      7  O2         3.0870   14.0710   41.1380 O.2   1369  UDP1369    -0.1918
      8  O4         1.6290   17.3030   44.0120 O.2   1369  UDP1369    -0.2085
      9  C1'        3.0440   11.9280   42.9190 C.3   1369  UDP1369     0.2401
     10  C2'        4.5570   11.7180   42.6950 C.3   1369  UDP1369     0.2319
     11  O2'        4.8010   10.6840   41.7510 O.3   1369  UDP1369    -0.2157
     12  C3'        5.0200   11.3790   44.1080 C.3   1369  UDP1369     0.2158
     13  C4'        3.8930   10.4330   44.5910 C.3   1369  UDP1369     0.1799
     14  O4'        2.6950   11.0210   43.9910 O.3   1369  UDP1369    -0.3320
     15  O3'        6.2860   10.7180   43.9960 O.3   1369  UDP1369    -0.2175
     16  C5'        3.6580   10.3850   46.1410 C.3   1369  UDP1369     0.1813
     17  O5'        4.0440   11.6410   46.6530 O.3   1369  UDP1369    -0.3111
     18  PA         5.3050   12.1130   47.4460 P.3   1369  UDP1369     0.2231
     19  O1A        6.4920   11.6030   46.7210 O.2   1369  UDP1369    -0.5169
     20  O2A        5.1810   13.6010   47.6330 O.3   1369  UDP1369    -0.4370
     21  O3A        5.1550   11.3180   48.8130 O.3   1369  UDP1369    -0.2261
     22  PB         6.2700   11.1520   49.9520 P.3   1369  UDP1369     0.5373
     23  O1B        7.2350    9.9860   49.4000 O.2   1369  UDP1369    -0.2221
     24  O2B        5.4950   10.7300   51.1430 O.3   1369  UDP1369    -0.1143
     25  O3B        7.1740   12.3300   50.0400 O.3   1369  UDP1369    -0.1143
@<TRIPOS>BOND
     1     7     2    2
     2    11    10    1
     3     2     3    2
     4     2     1   am
     5     3     4    2
     6    10     9    1
     7    10    12    1
     8     9     1    1
     9     9    14    1
    10     1     6    1
    11     4     8    2
    12     4     5    1
    13    14    13    1
    14    15    12    1
    15    12    13    1
    16     6     5    2
    17    13    16    1
    18    16    17    1
    19    17    18    1
    20    19    18    2
    21    18    20    1
    22    18    21    1
    23    21    22    1
    24    23    22    2
    25    22    25    1
    26    22    24    1
