@<TRIPOS>MOLECULE
1gx0_GAL_B_1.pdb
 12 12 0 0 0
SMALL
GASTEIGER

@<TRIPOS>ATOM
      1  C1        12.5210   13.4180   -1.8250 C.3   1371  GAL1371     0.3024
      2  C2        13.3040   13.2250   -3.1480 C.3   1371  GAL1371     0.2434
      3  C3        12.5600   12.3420   -3.9150 C.3   1371  GAL1371     0.2199
      4  C4        12.3390   10.9050   -3.2560 C.3   1371  GAL1371     0.2144
      5  C5        11.6980   11.1050   -1.8640 C.3   1371  GAL1371     0.1836
      6  C6        11.6460    9.8850   -0.9550 C.3   1371  GAL1371     0.2142
      7  O1        13.2100   14.2940   -0.9970 O.3   1371  GAL1371    -0.1869
      8  O2        13.4070   14.4570   -3.8670 O.3   1371  GAL1371    -0.2148
      9  O3        13.1390   12.0060   -5.2510 O.3   1371  GAL1371    -0.2174
     10  O4        13.6350   10.2730   -3.1330 O.3   1371  GAL1371    -0.2176
     11  O5        12.4180   12.1400   -1.0970 O.3   1371  GAL1371    -0.3236
     12  O6        11.0210   10.1700    0.3000 O.3   1371  GAL1371    -0.2176
@<TRIPOS>BOND
     1     9     3    1
     2     3     4    1
     3     3     2    1
     4     8     2    1
     5     4    10    1
     6     4     5    1
     7     2     1    1
     8     5    11    1
     9     5     6    1
    10     1    11    1
    11     1     7    1
    12     6    12    1
