@<TRIPOS>MOLECULE
1gx1_CDP_A_1.pdb
 25 26 0 0 0
SMALL
GASTEIGER

@<TRIPOS>ATOM
      1  O3B        0.1850   16.2880   82.5350 O.3   1158  CDP1158    -0.1143
      2  PB         0.4200   15.3210   81.2810 P.3   1158  CDP1158     0.5373
      3  O1B       -0.1160   14.0800   81.7990 O.3   1158  CDP1158    -0.1143
      4  O2B       -0.2880   16.0070   80.0310 O.2   1158  CDP1158    -0.2221
      5  O3A        2.0240   15.1230   81.2620 O.3   1158  CDP1158    -0.2261
      6  PA         3.0240   13.8960   81.3290 P.3   1158  CDP1158     0.2231
      7  O1A        3.3910   13.4480   79.9600 O.2   1158  CDP1158    -0.5169
      8  O2A        2.7220   12.7560   82.3040 O.3   1158  CDP1158    -0.4370
      9  O5'        4.2690   14.7070   81.8910 O.3   1158  CDP1158    -0.3111
     10  C5'        4.1290   15.3490   83.1540 C.3   1158  CDP1158     0.1813
     11  C4'        5.3400   16.2310   83.4780 C.3   1158  CDP1158     0.1799
     12  O4'        6.5030   15.4430   83.6140 O.3   1158  CDP1158    -0.3320
     13  C3'        5.7350   17.2230   82.3740 C.3   1158  CDP1158     0.2158
     14  O3'        4.9470   18.4260   82.3640 O.3   1158  CDP1158    -0.2175
     15  C2'        7.2060   17.4890   82.6320 C.3   1158  CDP1158     0.2319
     16  O2'        7.2600   18.4570   83.6720 O.3   1158  CDP1158    -0.2157
     17  C1'        7.6770   16.1300   83.1560 C.3   1158  CDP1158     0.2400
     18  N1         8.3740   15.2750   82.1630 N.am  1158  CDP1158    -0.1778
     19  C2         9.7250   15.0350   82.4190 C.1   1158  CDP1158     0.2756
     20  O2        10.3200   15.6900   83.2800 O.2   1158  CDP1158    -0.1925
     21  N3        10.4120   14.0460   81.7770 N.2   1158  CDP1158    -0.3024
     22  C4         9.8250   13.3400   80.7620 C.2   1158  CDP1158     0.2346
     23  N4        10.5730   12.4480   80.1170 N.pl3 1158  CDP1158    -0.0921
     24  C5         8.4430   13.5720   80.4960 C.2   1158  CDP1158     0.0687
     25  C6         7.7210   14.5150   81.2400 C.2   1158  CDP1158     0.0836
@<TRIPOS>BOND
     1     7     6    2
     2     4     2    2
     3    23    22    1
     4    24    22    1
     5    24    25    2
     6    22    21    2
     7    25    18    1
     8     5     2    1
     9     5     6    1
    10     2     3    1
    11     2     1    1
    12     6     9    1
    13     6     8    1
    14    21    19    2
    15     9    10    1
    16    18    19   am
    17    18    17    1
    18    14    13    1
    19    13    15    1
    20    13    11    1
    21    19    20    2
    22    15    17    1
    23    15    16    1
    24    10    11    1
    25    17    12    1
    26    11    12    1
