@<TRIPOS>MOLECULE
1gx2_HEM_A_1.pdb
 43 50 0 0 0
SMALL
GASTEIGER

@<TRIPOS>ATOM
      1 FE         -1.8630    0.6530   31.4220 Fe    1308  HEM1308     0.0000
      2  CHA        1.4440    1.5850   31.7370 C.2   1308  HEM1308     0.0000
      3  CHB       -2.7090    2.7070   34.0450 C.2   1308  HEM1308     0.0000
      4  CHC       -5.1660   -0.0420   30.8870 C.2   1308  HEM1308     0.0000
      5  CHD       -1.0480   -1.1220   28.5690 C.2   1308  HEM1308     0.0000
      6  NA        -0.8500    1.8700   32.6290 N.2   1308  HEM1308     0.0000
      7  C1A        0.5250    2.1390   32.6290 C.2   1308  HEM1308     0.0000
      8  C2A        0.8570    3.0060   33.7440 C.2   1308  HEM1308     0.0000
      9  C3A       -0.2690    3.2550   34.4170 C.2   1308  HEM1308     0.0000
     10  C4A       -1.3600    2.6260   33.6870 C.2   1308  HEM1308     0.0000
     11  CMA       -0.3370    3.9830   35.7500 C.3   1308  HEM1308     0.0000
     12  CAA        2.2010    3.5950   34.1410 C.3   1308  HEM1308     0.0000
     13  CBA        2.6310    4.8010   33.3190 C.3   1308  HEM1308     0.0000
     14  CGA        3.8980    5.4330   33.8540 C.2   1308  HEM1308     0.0000
     15  O1A        4.5730    6.1520   33.0920 O.co2 1308  HEM1308     0.0000
     16  O2A        4.2130    5.2160   35.0390 O.co2 1308  HEM1308     0.0000
     17  NB        -3.5770    1.1890   32.3050 N.ar  1308  HEM1308     0.0000
     18  C1B       -3.7430    2.0110   33.4160 C.ar  1308  HEM1308     0.0000
     19  C2B       -5.1190    1.9600   33.8950 C.ar  1308  HEM1308     0.0000
     20  C3B       -5.8190    1.1620   33.0380 C.ar  1308  HEM1308     0.0000
     21  C4B       -4.8630    0.7450   32.0000 C.ar  1308  HEM1308     0.0000
     22  CMB       -5.7110    2.7920   35.0280 C.3   1308  HEM1308     0.0000
     23  CAB       -7.1930    0.9150   33.1080 C.3   1308  HEM1308     0.0000
     24  CBB       -7.7660   -0.4260   33.0920 C.3   1308  HEM1308     0.0000
     25  NC        -2.8900   -0.2970   29.9860 N.2   1308  HEM1308     0.0000
     26  C1C       -4.2530   -0.5100   29.9400 C.2   1308  HEM1308     0.0000
     27  C2C       -4.6370   -1.2150   28.7340 C.2   1308  HEM1308     0.0000
     28  C3C       -3.5000   -1.4640   28.0460 C.2   1308  HEM1308     0.0000
     29  C4C       -2.4110   -0.9080   28.8370 C.2   1308  HEM1308     0.0000
     30  CMC       -6.0640   -1.5850   28.3270 C.3   1308  HEM1308     0.0000
     31  CAC       -3.3900   -2.0010   26.7600 C.3   1308  HEM1308     0.0000
     32  CBC       -3.7720   -3.3450   26.3790 C.3   1308  HEM1308     0.0000
     33  ND        -0.1400    0.2440   30.4200 N.ar  1308  HEM1308     0.0000
     34  C1D        0.0180   -0.6080   29.3110 C.ar  1308  HEM1308     0.0000
     35  C2D        1.4270   -0.8840   29.0590 C.ar  1308  HEM1308     0.0000
     36  C3D        2.1150   -0.0560   29.9070 C.ar  1308  HEM1308     0.0000
     37  C4D        1.1390    0.6620   30.7280 C.ar  1308  HEM1308     0.0000
     38  CMD        1.9880   -2.0130   28.1900 C.3   1308  HEM1308     0.0000
     39  CAD        3.6230    0.0940   30.0070 C.3   1308  HEM1308     0.0000
     40  CBD        4.0790    1.1220   28.9850 C.3   1308  HEM1308     0.0000
     41  CGD        5.5890    1.3360   28.9850 C.2   1308  HEM1308     0.0000
     42  O1D        6.0600    2.2090   28.2220 O.co2 1308  HEM1308     0.0000
     43  O2D        6.2920    0.6330   29.7470 O.co2 1308  HEM1308     0.0000
@<TRIPOS>BOND
     1    32    31    1
     2    31    28    1
     3    28    27    2
     4    28    29    1
     5    38    35    1
     6    42    41   ar
     7    30    27    1
     8     5    29    1
     9     5    34    2
    10    27    26    1
    11    29    25    2
    12    41    40    1
    13    41    43   ar
    14    40    39    1
    15    35    34   ar
    16    35    36   ar
    17    34    33   ar
    18    36    39    1
    19    36    37   ar
    20    26    25    1
    21    26     4    2
    22    25     1    1
    23    33    37   ar
    24    33     1    1
    25    37     2    2
    26     4    21    1
    27     1    17    1
    28     1     6    1
    29     2     7    1
    30    21    17   ar
    31    21    20   ar
    32    17    18   ar
    33     6     7    2
    34     6    10    1
    35     7     8    1
    36    20    23    1
    37    20    19   ar
    38    15    14   ar
    39    24    23    1
    40    13    14    1
    41    13    12    1
    42    18    19   ar
    43    18     3    1
    44    10     3    2
    45    10     9    1
    46     8    12    1
    47     8     9    2
    48    14    16   ar
    49    19    22    1
    50     9    11    1
