@<TRIPOS>MOLECULE
1gx2_BHO_A_1.pdb
 10 10 0 0 0
SMALL
GASTEIGER

@<TRIPOS>ATOM
      1  C1        -2.9740    6.7830   33.2130 C.ar  1309  BHO1309     0.0227
      2  C2        -3.9880    7.6980   33.6280 C.ar  1309  BHO1309     0.0019
      3  C3        -3.6650    8.6820   34.5720 C.ar  1309  BHO1309     0.0001
      4  C4        -2.4700    8.6390   35.2550 C.ar  1309  BHO1309     0.0000
      5  C5        -1.4700    7.7420   34.8870 C.ar  1309  BHO1309     0.0001
      6  C6        -1.6990    6.8100   33.8560 C.ar  1309  BHO1309     0.0019
      7  C         -3.2350    5.8550   32.0930 C.2   1309  BHO1309     0.1101
      8  O1        -2.2590    5.1350   31.6850 O.2   1309  BHO1309    -0.5359
      9  N         -4.4140    5.7380   31.5710 N.am  1309  BHO1309    -0.1984
     10  O2        -4.7500    4.5490   30.8690 O.3   1309  BHO1309    -0.4024
@<TRIPOS>BOND
     1    10     9    1
     2     9     7   am
     3     8     7    2
     4     7     1    1
     5     1     2   ar
     6     1     6   ar
     7     2     3   ar
     8     6     5   ar
     9     3     4   ar
    10     5     4   ar
