@<TRIPOS>MOLECULE
1gx4_UDP_A_1.pdb
 25 26 0 0 0
SMALL
GASTEIGER

@<TRIPOS>ATOM
      1  N1         2.8570   13.5450   43.7050 N.am  1369  UDP1369    -0.1766
      2  C2         2.9410   14.5360   42.7230 C.1   1369  UDP1369     0.2845
      3  N3         2.4770   15.8120   43.0410 N.2   1369  UDP1369    -0.2452
      4  C4         1.8830   16.2000   44.2890 C.1   1369  UDP1369     0.2182
      5  C5         2.0190   15.2490   45.3610 C.2   1369  UDP1369     0.1242
      6  C6         2.3710   13.8480   45.0020 C.2   1369  UDP1369     0.0929
      7  O2         3.2310   14.2380   41.5600 O.2   1369  UDP1369    -0.1918
      8  O4         1.7330   17.4050   44.4810 O.2   1369  UDP1369    -0.2085
      9  C1'        3.1820   12.1310   43.3030 C.3   1369  UDP1369     0.2401
     10  C2'        4.6980   11.9230   43.0580 C.3   1369  UDP1369     0.2319
     11  O2'        4.9520   10.8600   42.1330 O.3   1369  UDP1369    -0.2157
     12  C3'        5.1570   11.6640   44.4980 C.3   1369  UDP1369     0.2158
     13  C4'        4.0610   10.6960   44.9940 C.3   1369  UDP1369     0.1799
     14  O4'        2.8450   11.2210   44.3740 O.3   1369  UDP1369    -0.3320
     15  O3'        6.4590   11.0330   44.4440 O.3   1369  UDP1369    -0.2175
     16  C5'        3.8480   10.5980   46.5360 C.3   1369  UDP1369     0.1813
     17  O5'        4.0820   11.8770   47.1480 O.3   1369  UDP1369    -0.3111
     18  PA         5.4200   12.2320   47.9170 P.3   1369  UDP1369     0.2231
     19  O1A        6.5310   11.5280   47.2230 O.2   1369  UDP1369    -0.5169
     20  O2A        5.4870   13.7400   48.0450 O.3   1369  UDP1369    -0.4370
     21  O3A        5.2070   11.5720   49.3800 O.3   1369  UDP1369    -0.2261
     22  PB         6.4120   11.2700   50.4490 P.3   1369  UDP1369     0.5373
     23  O1B        7.2260   10.0640   49.8780 O.2   1369  UDP1369    -0.2221
     24  O2B        5.6820   10.8650   51.6920 O.3   1369  UDP1369    -0.1143
     25  O3B        7.2660   12.5080   50.5190 O.3   1369  UDP1369    -0.1143
@<TRIPOS>BOND
     1     7     2    2
     2    11    10    1
     3     2     3    2
     4     2     1   am
     5     3     4    2
     6    10     9    1
     7    10    12    1
     8     9     1    1
     9     9    14    1
    10     1     6    1
    11     4     8    2
    12     4     5    1
    13    14    13    1
    14    15    12    1
    15    12    13    1
    16    13    16    1
    17     6     5    2
    18    16    17    1
    19    17    18    1
    20    19    18    2
    21    18    20    1
    22    18    21    1
    23    21    22    1
    24    23    22    2
    25    22    25    1
    26    22    24    1
