@<TRIPOS>MOLECULE
1gx4_NAG_A_1.pdb
 15 15 0 0 0
SMALL
GASTEIGER

@<TRIPOS>ATOM
      1  C1        12.2890   10.1760   60.0150 C.3   1375  NAG1375     0.2917
      2  C2        11.1670    9.1420   60.2810 C.3   1375  NAG1375     0.1871
      3  C3        10.6970    8.5580   58.9250 C.3   1375  NAG1375     0.2095
      4  C4        10.2910    9.7010   57.9800 C.3   1375  NAG1375     0.2136
      5  C5        11.4510   10.6950   57.7750 C.3   1375  NAG1375     0.1835
      6  C7        11.5590    7.8530   62.3990 C.2   1375  NAG1375     0.2421
      7  C8        12.2630    6.6790   63.1020 C.3   1375  NAG1375     0.0964
      8  N2        11.8640    8.1110   61.1160 N.am  1375  NAG1375    -0.1991
      9  O1        12.7190   10.8090   61.1930 O.3   1375  NAG1375    -0.1879
     10  O3         9.6020    7.6620   59.1940 O.3   1375  NAG1375    -0.2183
     11  O4         9.9270    9.1740   56.6670 O.3   1375  NAG1375    -0.2176
     12  O5        11.8470   11.2060   59.0820 O.3   1375  NAG1375    -0.3242
     13  O7        10.7130    8.5040   62.9940 O.2   1375  NAG1375    -0.2733
     14  C6        11.1640   11.9060   56.9050 C.3   1375  NAG1375     0.2142
     15  O6        12.3630   12.6560   56.6710 O.3   1375  NAG1375    -0.2176
@<TRIPOS>BOND
     1    11     4    1
     2    15    14    1
     3    14     5    1
     4     5     4    1
     5     5    12    1
     6     4     3    1
     7     3    10    1
     8     3     2    1
     9    12     1    1
    10     1     2    1
    11     1     9    1
    12     2     8    1
    13     8     6   am
    14     6    13    2
    15     6     7    1
