@<TRIPOS>MOLECULE
1gx4_GAL_A_1.pdb
 11 11 0 0 0
SMALL
GASTEIGER

@<TRIPOS>ATOM
      1  C1         8.5370    9.2280   56.3210 C.3   1371  GAL1371     0.1777
      2  C2         8.4370    9.1430   54.8250 C.3   1371  GAL1371     0.2141
      3  C3         6.9570    9.0490   54.4490 C.3   1371  GAL1371     0.2173
      4  C4         6.3160    7.8690   55.2160 C.3   1371  GAL1371     0.2142
      5  C5         6.4450    8.0100   56.6770 C.3   1371  GAL1371     0.1810
      6  C6         5.8540    6.9330   57.5640 C.3   1371  GAL1371     0.2141
      7  O2         8.9970   10.3160   54.1930 O.3   1371  GAL1371    -0.2176
      8  O3         6.8620    8.9190   53.0230 O.3   1371  GAL1371    -0.2175
      9  O4         6.8380    6.5970   54.7790 O.3   1371  GAL1371    -0.2176
     10  O5         7.8890    8.0990   56.9870 O.3   1371  GAL1371    -0.3481
     11  O6         6.1590    7.1610   58.9460 O.3   1371  GAL1371    -0.2176
@<TRIPOS>BOND
     1     8     3    1
     2     7     2    1
     3     3     2    1
     4     3     4    1
     5     9     4    1
     6     2     1    1
     7     4     5    1
     8     1    10    1
     9     5    10    1
    10     5     6    1
    11     6    11    1
