@<TRIPOS>MOLECULE
1gx5_GTP_A_1.pdb
 13 12 0 0 0
SMALL
GASTEIGER

@<TRIPOS>ATOM
      1  PG        11.7030   23.6460   27.1870 P.3   1531  GTP1531     0.5373
      2  O1G       10.4510   23.6110   26.3240 O.2   1531  GTP1531    -0.2221
      3  O2G       12.6710   22.5160   26.8700 O.3   1531  GTP1531    -0.1143
      4  O3G       11.3730   23.7390   28.6640 O.3   1531  GTP1531    -0.1143
      5  O3B       12.4700   24.9810   26.7920 O.3   1531  GTP1531    -0.2257
      6  PB        13.0250   26.1930   27.6610 P.3   1531  GTP1531     0.2317
      7  O1B       12.4740   27.4240   27.1340 O.2   1531  GTP1531    -0.5167
      8  O2B       12.8340   25.8810   29.0680 O.3   1531  GTP1531    -0.4368
      9  O3A       14.5960   26.1170   27.4220 O.3   1531  GTP1531    -0.2257
     10  PA        15.6040   24.8460   27.2740 P.3   1531  GTP1531     0.5373
     11  O1A       15.2900   24.0910   26.0330 O.2   1531  GTP1531    -0.2221
     12  O2A       15.6360   24.1060   28.5640 O.3   1531  GTP1531    -0.1143
     13  O5'       16.9650   25.6560   27.1010 O.3   1531  GTP1531    -0.1143
@<TRIPOS>BOND
     1    11    10    2
     2     2     1    2
     3     5     1    1
     4     5     6    1
     5     3     1    1
     6    13    10    1
     7     7     6    2
     8     1     4    1
     9    10     9    1
    10    10    12    1
    11     9     6    1
    12     6     8    1
