@<TRIPOS>MOLECULE
1gx6_UTP_A_1.pdb
 29 30 0 0 0
SMALL
GASTEIGER

@<TRIPOS>ATOM
      1  PA        18.3090   26.3650   27.4410 P.3   1001  UTP1001     0.2189
      2  O1A       19.0580   25.4780   26.5140 O.2   1001  UTP1001    -0.5170
      3  O2A       18.4600   26.2060   28.9130 O.3   1001  UTP1001    -0.4371
      4  O3A       16.7250   26.3280   27.0940 O.3   1001  UTP1001    -0.2700
      5  O5'       18.5660   27.8840   27.0760 O.3   1001  UTP1001    -0.3112
      6  PB        15.5020   25.6360   27.8210 P.3   1001  UTP1001     0.2277
      7  O1B       15.7550   25.1330   29.1610 O.3   1001  UTP1001    -0.4368
      8  O2B       14.9620   24.7290   26.8430 O.2   1001  UTP1001    -0.5168
      9  O3B       14.5600   26.9100   27.9850 O.3   1001  UTP1001    -0.2258
     10  PG        13.1460   27.0700   28.6780 P.3   1001  UTP1001     0.5373
     11  O1G       12.9610   28.5600   28.9830 O.3   1001  UTP1001    -0.1143
     12  O2G       12.1920   26.5420   27.6370 O.2   1001  UTP1001    -0.2221
     13  O3G       13.1230   26.2390   29.9520 O.3   1001  UTP1001    -0.1143
     14  C5'       17.9530   28.9080   27.8370 C.3   1001  UTP1001     0.1813
     15  C4'       17.7990   30.1420   26.9990 C.3   1001  UTP1001     0.1799
     16  O4'       16.7650   29.9180   26.0020 O.3   1001  UTP1001    -0.3320
     17  C1'       16.0250   31.1050   25.8560 C.3   1001  UTP1001     0.2401
     18  C2'       15.9600   31.6540   27.2820 C.3   1001  UTP1001     0.2319
     19  O2'       15.6240   33.0210   27.2930 O.3   1001  UTP1001    -0.2157
     20  C3'       17.3780   31.3760   27.7870 C.3   1001  UTP1001     0.2158
     21  O3'       18.2720   32.4520   27.5230 O.3   1001  UTP1001    -0.2175
     22  N1        14.7070   30.7800   25.2820 N.am  1001  UTP1001    -0.1766
     23  C6        13.9210   29.7820   25.8090 C.2   1001  UTP1001     0.0929
     24  C2        14.2680   31.5370   24.2040 C.1   1001  UTP1001     0.2845
     25  O2        14.9580   32.3930   23.6750 O.2   1001  UTP1001    -0.1918
     26  N3        12.9970   31.2440   23.7640 N.2   1001  UTP1001    -0.2452
     27  C4        12.1460   30.2760   24.2670 C.1   1001  UTP1001     0.2182
     28  O4        10.9960   30.1780   23.8170 O.2   1001  UTP1001    -0.2085
     29  C5        12.6920   29.5090   25.3500 C.2   1001  UTP1001     0.1242
@<TRIPOS>BOND
     1    25    24    2
     2    26    24    2
     3    26    27    2
     4    28    27    2
     5    24    22   am
     6    27    29    1
     7    22    23    1
     8    22    17    1
     9    29    23    2
    10    17    16    1
    11    17    18    1
    12    16    15    1
    13     2     1    2
    14     8     6    2
    15    15    20    1
    16    15    14    1
    17     5     1    1
    18     5    14    1
    19     4     1    1
    20     4     6    1
    21    18    19    1
    22    18    20    1
    23     1     3    1
    24    21    20    1
    25    12    10    2
    26     6     9    1
    27     6     7    1
    28     9    10    1
    29    10    11    1
    30    10    13    1
