@<TRIPOS>MOLECULE
1gx8_RTL_A_1.pdb
 21 21 0 0 0
SMALL
GASTEIGER

@<TRIPOS>ATOM
      1  C1        12.1920   -2.0580   56.5960 C.3   1163  RTL1163     0.0037
      2  C2        13.6660   -2.1210   57.0700 C.3   1163  RTL1163     0.0003
      3  C3        13.8270   -2.4290   58.5320 C.3   1163  RTL1163     0.0000
      4  C4        13.2170   -1.2960   59.3320 C.3   1163  RTL1163     0.0003
      5  C5        11.8380   -0.9510   58.8370 C.3   1163  RTL1163     0.0040
      6  C6        11.2990   -1.3880   57.6630 C.3   1163  RTL1163     0.0220
      7  C7        10.0610   -0.7270   57.2060 C.2   1163  RTL1163    -0.0268
      8  C8         8.7950   -1.1080   57.1830 C.2   1163  RTL1163    -0.0088
      9  C9         7.5610   -0.5020   56.7350 C.2   1163  RTL1163    -0.0222
     10  C10        6.4290   -1.2150   56.9020 C.2   1163  RTL1163    -0.0043
     11  C11        5.0900   -0.8210   56.5200 C.2   1163  RTL1163    -0.0007
     12  C12        3.9760   -1.5590   56.6580 C.2   1163  RTL1163    -0.0045
     13  C13        2.6270   -1.1300   56.2950 C.2   1163  RTL1163    -0.0236
     14  C14        2.0180   -0.2960   57.1490 C.2   1163  RTL1163     0.0048
     15  C15        0.6750    0.3290   57.0320 C.3   1163  RTL1163     0.2080
     16  O1        -0.2350   -0.3640   57.7090 O.3   1163  RTL1163    -0.2152
     17  C16       12.2170   -1.2010   55.3060 C.3   1163  RTL1163     0.0003
     18  C17       11.7030   -3.4620   56.2220 C.3   1163  RTL1163     0.0003
     19  C18       11.2360    0.1590   59.6770 C.3   1163  RTL1163     0.0003
     20  C19        7.5950    0.9030   56.1510 C.3   1163  RTL1163     0.0310
     21  C20        2.0350   -1.6590   55.0290 C.3   1163  RTL1163     0.0308
@<TRIPOS>BOND
     1    21    13    1
     2    17     1    1
     3    20     9    1
     4    18     1    1
     5    13    12    1
     6    13    14    2
     7    11    12    2
     8    11    10    1
     9     1     2    1
    10     1     6    1
    11     9    10    2
    12     9     8    1
    13    15    14    1
    14    15    16    1
    15     2     3    1
    16     8     7    2
    17     7     6    1
    18     6     5    1
    19     3     4    1
    20     5     4    1
    21     5    19    1
