@<TRIPOS>MOLECULE
1gx9_REA_A_1.pdb
 22 22 0 0 0
SMALL
GASTEIGER

@<TRIPOS>ATOM
      1  C1        14.0560   48.7610   57.1560 C.3   1163  REA1163     0.0183
      2  C2        12.6220   48.7420   57.7120 C.3   1163  REA1163     0.0044
      3  C3        12.6600   48.8230   59.2470 C.3   1163  REA1163     0.0047
      4  C4        13.3640   47.5480   59.7510 C.3   1163  REA1163     0.0217
      5  C5        14.6820   47.2960   59.0640 C.2   1163  REA1163    -0.0479
      6  C6        15.0140   47.8420   57.8830 C.2   1163  REA1163    -0.0307
      7  C7        16.2090   47.4840   57.1010 C.2   1163  REA1163    -0.0052
      8  C8        17.4720   47.8760   57.1860 C.2   1163  REA1163    -0.0046
      9  C9        18.5190   47.4360   56.2410 C.2   1163  REA1163    -0.0219
     10  C10       19.6030   48.1980   56.1200 C.2   1163  REA1163    -0.0046
     11  C11       20.7770   47.9890   55.2600 C.2   1163  REA1163    -0.0049
     12  C12       22.0110   48.0040   55.7630 C.2   1163  REA1163    -0.0259
     13  C13       23.2610   47.7850   55.0130 C.3   1163  REA1163     0.0333
     14  C14       24.3710   47.3300   55.6090 C.3   1163  REA1163     0.1184
     15  C15       24.8110   47.3390   57.0080 C.2   1163  REA1163     0.3652
     16  C16       14.0000   48.3470   55.6680 C.3   1163  REA1163     0.0043
     17  C17       14.6130   50.1920   57.2270 C.3   1163  REA1163     0.0043
     18  C18       15.5270   46.2440   59.7210 C.3   1163  REA1163     0.0260
     19  C19       18.3340   46.1730   55.4470 C.3   1163  REA1163     0.0310
     20  C20       23.1840   47.5800   53.5180 C.3   1163  REA1163     0.0053
     21  O1        24.0140   47.5830   57.9540 O.co2 1163  REA1163    -0.2456
     22  O2        26.0280   47.0880   57.2400 O.co2 1163  REA1163    -0.2456
@<TRIPOS>BOND
     1    20    13    1
     2    13    14    1
     3    13    12    1
     4    11    12    2
     5    11    10    1
     6    19     9    1
     7    14    15    1
     8    16     1    1
     9    10     9    2
    10     9     8    1
    11    15    22   ar
    12    15    21   ar
    13     7     8    2
    14     7     6    1
    15     1    17    1
    16     1     2    1
    17     1     6    1
    18     2     3    1
    19     6     5    2
    20     5    18    1
    21     5     4    1
    22     3     4    1
