@<TRIPOS>MOLECULE
1gxa_PLM_A_1.pdb
 18 17 0 0 0
SMALL
GASTEIGER

@<TRIPOS>ATOM
      1  C1         4.0460   -1.9010   56.9580 C.2   1163  PLM1163     0.3649
      2  O1         3.5360   -2.4920   55.9780 O.co2 1163  PLM1163    -0.2457
      3  O2         3.3680   -1.1550   57.6930 O.co2 1163  PLM1163    -0.2457
      4  C2         5.5270   -2.1170   57.2430 C.3   1163  PLM1163     0.1141
      5  C3         6.1250   -1.1270   58.2320 C.3   1163  PLM1163     0.0118
      6  C4         7.0840   -0.1370   57.5790 C.3   1163  PLM1163     0.0006
      7  C5         7.7640   -0.6970   56.3320 C.3   1163  PLM1163     0.0000
      8  C6         9.0800   -1.4040   56.6230 C.3   1163  PLM1163     0.0000
      9  C7        10.2820   -0.6050   56.0790 C.3   1163  PLM1163     0.0000
     10  C8        11.6050   -1.3510   56.3490 C.3   1163  PLM1163     0.0000
     11  C9        11.5260   -2.8330   56.0080 C.3   1163  PLM1163     0.0000
     12  CA        12.7330   -3.6420   56.4540 C.3   1163  PLM1163     0.0000
     13  CB        13.9900   -3.3760   55.6310 C.3   1163  PLM1163     0.0000
     14  CC        14.6310   -4.7090   55.2340 C.3   1163  PLM1163     0.0000
     15  CD        16.0350   -4.7980   55.8030 C.3   1163  PLM1163     0.0000
     16  CE        16.9870   -5.4950   54.8420 C.3   1163  PLM1163     0.0000
     17  CF        17.3200   -4.6090   53.6410 C.3   1163  PLM1163     0.0000
     18  CG        18.6680   -5.0070   53.0400 C.3   1163  PLM1163     0.0000
@<TRIPOS>BOND
     1    18    17    1
     2    17    16    1
     3    16    15    1
     4    14    13    1
     5    14    15    1
     6    13    12    1
     7     2     1   ar
     8    11    10    1
     9    11    12    1
    10     9    10    1
    11     9     8    1
    12     7     8    1
    13     7     6    1
    14     1     4    1
    15     1     3   ar
    16     4     5    1
    17     6     5    1
