@<TRIPOS>MOLECULE
1gxf_QUM_A_1.pdb
 28 30 0 0 0
SMALL
GASTEIGER

@<TRIPOS>ATOM
      1  C2        17.7320   13.4310   -5.1950 C.2   1501  QUM1501     0.1353
      2  C3        18.5760   14.3730   -5.8070 C.2   1501  QUM1501     0.0389
      3  C4        19.3820   15.1490   -5.0520 C.2   1501  QUM1501     0.0313
      4  C11       19.3960   15.0210   -3.6460 C.2   1501  QUM1501     0.1177
      5  C12       18.5550   14.0760   -3.0380 C.3   1501  QUM1501     0.1134
      6  C1        17.7160   13.2700   -3.8490 C.2   1501  QUM1501     0.0231
      7  N10       20.2120   15.8040   -2.8840 N.2   1501  QUM1501    -0.4092
      8  C14       20.2410   15.6970   -1.5300 C.2   1501  QUM1501     0.1184
      9  C13       19.4170   14.7590   -0.8430 C.3   1501  QUM1501     0.1105
     10  C9        18.5470   13.9200   -1.6010 C.2   1501  QUM1501     0.0523
     11  C5        21.1190   16.5400   -0.8100 C.2   1501  QUM1501     0.0396
     12  C6        21.1420   16.4590    0.5520 C.2   1501  QUM1501     0.0596
     13  C7        20.3610   15.5330    1.2590 C.2   1501  QUM1501     0.0077
     14  C8        19.5150   14.7190    0.5820 C.2   1501  QUM1501    -0.0129
     15  N18       17.7120   12.9880   -1.1150 N.2   1501  QUM1501    -0.2795
     16  C19       17.3890   12.5070    0.1910 C.3   1501  QUM1501     0.1027
     17  C20       17.9690   13.4240    1.2630 C.3   1501  QUM1501     0.0262
     18  C21       15.8570   12.3920    0.3350 C.3   1501  QUM1501     0.0257
     19  C22       15.2250   11.1660   -0.3360 C.3   1501  QUM1501     0.0193
     20  C23       13.7200   11.1970   -0.0750 C.3   1501  QUM1501     0.0722
     21  N24       13.2320   10.1370    0.8140 N.3   1501  QUM1501    -0.2727
     22  C27       13.2150    8.8540   -0.0010 C.3   1501  QUM1501     0.0721
     23  C25       12.0220   10.4900    1.5900 C.3   1501  QUM1501     0.0721
     24  C28       13.4000    7.6150    0.7140 C.3   1501  QUM1501     0.0188
     25  C26       11.0030    9.3930    1.7570 C.3   1501  QUM1501     0.0188
     26 CL1        22.1130   17.5850    1.4370 Cl    1501  QUM1501    -0.0822
     27  O15       16.9260   12.7070   -6.0510 O.2   1501  QUM1501    -0.4717
     28  C17       16.8900   11.3150   -5.7840 C.3   1501  QUM1501     0.2525
@<TRIPOS>BOND
     1    27    28    1
     2    27     1    1
     3     2     1    1
     4     2     3    2
     5     1     6    2
     6     3     4    1
     7     6     5    1
     8     4     5    1
     9     4     7    2
    10     5    10    1
    11     7     8    2
    12    10    15    2
    13    10     9    1
    14     8     9    1
    15     8    11    1
    16    15    16    1
    17     9    14    1
    18    11    12    2
    19    19    20    1
    20    19    18    1
    21    20    21    1
    22    22    24    1
    23    22    21    1
    24    16    18    1
    25    16    17    1
    26    12    13    1
    27    12    26    1
    28    14    13    2
    29    21    23    1
    30    23    25    1
