@<TRIPOS>MOLECULE
1gxo_ADA_A_1.pdb
 13 13 0 0 0
SMALL
GASTEIGER

@<TRIPOS>ATOM
      1  C1        20.8310    0.3000   27.4090 C.3   1649  ADA1649     0.3028
      2  C2        22.1100    1.0810   27.7710 C.3   1649  ADA1649     0.2435
      3  C3        22.5000    1.0680   29.2630 C.3   1649  ADA1649     0.2204
      4  C4        21.3140    1.1440   30.2510 C.3   1649  ADA1649     0.2229
      5  C5        20.2680    0.0990   29.7890 C.3   1649  ADA1649     0.2530
      6  C6        19.0630    0.2300   30.7620 C.2   1649  ADA1649     0.3941
      7  O1        21.0840   -1.0430   27.0400 O.3   1649  ADA1649    -0.1869
      8  O2        23.1890    0.6000   26.9890 O.3   1649  ADA1649    -0.2148
      9  O3        23.3770    2.1500   29.4910 O.3   1649  ADA1649    -0.2174
     10  O4        20.6150    2.4070   30.2020 O.3   1649  ADA1649    -0.2171
     11  O5        19.8610    0.3470   28.4470 O.3   1649  ADA1649    -0.3149
     12  O6B       19.2230    0.7080   31.8960 O.co2 1649  ADA1649    -0.2429
     13  O6A       17.9480   -0.1300   30.4120 O.co2 1649  ADA1649    -0.2429
@<TRIPOS>BOND
     1     8     2    1
     2     7     1    1
     3     1     2    1
     4     1    11    1
     5     2     3    1
     6    11     5    1
     7     3     9    1
     8     3     4    1
     9     5     4    1
    10     5     6    1
    11    10     4    1
    12    13     6   ar
    13     6    12   ar
