@<TRIPOS>MOLECULE
1gxw_LYS_A_1.pdb
 10 9 0 0 0
SMALL
GASTEIGER

@<TRIPOS>ATOM
      1  N         37.3820   39.9320   -4.0540 N.3   323  LYS323     -0.1208
      2  CA        38.5150   39.1210   -4.5020 C.3   323  LYS323      0.1943
      3  C         38.1030   37.9920   -5.4530 C.2   323  LYS323      0.3819
      4  O         36.8860   37.7780   -5.6350 O.co2 323  LYS323     -0.2441
      5  CB        39.2390   38.5230   -3.2960 C.3   323  LYS323      0.0307
      6  CG        38.3580   37.6140   -2.4900 C.3   323  LYS323      0.0036
      7  CD        39.1690   36.6560   -1.6600 C.3   323  LYS323      0.0206
      8  CE        38.3020   35.4810   -1.2950 C.3   323  LYS323      0.1093
      9  NZ        36.9340   36.0050   -1.1110 N.3   323  LYS323     -0.1314
     10  OXT       39.0100   37.3260   -6.0040 O.co2 323  LYS323     -0.2441
@<TRIPOS>BOND
     1    10     3   ar
     2     4     3   ar
     3     3     2    1
     4     2     1    1
     5     2     5    1
     6     5     6    1
     7     6     7    1
     8     7     8    1
     9     8     9    1
