@<TRIPOS>MOLECULE
1gxz_BRT_A_1.pdb
 10 10 0 0 0
SMALL
GASTEIGER

@<TRIPOS>ATOM
      1  C2         9.2740   24.1480   18.1750 C.ar  1227  BRT1227     0.1035
      2  N3         9.2090   24.1440   19.5450 N.ar  1227  BRT1227    -0.2417
      3  C4         9.0360   25.2950   20.2490 C.ar  1227  BRT1227     0.1055
      4  C5         8.9220   26.5050   19.5380 C.ar  1227  BRT1227     0.0539
      5 BR          8.7020   28.0310   20.3860 Br    1227  BRT1227    -0.0474
      6  C6         8.9850   26.5260   18.1620 C.ar  1227  BRT1227     0.0144
      7  C1         9.1630   25.3520   17.4360 C.ar  1227  BRT1227     0.0763
      8  C7         9.2420   25.3220   15.9410 C.2   1227  BRT1227     0.2857
      9  O9         9.1420   26.4020   15.3570 O.2   1227  BRT1227    -0.2666
     10  N8         9.4160   24.1820   15.2460 N.am  1227  BRT1227    -0.0837
@<TRIPOS>BOND
     1    10     8   am
     2     9     8    2
     3     8     7    1
     4     7     6   ar
     5     7     1   ar
     6     6     4   ar
     7     1     2   ar
     8     4     3   ar
     9     4     5    1
    10     2     3   ar
