@<TRIPOS>MOLECULE
1gy3_ATP_A_1.pdb
 27 29 0 0 0
SMALL
GASTEIGER

@<TRIPOS>ATOM
      1  PB        36.8260   56.5050    5.3570 P.3   1297  ATP1297     0.5373
      2  O1B       37.8990   55.8080    6.0740 O.3   1297  ATP1297    -0.1143
      3  O2B       35.5040   56.4350    6.1480 O.3   1297  ATP1297    -0.1143
      4  O3B       36.6440   55.9290    3.9420 O.2   1297  ATP1297    -0.2221
      5  PA        37.9590   58.4060    3.7930 P.3   1297  ATP1297     0.2231
      6  O1A       38.8860   59.5220    4.1380 O.3   1297  ATP1297    -0.4370
      7  O2A       38.6960   57.2030    3.1780 O.2   1297  ATP1297    -0.5169
      8  O3A       37.2250   58.0420    5.1560 O.3   1297  ATP1297    -0.2261
      9  O5'       36.8130   58.9230    2.8180 O.3   1297  ATP1297    -0.3111
     10  C5'       36.1240   58.0200    2.0070 C.3   1297  ATP1297     0.1813
     11  C4'       36.0370   58.5010    0.5690 C.3   1297  ATP1297     0.1821
     12  O4'       35.7710   59.8880    0.4450 O.3   1297  ATP1297    -0.3135
     13  C3'       37.3580   58.2760   -0.1480 C.3   1297  ATP1297     0.2184
     14  O3'       37.4910   56.9370   -0.5690 O.3   1297  ATP1297    -0.2174
     15  C2'       37.3030   59.2840   -1.2890 C.3   1297  ATP1297     0.2570
     16  O2'       36.6720   58.7540   -2.4340 O.3   1297  ATP1297    -0.2130
     17  C1'       36.4550   60.3990   -0.6850 C.3   1297  ATP1297     0.3186
     18  N9        37.3470   61.4700   -0.2330 N.pl3 1297  ATP1297    -0.1439
     19  C8        37.9430   61.5680    1.0010 C.3   1297  ATP1297     0.3377
     20  N7        38.6960   62.6890    1.0270 N.2   1297  ATP1297    -0.2095
     21  C5        38.5840   63.2920   -0.1800 C.2   1297  ATP1297     0.2526
     22  C6        39.1450   64.4560   -0.6800 C.2   1297  ATP1297     0.4393
     23  N6        39.8260   65.2150    0.1730 N.pl3 1297  ATP1297     0.2180
     24  N1        38.8680   64.8700   -1.9780 N.2   1297  ATP1297     0.0021
     25  C2        38.0270   64.0990   -2.7600 C.3   1297  ATP1297     0.5254
     26  N3        37.4730   62.9270   -2.2560 N.2   1297  ATP1297    -0.0055
     27  C4        37.7480   62.5360   -0.9860 C.2   1297  ATP1297     0.3518
@<TRIPOS>BOND
     1    25    26    1
     2    25    24    1
     3    16    15    1
     4    26    27    2
     5    24    22    2
     6    15    17    1
     7    15    13    1
     8    27    18    1
     9    27    21    1
    10    17    18    1
    11    17    12    1
    12    22    21    1
    13    22    23    1
    14    14    13    1
    15    18    19    1
    16    21    20    2
    17    13    11    1
    18    12    11    1
    19    11    10    1
    20    19    20    1
    21    10     9    1
    22     9     5    1
    23     7     5    2
    24     5     6    1
    25     5     8    1
    26     4     1    2
    27     8     1    1
    28     1     2    1
    29     1     3    1
