@<TRIPOS>MOLECULE
1gy8_NAD_A_1.pdb
 44 48 0 0 0
SMALL
GASTEIGER

@<TRIPOS>ATOM
      1  PA        78.8540   58.6340  129.2770 P.3   1382  NAD1382     0.2189
      2  O1A       78.2180   59.9780  129.2350 O.2   1382  NAD1382    -0.5170
      3  O2A       79.0380   58.0100  130.5930 O.3   1382  NAD1382    -0.4371
      4  N9A       82.2500   63.7390  126.7220 N.pl3 1382  NAD1382    -0.1439
      5  C8A       81.0870   64.1660  126.1320 C.3   1382  NAD1382     0.3377
      6  N7A       81.3480   65.1800  125.2620 N.2   1382  NAD1382    -0.2095
      7  C5A       82.6660   65.3570  125.3330 C.2   1382  NAD1382     0.2526
      8  C6A       83.4510   66.2660  124.6360 C.2   1382  NAD1382     0.4393
      9  N6A       82.9300   67.1090  123.7610 N.pl3 1382  NAD1382     0.2180
     10  N1A       84.8270   66.2800  124.8640 N.2   1382  NAD1382     0.0021
     11  C2A       85.3790   65.4230  125.7470 C.3   1382  NAD1382     0.5254
     12  N3A       84.6170   64.5420  126.4180 N.2   1382  NAD1382    -0.0055
     13  C4A       83.2470   64.4860  126.2290 C.2   1382  NAD1382     0.3518
     14  O3        78.0360   57.6300  128.3440 O.3   1382  NAD1382    -0.2703
     15  PN        78.2110   56.1060  127.9060 P.3   1382  NAD1382     0.2189
     16  O1N       76.9820   55.3780  128.2810 O.2   1382  NAD1382    -0.5170
     17  O2N       79.4770   55.6190  128.5070 O.3   1382  NAD1382    -0.4371
     18  N1N       76.3320   54.6330  123.2080 N.pl3 1382  NAD1382    -0.2787
     19  C2N       75.8450   54.4120  124.5420 C.3   1382  NAD1382     0.1244
     20  C3N       74.7800   53.5110  124.7250 C.2   1382  NAD1382     0.0544
     21  C7N       74.2040   53.2250  126.1350 C.2   1382  NAD1382     0.2818
     22  O7N       73.2780   52.4310  126.2500 O.2   1382  NAD1382    -0.2670
     23  N7N       74.7750   53.8780  127.1400 N.am  1382  NAD1382    -0.0839
     24  C4N       74.2100   52.8350  123.5880 C.2   1382  NAD1382     0.0033
     25  C5N       74.7010   53.0560  122.2480 C.2   1382  NAD1382     0.0157
     26  C6N       75.7670   53.9640  122.0810 C.2   1382  NAD1382     0.0633
     27  O5B       80.2680   58.6890  128.5120 O.3   1382  NAD1382    -0.3112
     28  C5B       80.5770   59.7650  127.6190 C.3   1382  NAD1382     0.1813
     29  C4B       81.8240   60.4640  128.1180 C.3   1382  NAD1382     0.1821
     30  O4B       82.1730   61.3970  127.1090 O.3   1382  NAD1382    -0.3135
     31  C3B       81.5160   61.2490  129.3980 C.3   1382  NAD1382     0.2184
     32  O3B       82.5620   60.9450  130.3370 O.3   1382  NAD1382    -0.2174
     33  C2B       81.5910   62.7120  128.9470 C.3   1382  NAD1382     0.2570
     34  O2B       82.1960   63.5060  129.9900 O.3   1382  NAD1382    -0.2130
     35  C1B       82.4580   62.6710  127.6910 C.3   1382  NAD1382     0.3186
     36  O5D       78.3370   56.1850  126.3180 O.3   1382  NAD1382    -0.3112
     37  C5D       79.6090   56.2800  125.6720 C.3   1382  NAD1382     0.1813
     38  C4D       79.4120   56.2630  124.1600 C.3   1382  NAD1382     0.1799
     39  O4D       78.6370   55.1210  123.7840 O.3   1382  NAD1382    -0.3327
     40  C3D       78.6590   57.4980  123.6260 C.3   1382  NAD1382     0.2158
     41  O3D       79.1860   57.8670  122.3290 O.3   1382  NAD1382    -0.2175
     42  C2D       77.2030   56.9810  123.4670 C.3   1382  NAD1382     0.2309
     43  O2D       76.4900   57.7490  122.4930 O.3   1382  NAD1382    -0.2158
     44  C1D       77.4630   55.5540  123.0210 C.3   1382  NAD1382     0.2263
@<TRIPOS>BOND
     1    26    25    2
     2    26    18    1
     3    25    24    1
     4    41    40    1
     5    43    42    1
     6    44    18    1
     7    44    42    1
     8    44    39    1
     9    18    19    1
    10    42    40    1
    11    24    20    2
    12    40    38    1
    13     9     8    1
    14    39    38    1
    15    38    37    1
    16    19    20    1
    17     8    10    2
    18     8     7    1
    19    20    21    1
    20    10    11    1
    21     6     7    2
    22     6     5    1
    23     7    13    1
    24    37    36    1
    25    11    12    1
    26     5     4    1
    27    21    22    2
    28    21    23   am
    29    13    12    2
    30    13     4    1
    31    36    15    1
    32     4    35    1
    33    30    35    1
    34    30    29    1
    35    28    29    1
    36    28    27    1
    37    35    33    1
    38    15    16    2
    39    15    14    1
    40    15    17    1
    41    29    31    1
    42    14     1    1
    43    27     1    1
    44    33    31    1
    45    33    34    1
    46     2     1    2
    47     1     3    1
    48    31    32    1
