@<TRIPOS>MOLECULE
1gy8_UDP_A_1.pdb
 25 26 0 0 0
SMALL
GASTEIGER

@<TRIPOS>ATOM
      1  N1        62.1060   53.9740  129.9000 N.am  1383  UDP1383    -0.1766
      2  C2        60.9590   53.9460  130.7250 C.1   1383  UDP1383     0.2845
      3  N3        60.9760   54.6340  131.9520 N.2   1383  UDP1383    -0.2452
      4  C4        62.1260   55.3450  132.3550 C.1   1383  UDP1383     0.2182
      5  C5        63.2630   55.3760  131.5400 C.2   1383  UDP1383     0.1242
      6  C6        63.2560   54.6930  130.3180 C.2   1383  UDP1383     0.0929
      7  O2        59.9560   53.3210  130.3810 O.2   1383  UDP1383    -0.1918
      8  O4        62.1290   55.9350  133.4340 O.2   1383  UDP1383    -0.2085
      9  C1'       62.1120   53.2230  128.6150 C.3   1383  UDP1383     0.2401
     10  C2'       62.4520   54.0340  127.3720 C.3   1383  UDP1383     0.2319
     11  O2'       61.3140   54.7980  126.9510 O.3   1383  UDP1383    -0.2157
     12  C3'       62.7870   52.9620  126.3740 C.3   1383  UDP1383     0.2158
     13  C4'       63.5040   51.8850  127.1990 C.3   1383  UDP1383     0.1799
     14  O4'       63.0600   52.1130  128.5910 O.3   1383  UDP1383    -0.3320
     15  O3'       61.5780   52.4400  125.8060 O.3   1383  UDP1383    -0.2175
     16  C5'       65.0270   52.1120  127.1900 C.3   1383  UDP1383     0.1813
     17  O5'       65.3290   53.4830  127.4340 O.3   1383  UDP1383    -0.3111
     18  PA        66.8420   53.9750  127.6960 P.3   1383  UDP1383     0.2231
     19  O1A       67.3780   53.3020  129.0510 O.3   1383  UDP1383    -0.4370
     20  O2A       66.8510   55.5780  127.8640 O.2   1383  UDP1383    -0.5169
     21  O3A       67.8280   53.5400  126.4980 O.3   1383  UDP1383    -0.2261
     22  PB        67.5010   53.7780  124.9320 P.3   1383  UDP1383     0.5373
     23  O1B       66.7020   55.1560  124.7130 O.3   1383  UDP1383    -0.1143
     24  O2B       66.6350   52.5510  124.3670 O.3   1383  UDP1383    -0.1143
     25  O3B       68.8870   53.8490  124.1380 O.2   1383  UDP1383    -0.2221
@<TRIPOS>BOND
     1    25    22    2
     2    24    22    1
     3    23    22    1
     4    22    21    1
     5    15    12    1
     6    12    13    1
     7    12    10    1
     8    21    18    1
     9    11    10    1
    10    16    13    1
    11    16    17    1
    12    13    14    1
    13    10     9    1
    14    17    18    1
    15    18    20    2
    16    18    19    1
    17    14     9    1
    18     9     1    1
    19     1     6    1
    20     1     2   am
    21     6     5    2
    22     7     2    2
    23     2     3    2
    24     5     4    1
    25     3     4    2
    26     4     8    2
