@<TRIPOS>MOLECULE
1gy9_AKG_A_1.pdb
 10 9 0 0 0
SMALL
GASTEIGER

@<TRIPOS>ATOM
      1  C1        23.2540   34.6170   44.1990 C.2   351  AKG351      0.4219
      2  O1        24.0680   33.9510   44.7570 O.co2 351  AKG351     -0.2373
      3  O2        22.6800   34.1910   43.0570 O.co2 351  AKG351     -0.2373
      4  C2        22.8210   35.9120   44.7410 C.2   351  AKG351      0.2526
      5  O5        23.2890   36.3480   45.7630 O.2   351  AKG351     -0.2843
      6  C3        21.8040   36.5780   43.8860 C.3   351  AKG351      0.0881
      7  C4        22.5580   37.3390   42.8130 C.3   351  AKG351      0.1224
      8  C5        21.6080   38.1660   42.0350 C.2   351  AKG351      0.3653
      9  O3        20.4030   37.9400   42.0840 O.co2 351  AKG351     -0.2456
     10  O4        22.1280   39.1430   41.3170 O.co2 351  AKG351     -0.2456
@<TRIPOS>BOND
     1    10     8   ar
     2     8     9   ar
     3     8     7    1
     4     7     6    1
     5     3     1   ar
     6     6     4    1
     7     1     4    1
     8     1     2   ar
     9     4     5    2
