@<TRIPOS>MOLECULE
1gya_NAG_A_1.pdb
 27 27 0 0 0
SMALL
GASTEIGER

@<TRIPOS>ATOM
      1  C1        -2.1100    1.6340    8.4950 C.3   106  NAG106      0.1078
      2  C2        -0.6930    1.0160    8.6590 C.3   106  NAG106      0.0802
      3  C3        -0.7770   -0.5420    8.6580 C.3   106  NAG106      0.1076
      4  C4        -1.8130   -1.0780    9.6970 C.3   106  NAG106      0.1493
      5  C5        -3.1930   -0.4000    9.4290 C.3   106  NAG106      0.1137
      6  C6        -4.2890   -0.7550   10.4510 C.3   106  NAG106      0.0730
      7  C7         1.3230    2.1950    7.7960 C.2   106  NAG106      0.2103
      8  C8         2.1750    2.4850    6.5610 C.3   106  NAG106      0.0122
      9  N2         0.2160    1.4710    7.5740 N.am  106  NAG106     -0.3075
     10  O3         0.5170   -1.0670    8.9450 O.3   106  NAG106     -0.3871
     11  O4        -1.9600   -2.5340    9.6310 O.3   106  NAG106     -0.2256
     12  O5        -3.0340    1.0470    9.4530 O.3   106  NAG106     -0.3638
     13  O6        -5.0110    0.4070   10.8400 O.3   106  NAG106     -0.3924
     14  O7         1.6740    2.6020    8.9060 O.2   106  NAG106     -0.2761
     15  H1        -2.4600    1.4460    7.4800 H     106  NAG106      0.0642
     16  H2        -0.3210    1.3120    9.6620 H     106  NAG106      0.0551
     17  H3        -1.0780   -0.9020    7.6540 H     106  NAG106      0.0641
     18  H4        -1.4830   -0.7850   10.7160 H     106  NAG106      0.0682
     19  H5        -3.5590   -0.7030    8.4270 H     106  NAG106      0.0647
     20  H61       -3.8340   -1.2000   11.3550 H     106  NAG106      0.0584
     21  H62       -4.9850   -1.5150   10.0490 H     106  NAG106      0.0584
     22  H81        3.0540    1.8140    6.5170 H     106  NAG106      0.0322
     23  H82        1.6020    2.3540    5.6240 H     106  NAG106      0.0322
     24  H83        2.5570    3.5230    6.5700 H     106  NAG106      0.0322
     25  HN2       -0.0160    1.2160    6.6020 H     106  NAG106      0.1491
     26  HO3        0.9400   -1.2040    8.0940 H     106  NAG106      0.2100
     27  HO6       -5.6680    0.1110   11.4740 H     106  NAG106      0.2095
@<TRIPOS>BOND
     1    23     8    1
     2    22     8    1
     3     8    24    1
     4     8     7    1
     5    25     9    1
     6    15     1    1
     7     9     7   am
     8     9     2    1
     9    17     3    1
    10     7    14    2
    11    26    10    1
    12    19     5    1
    13     1     2    1
    14     1    12    1
    15     3     2    1
    16     3    10    1
    17     3     4    1
    18     2    16    1
    19     5    12    1
    20     5     4    1
    21     5     6    1
    22    11     4    1
    23     4    18    1
    24    21     6    1
    25     6    13    1
    26     6    20    1
    27    13    27    1
