@<TRIPOS>MOLECULE
1gyb_III_E_1.pdb
 36 37 0 0 0
SMALL
GASTEIGER

@<TRIPOS>ATOM
      1  N         24.2030  -13.3090   19.6410 N.3    42  GLY42      -0.1210
      2  CA        24.1930  -13.0000   18.2390 C.3    42  GLY42       0.1956
      3  C         23.6820  -11.6230   17.8960 C.2    42  GLY42       0.2612
      4  O         22.7230  -11.4340   17.1350 O.2    42  GLY42      -0.2717
      5  N         24.3890  -10.6870   18.5020 N.am   43  PHE43      -0.1962
      6  CA        24.2090   -9.2680   18.3990 C.3    43  PHE43       0.1771
      7  C         25.6000   -8.8510   18.8220 C.2    43  PHE43       0.2620
      8  O         25.9840   -9.0060   19.9780 O.2    43  PHE43      -0.2715
      9  CB        23.2070   -8.7510   19.4270 C.3    43  PHE43       0.0574
     10  CG        21.7540   -8.7800   18.9900 C.ar   43  PHE43      -0.0200
     11  CD1       20.7710   -8.7280   19.9660 C.ar   43  PHE43      -0.0042
     12  CD2       21.3600   -8.8210   17.6460 C.ar   43  PHE43      -0.0042
     13  CE1       19.4110   -8.7180   19.6450 C.ar   43  PHE43      -0.0003
     14  CE2       19.9790   -8.8080   17.3050 C.ar   43  PHE43      -0.0003
     15  CZ        19.0090   -8.7590   18.3150 C.ar   43  PHE43      -0.0000
     16  N         26.3860   -8.3600   17.8890 N.am   44  SER44      -0.1936
     17  CA        27.7250   -7.9590   18.2660 C.3    44  SER44       0.2055
     18  C         28.1090   -6.6120   17.6960 C.2    44  SER44       0.2643
     19  O         27.4530   -6.0800   16.7990 O.2    44  SER44      -0.2714
     20  CB        28.7350   -9.0160   17.8230 C.3    44  SER44       0.2130
     21  OG        28.6640   -9.2060   16.4250 O.3    44  SER44      -0.2179
     22  N         29.1700   -6.0490   18.2540 N.am   45  PHE45      -0.1959
     23  CA        29.6750   -4.7650   17.7970 C.3    45  PHE45       0.1771
     24  C         31.1890   -4.8620   17.6740 C.2    45  PHE45       0.2620
     25  O         31.8150   -5.7250   18.2920 O.2    45  PHE45      -0.2715
     26  CB        29.2930   -3.6530   18.7800 C.3    45  PHE45       0.0574
     27  CG        27.8770   -3.7500   19.2870 C.ar   45  PHE45      -0.0200
     28  CD1       27.5790   -4.5260   20.4050 C.ar   45  PHE45      -0.0042
     29  CD2       26.8360   -3.0920   18.6330 C.ar   45  PHE45      -0.0042
     30  CE1       26.2660   -4.6460   20.8670 C.ar   45  PHE45      -0.0003
     31  CE2       25.5190   -3.2060   19.0870 C.ar   45  PHE45      -0.0003
     32  CZ        25.2360   -3.9830   20.2060 C.ar   45  PHE45      -0.0000
     33  N         31.7840   -3.9840   16.8770 N.am   46  GLY46      -0.1954
     34  CA        33.2240   -4.0360   16.7160 C.3    46  GLY46       0.1869
     35  C         33.8980   -2.7310   17.0750 C.2    46  GLY46       0.2309
     36  O         33.7410   -1.7700   16.2980 O.2    46  GLY46      -0.2863
@<TRIPOS>BOND
     1    36    35    2
     2    21    20    1
     3    34    33    1
     4    34    35    1
     5    19    18    2
     6    33    24   am
     7     4     3    2
     8    14    12   ar
     9    14    15   ar
    10    12    10   ar
    11    24    23    1
    12    24    25    2
    13    18    22   am
    14    18    17    1
    15    23    22    1
    16    23    26    1
    17    20    17    1
    18    16    17    1
    19    16     7   am
    20     3     2    1
    21     3     5   am
    22     2     1    1
    23    15    13   ar
    24     6     5    1
    25     6     7    1
    26     6     9    1
    27    29    31   ar
    28    29    27   ar
    29    26    27    1
    30     7     8    2
    31    10     9    1
    32    10    11   ar
    33    31    32   ar
    34    27    28   ar
    35    13    11   ar
    36    32    30   ar
    37    28    30   ar
