@<TRIPOS>MOLECULE
1gye_AHR_B_6.pdb
 10 10 0 0 0
SMALL
GASTEIGER

@<TRIPOS>ATOM
      1  O5'       56.6280   22.7150   55.0000 O.3   806  AHR806     -0.2176
      2  C5'       56.1430   23.8590   54.2570 C.3   806  AHR806      0.2142
      3  C4'       55.4440   23.3600   52.9970 C.3   806  AHR806      0.1837
      4  O4'       56.2170   22.3890   52.2640 O.3   806  AHR806     -0.3236
      5  C3'       55.1530   24.4540   52.0180 C.3   806  AHR806      0.2169
      6  O3'       53.8210   24.8180   52.3090 O.3   806  AHR806     -0.2175
      7  C2'       55.1440   23.6780   50.7250 C.3   806  AHR806      0.2433
      8  O2'       55.3580   24.5220   49.6160 O.3   806  AHR806     -0.2148
      9  C1'       56.2230   22.6460   50.8720 C.3   806  AHR806      0.3024
     10  O1'       55.8510   21.4630   50.1670 O.3   806  AHR806     -0.1869
@<TRIPOS>BOND
     1     8     7    1
     2    10     9    1
     3     7     9    1
     4     7     5    1
     5     9     4    1
     6     5     6    1
     7     5     3    1
     8     4     3    1
     9     3     2    1
    10     2     1    1
