@<TRIPOS>MOLECULE
1gyk_CDG_A_1.pdb
 18 19 0 0 0
SMALL
GASTEIGER

@<TRIPOS>ATOM
      1  C1        89.9500   32.6860    4.9050 C.3   1207  CDG1207     0.2695
      2  C2        90.7450   32.6840    6.2600 C.3   1207  CDG1207     0.2404
      3  C3        92.2880   32.7700    5.9880 C.3   1207  CDG1207     0.2167
      4  C4        92.7370   31.6730    4.9820 C.3   1207  CDG1207     0.1806
      5  C5        91.9310   31.8060    3.6650 C.3   1207  CDG1207     0.1771
      6  C6        92.3590   30.6510    2.7230 C.3   1207  CDG1207     0.1772
      7  C7        92.7130   29.1280    4.7350 C.3   1207  CDG1207     0.2839
      8  C8        94.2860   28.9910    4.6090 C.2   1207  CDG1207     0.4151
      9  C9        92.3600   27.7950    5.3420 C.3   1207  CDG1207     0.0737
     10  O1        88.5310   32.4280    5.1290 O.3   1207  CDG1207    -0.3259
     11  O2        90.3220   33.7830    7.0690 O.3   1207  CDG1207    -0.2149
     12  O3        93.0280   32.6120    7.2010 O.3   1207  CDG1207    -0.2175
     13  O4        92.4950   30.3400    5.5770 O.3   1207  CDG1207    -0.3232
     14  O5        90.5010   31.6990    3.9570 O.3   1207  CDG1207    -0.3259
     15  O6        92.1900   29.3430    3.3570 O.3   1207  CDG1207    -0.3233
     16  O8A       95.0240   29.5060    5.4940 O.co2 1207  CDG1207    -0.2402
     17  O8B       94.7760   28.4160    3.6090 O.co2 1207  CDG1207    -0.2402
     18  C10       88.1190   31.0400    5.2460 C.3   1207  CDG1207     0.1769
@<TRIPOS>BOND
     1     6    15    1
     2     6     5    1
     3    15     7    1
     4    17     8   ar
     5     5    14    1
     6     5     4    1
     7    14     1    1
     8     8     7    1
     9     8    16   ar
    10     7     9    1
    11     7    13    1
    12     1    10    1
    13     1     2    1
    14     4    13    1
    15     4     3    1
    16    10    18    1
    17     3     2    1
    18     3    12    1
    19     2    11    1
