@<TRIPOS>MOLECULE
1gyl_FMN_A_1.pdb
 31 33 0 0 0
SMALL
GASTEIGER

@<TRIPOS>ATOM
      1  N1        22.9320   21.3090   23.2240 N.2   370  FMN370     -0.2890
      2  C2        24.1460   21.4200   23.9760 C.1   370  FMN370      0.3669
      3  O2        24.1870   21.3770   25.2070 O.2   370  FMN370     -0.1744
      4  N3        25.2940   21.5140   23.1940 N.2   370  FMN370     -0.2300
      5  C4        25.2590   21.4900   21.7730 C.1   370  FMN370      0.2513
      6  O4        26.2220   21.9160   21.1310 O.2   370  FMN370     -0.2057
      7  C4A       24.0460   21.0910   21.1480 C.2   370  FMN370      0.2700
      8  N5        24.0780   20.6420   19.8260 N.2   370  FMN370     -0.3878
      9  C5A       22.9410   20.2720   19.1640 C.2   370  FMN370      0.1320
     10  C6        22.9290   20.2520   17.8010 C.2   370  FMN370      0.0250
     11  C7        21.6720   20.0790   17.1410 C.2   370  FMN370     -0.0238
     12  C7M       21.5470   20.1440   15.6470 C.3   370  FMN370      0.0308
     13  C8        20.4800   19.9080   17.8480 C.2   370  FMN370     -0.0280
     14  C8M       19.1280   19.9020   17.1320 C.3   370  FMN370      0.0304
     15  C9        20.5150   19.9390   19.2090 C.2   370  FMN370     -0.0041
     16  C9A       21.7110   20.1360   19.8730 C.3   370  FMN370      0.1497
     17  N10       21.6160   20.5780   21.2170 N.pl3 370  FMN370     -0.2691
     18  C10       22.8440   20.9900   21.8410 C.2   370  FMN370      0.2416
     19  C1'       20.4450   20.3370   21.9150 C.3   370  FMN370      0.1294
     20  C2'       19.8300   21.5510   22.4980 C.3   370  FMN370      0.2044
     21  O2'       20.6010   22.6280   23.0110 O.3   370  FMN370     -0.2185
     22  C3'       18.4760   21.3210   23.1120 C.3   370  FMN370      0.2164
     23  O3'       18.5990   20.5550   24.3370 O.3   370  FMN370     -0.2175
     24  C4'       17.4500   20.4500   22.1910 C.3   370  FMN370      0.2147
     25  O4'       17.6400   20.6040   20.7290 O.3   370  FMN370     -0.2176
     26  C5'       15.8850   20.6880   22.7550 C.3   370  FMN370      0.1892
     27  O5'       15.2110   19.5570   22.2700 O.3   370  FMN370     -0.2674
     28  P         13.9300   19.7990   21.1670 P.3   370  FMN370      0.5327
     29  O1P       12.9890   18.5980   21.2120 O.3   370  FMN370     -0.1145
     30  O2P       14.7130   19.8450   19.8890 O.2   370  FMN370     -0.2224
     31  O3P       13.3260   21.1290   21.6130 O.3   370  FMN370     -0.1145
@<TRIPOS>BOND
     1    12    11    1
     2    14    13    1
     3    11    10    2
     4    11    13    1
     5    10     9    1
     6    13    15    2
     7     9     8    2
     8     9    16    1
     9    15    16    1
    10     8     7    2
    11    16    17    1
    12    30    28    2
    13    25    24    1
    14     6     5    2
    15     7     5    1
    16     7    18    1
    17    28    29    1
    18    28    31    1
    19    28    27    1
    20    17    18    1
    21    17    19    1
    22     5     4    2
    23    18     1    2
    24    19    20    1
    25    24    26    1
    26    24    22    1
    27    27    26    1
    28    20    21    1
    29    20    22    1
    30    22    23    1
    31     4     2    2
    32     1     2    2
    33     2     3    2
