@<TRIPOS>MOLECULE
1gym_MYG_A_1.pdb
 23 24 0 0 0
SMALL
GASTEIGER

@<TRIPOS>ATOM
      1  C1        20.4290   26.7150  102.5950 C.3   702  MYG702      0.2143
      2  C2        20.1660   28.2550  102.7730 C.3   702  MYG702      0.2174
      3  C3        21.5110   28.9830  103.0620 C.3   702  MYG702      0.2175
      4  C4        22.5160   28.6770  101.9330 C.3   702  MYG702      0.2174
      5  C5        22.8180   27.1660  101.9440 C.3   702  MYG702      0.2143
      6  C6        21.5410   26.3840  101.5720 C.3   702  MYG702      0.1834
      7  C7        22.0200   24.3300  100.4230 C.3   702  MYG702      0.2561
      8  C8        21.0080   23.1530  100.3160 C.3   702  MYG702      0.1807
      9  C9        21.4950   21.9460  101.1790 C.3   702  MYG702      0.2070
     10  C10       22.8820   21.5390  100.6840 C.3   702  MYG702      0.2133
     11  C11       23.8470   22.7000  100.9730 C.3   702  MYG702      0.1834
     12  C12       25.2970   22.4020  100.4690 C.3   702  MYG702      0.2142
     13  N8        19.6650   23.6200  100.7570 N.3   702  MYG702     -0.1248
     14  O1        19.2480   26.0810  102.2030 O.3   702  MYG702     -0.2176
     15  O2        19.5620   28.7880  101.6150 O.3   702  MYG702     -0.2175
     16  O3        21.3050   30.4000  103.2310 O.3   702  MYG702     -0.2175
     17  O4        23.7330   29.3690  102.1830 O.3   702  MYG702     -0.2175
     18  O5        23.8800   26.8750  101.0440 O.3   702  MYG702     -0.2176
     19  O6        21.8140   24.9840  101.6680 O.3   702  MYG702     -0.3264
     20  O9        20.6040   20.8210  101.0780 O.3   702  MYG702     -0.2186
     21  O10       23.3210   20.3570  101.3410 O.3   702  MYG702     -0.2176
     22  O11       23.3960   23.8700  100.2470 O.3   702  MYG702     -0.3264
     23  O12       26.1150   21.6710  101.5470 O.3   702  MYG702     -0.2176
@<TRIPOS>BOND
     1    22     7    1
     2    22    11    1
     3     8     7    1
     4     8    13    1
     5     8     9    1
     6     7    19    1
     7    12    11    1
     8    12    23    1
     9    10    11    1
    10    10     9    1
    11    10    21    1
    12    18     5    1
    13    20     9    1
    14     6    19    1
    15     6     5    1
    16     6     1    1
    17    15     2    1
    18     4     5    1
    19     4    17    1
    20     4     3    1
    21    14     1    1
    22     1     2    1
    23     2     3    1
    24     3    16    1
