@<TRIPOS>MOLECULE
1gyo_HEC_A_1.pdb
 43 50 0 0 0
SMALL
GASTEIGER

@<TRIPOS>ATOM
      1 FE         11.2110    1.4680    9.7230 Fe    111  HEC111      0.0000
      2  CHA        8.6180   -0.6320   10.3760 C.2   111  HEC111      0.0000
      3  CHB       12.8790   -1.0680    8.2100 C.2   111  HEC111      0.0000
      4  CHC       13.5370    3.6520    8.6570 C.2   111  HEC111      0.0000
      5  CHD        9.8280    3.8140   11.6640 C.2   111  HEC111      0.0000
      6  NA        10.8070   -0.4520    9.3350 N.ar  111  HEC111      0.0000
      7  C1A        9.6700   -1.1620    9.6590 C.ar  111  HEC111      0.0000
      8  C2A        9.7620   -2.5330    9.2090 C.ar  111  HEC111      0.0000
      9  C3A       10.9830   -2.6590    8.6240 C.ar  111  HEC111      0.0000
     10  C4A       11.6270   -1.3710    8.7010 C.ar  111  HEC111      0.0000
     11  CMA       11.5990   -3.8820    7.9970 C.3   111  HEC111      0.0000
     12  CAA        8.7030   -3.5650    9.3510 C.3   111  HEC111      0.0000
     13  CBA        8.6190   -4.2500   10.6920 C.3   111  HEC111      0.0000
     14  CGA        7.3910   -5.1380   10.8530 C.2   111  HEC111      0.0000
     15  O1A        6.3100   -4.7830   10.3360 O.co2 111  HEC111      0.0000
     16  O2A        7.4870   -6.1820   11.4840 O.co2 111  HEC111      0.0000
     17  NB        12.9000    1.3200    8.6680 N.2   111  HEC111      0.0000
     18  C1B       13.4740    0.1780    8.1480 C.2   111  HEC111      0.0000
     19  C2B       14.7320    0.4850    7.5020 C.2   111  HEC111      0.0000
     20  C3B       14.9120    1.8380    7.5910 C.2   111  HEC111      0.0000
     21  C4B       13.7670    2.3410    8.3210 C.2   111  HEC111      0.0000
     22  CMB       15.6320   -0.5290    6.8640 C.3   111  HEC111      0.0000
     23  CAB       16.0240    2.6820    7.0470 C.3   111  HEC111      0.0000
     24  CBB       16.2150    2.6230    5.5380 C.3   111  HEC111      0.0000
     25  NC        11.5730    3.3770   10.0500 N.ar  111  HEC111      0.0000
     26  C1C       12.5740    4.1490    9.4980 C.ar  111  HEC111      0.0000
     27  C2C       12.4960    5.5170    9.9690 C.ar  111  HEC111      0.0000
     28  C3C       11.4640    5.5480   10.8400 C.ar  111  HEC111      0.0000
     29  C4C       10.9140    4.2240   10.9120 C.ar  111  HEC111      0.0000
     30  CMC       13.4650    6.5890    9.5650 C.3   111  HEC111      0.0000
     31  CAC       10.9880    6.7010   11.6960 C.3   111  HEC111      0.0000
     32  CBC       10.6640    7.9590   10.8760 C.3   111  HEC111      0.0000
     33  ND         9.5410    1.5670   10.7810 N.2   111  HEC111      0.0000
     34  C1D        9.1590    2.6260   11.6060 C.2   111  HEC111      0.0000
     35  C2D        7.9520    2.2950   12.3140 C.2   111  HEC111      0.0000
     36  C3D        7.5380    1.0880   11.8490 C.2   111  HEC111      0.0000
     37  C4D        8.5580    0.6160   10.9570 C.2   111  HEC111      0.0000
     38  CMD        7.2710    3.1790   13.3470 C.3   111  HEC111      0.0000
     39  CAD        6.2750    0.3680   12.2470 C.3   111  HEC111      0.0000
     40  CBD        6.5120   -0.4850   13.4850 C.3   111  HEC111      0.0000
     41  CGD        5.3400   -0.7240   14.3750 C.2   111  HEC111      0.0000
     42  O1D        5.5880   -0.9680   15.5850 O.co2 111  HEC111      0.0000
     43  O2D        4.1840   -0.6810   13.9540 O.co2 111  HEC111      0.0000
@<TRIPOS>BOND
     1    24    23    1
     2    22    19    1
     3    23    20    1
     4    19    20    2
     5    19    18    1
     6    20    21    1
     7    11     9    1
     8    18     3    1
     9    18    17    2
    10     3    10    2
    11    21     4    2
    12    21    17    1
    13     9    10   ar
    14     9     8   ar
    15     4    26    1
    16    17     1    1
    17    10     6   ar
    18     8    12    1
    19     8     7   ar
    20     6     7   ar
    21     6     1    1
    22    12    13    1
    23    26    27   ar
    24    26    25   ar
    25    30    27    1
    26     7     2    2
    27     1    25    1
    28     1    33    1
    29    27    28   ar
    30    25    29   ar
    31    15    14   ar
    32     2    37    1
    33    13    14    1
    34    33    37    2
    35    33    34    1
    36    28    29   ar
    37    28    31    1
    38    14    16   ar
    39    32    31    1
    40    29     5    1
    41    37    36    1
    42    34     5    2
    43    34    35    1
    44    36    39    1
    45    36    35    2
    46    39    40    1
    47    35    38    1
    48    40    41    1
    49    43    41   ar
    50    41    42   ar
