@<TRIPOS>MOLECULE
1gyp_NAD_A_1.pdb
 44 48 0 0 0
SMALL
GASTEIGER

@<TRIPOS>ATOM
      1  PA        59.7970   67.9260   77.3520 P.3   361  NAD361      0.2189
      2  O1A       59.9220   66.6060   76.6450 O.2   361  NAD361     -0.5170
      3  O2A       58.5210   68.2180   78.0990 O.3   361  NAD361     -0.4371
      4  O5B       60.0360   69.1370   76.3170 O.3   361  NAD361     -0.3112
      5  C5B       60.6900   68.9480   75.0520 C.3   361  NAD361      0.1813
      6  C4B       59.7910   69.5540   73.9880 C.3   361  NAD361      0.1821
      7  O4B       60.5050   69.6680   72.7500 O.3   361  NAD361     -0.3135
      8  C3B       58.5650   68.6920   73.7350 C.3   361  NAD361      0.2184
      9  O3B       57.3800   69.4830   73.8040 O.3   361  NAD361     -0.2174
     10  C2B       58.8110   68.0920   72.3540 C.3   361  NAD361      0.2570
     11  O2B       57.6240   67.8500   71.5990 O.3   361  NAD361     -0.2130
     12  C1B       59.6260   69.1810   71.7220 C.3   361  NAD361      0.3186
     13  N9A       60.4670   68.7620   70.6060 N.pl3 361  NAD361     -0.1439
     14  C8A       61.0340   67.5630   70.3890 C.3   361  NAD361      0.3377
     15  N7A       61.7740   67.6040   69.2800 N.2   361  NAD361     -0.2095
     16  C5A       61.6380   68.8480   68.8310 C.2   361  NAD361      0.2526
     17  C6A       62.2360   69.3880   67.6980 C.2   361  NAD361      0.4393
     18  N6A       63.0550   68.6880   66.9070 N.pl3 361  NAD361      0.2180
     19  N1A       61.9480   70.6900   67.4350 N.2   361  NAD361      0.0021
     20  C2A       61.1370   71.4030   68.2210 C.3   361  NAD361      0.5254
     21  N3A       60.5780   70.8860   69.3160 N.2   361  NAD361     -0.0055
     22  C4A       60.8210   69.6010   69.6420 C.2   361  NAD361      0.3518
     23  O3        61.1190   68.1000   78.2270 O.3   361  NAD361     -0.2703
     24  PN        61.6420   69.1930   79.2640 P.3   361  NAD361      0.2189
     25  O1N       61.5670   68.5640   80.6300 O.3   361  NAD361     -0.4371
     26  O2N       60.9310   70.4730   78.9470 O.2   361  NAD361     -0.5170
     27  O5D       63.1940   69.3500   78.9120 O.3   361  NAD361     -0.3112
     28  C5D       63.6480   70.1180   77.7960 C.3   361  NAD361      0.1813
     29  C4D       65.1100   70.4790   78.0120 C.3   361  NAD361      0.1799
     30  O4D       65.1800   71.3110   79.1820 O.3   361  NAD361     -0.3327
     31  C3D       66.0120   69.2820   78.2770 C.3   361  NAD361      0.2158
     32  O3D       67.3070   69.5120   77.7200 O.3   361  NAD361     -0.2175
     33  C2D       66.0840   69.1970   79.7930 C.3   361  NAD361      0.2309
     34  O2D       67.3520   68.6890   80.2190 O.3   361  NAD361     -0.2158
     35  C1D       65.9380   70.6450   80.2130 C.3   361  NAD361      0.2263
     36  N1N       65.4260   70.8590   81.5940 N.pl3 361  NAD361     -0.2787
     37  C2N       64.3190   70.1660   82.1400 C.3   361  NAD361      0.1244
     38  C3N       64.0000   70.3440   83.4920 C.2   361  NAD361      0.0544
     39  C7N       62.8490   69.6250   84.1990 C.2   361  NAD361      0.2818
     40  O7N       62.9190   69.4550   85.4150 O.2   361  NAD361     -0.2670
     41  N7N       61.8160   69.2110   83.4670 N.am  361  NAD361     -0.0839
     42  C4N       64.7630   71.2160   84.2670 C.2   361  NAD361      0.0033
     43  C5N       65.8480   71.9060   83.7350 C.2   361  NAD361      0.0157
     44  C6N       66.1790   71.7280   82.3970 C.2   361  NAD361      0.0633
@<TRIPOS>BOND
     1    18    17    1
     2    19    17    2
     3    19    20    1
     4    17    16    1
     5    20    21    1
     6    16    15    2
     7    16    22    1
     8    15    14    1
     9    21    22    2
    10    22    13    1
    11    14    13    1
    12    13    12    1
    13    11    10    1
    14    12    10    1
    15    12     7    1
    16    10     8    1
    17     7     6    1
    18     8     9    1
    19     8     6    1
    20     6     5    1
    21     5     4    1
    22     4     1    1
    23     2     1    2
    24     1     3    1
    25     1    23    1
    26    32    31    1
    27    28    29    1
    28    28    27    1
    29    29    31    1
    30    29    30    1
    31    23    24    1
    32    31    33    1
    33    27    24    1
    34    26    24    2
    35    30    35    1
    36    24    25    1
    37    33    35    1
    38    33    34    1
    39    35    36    1
    40    36    37    1
    41    36    44    1
    42    37    38    1
    43    44    43    2
    44    41    39   am
    45    38    39    1
    46    38    42    2
    47    43    42    1
    48    39    40    2
