@<TRIPOS>MOLECULE
1gyx_EPE_B_1.pdb
 15 15 0 0 0
SMALL
GASTEIGER

@<TRIPOS>ATOM
      1  N1        10.5810    2.2600   -4.9250 N.3   1077  EPE1077    -0.2689
      2  C2        10.9380    3.1930   -5.9880 C.3   1077  EPE1077     0.0897
      3  C3         9.6840    3.2600   -6.8740 C.3   1077  EPE1077     0.0897
      4  N4         9.4270    1.9140   -7.3980 N.3   1077  EPE1077    -0.2681
      5  C5         9.1390    0.9580   -6.3550 C.3   1077  EPE1077     0.0897
      6  C6        10.4230    0.9100   -5.4810 C.3   1077  EPE1077     0.0897
      7  C7         8.5650    2.1800   -8.4960 C.3   1077  EPE1077     0.1081
      8  C8         7.1220    1.8050   -8.2670 C.3   1077  EPE1077     0.1993
      9  O8         6.8640    0.8100   -9.2760 O.3   1077  EPE1077    -0.2189
     10  C9        11.5710    2.2560   -3.8730 C.3   1077  EPE1077     0.0939
     11  C10       12.9190    1.6510   -4.3240 C.3   1077  EPE1077     0.1225
     12  S         14.2060    2.2160   -3.1830 S.3   1077  EPE1077    -0.1946
     13  O1S       15.5610    1.7410   -3.5340 O.3   1077  EPE1077    -0.3074
     14  O2S       14.3070    3.6480   -3.3310 O.3   1077  EPE1077    -0.3074
     15  O3S       13.9490    1.7410   -1.8650 O.3   1077  EPE1077    -0.3074
@<TRIPOS>BOND
     1     9     8    1
     2     7     8    1
     3     7     4    1
     4     4     3    1
     5     4     5    1
     6     3     2    1
     7     5     6    1
     8     2     1    1
     9     6     1    1
    10     1    10    1
    11    11    10    1
    12    11    12    1
    13    13    12    1
    14    14    12    1
    15    12    15    1
