@<TRIPOS>MOLECULE
1gyy_FHC_A_1.pdb
 13 13 0 0 0
SMALL
GASTEIGER

@<TRIPOS>ATOM
      1  C1        12.1640    2.4570   -4.4480 C.ar  500  FHC500      0.0027
      2  C7        12.4360    1.4470   -3.4280 C.2   500  FHC500      0.0365
      3  C8        13.4880    1.3100   -2.6160 C.2   500  FHC500      0.2193
      4  C9        14.6510    2.1900   -2.5690 C.2   500  FHC500      0.4148
      5  O3        15.7850    1.7830   -2.4520 O.co2 500  FHC500     -0.2380
      6  O2        14.3920    3.5010   -2.7030 O.co2 500  FHC500     -0.2380
      7  F1        13.5340    0.2590   -1.7540 F     500  FHC500     -0.1972
      8  C6        13.1750    2.9500   -5.2850 C.ar  500  FHC500      0.0034
      9  C5        12.9230    3.8910   -6.2590 C.ar  500  FHC500      0.0420
     10  C4        11.6220    4.3610   -6.4280 C.ar  500  FHC500      0.1957
     11  O1        11.3540    5.3150   -7.3740 O.3   500  FHC500     -0.2866
     12  C3        10.6230    3.8720   -5.6120 C.ar  500  FHC500      0.0420
     13  C2        10.8590    2.9250   -4.6370 C.ar  500  FHC500      0.0034
@<TRIPOS>BOND
     1    11    10    1
     2    10     9   ar
     3    10    12   ar
     4     9     8   ar
     5    12    13   ar
     6     8     1   ar
     7    13     1   ar
     8     1     2    1
     9     2     3    2
    10     6     4   ar
    11     3     4    1
    12     3     7    1
    13     4     5   ar
