@<TRIPOS>MOLECULE
1gz1_BGC_A_1.pdb
 11 11 0 0 0
SMALL
GASTEIGER

@<TRIPOS>ATOM
      1  C2        10.7250   -8.0790   12.4610 C.3   503  BGC503      0.2141
      2  C3         9.2810   -8.4670   12.7920 C.3   503  BGC503      0.2173
      3  C4         8.2800   -7.7780   11.8690 C.3   503  BGC503      0.2142
      4  C5         8.7850   -7.7450   10.4180 C.3   503  BGC503      0.1810
      5  C6         9.1620   -6.3640    9.9020 C.3   503  BGC503      0.2141
      6  C1        11.0190   -8.4900   11.0290 C.3   503  BGC503      0.1777
      7  O2        11.5930   -8.6840   13.4190 O.3   503  BGC503     -0.2176
      8  O3         9.0150   -8.0570   14.1010 O.3   503  BGC503     -0.2175
      9  O4         7.1490   -8.6340   11.9550 O.3   503  BGC503     -0.2176
     10  O5         9.8170   -8.6920   10.2870 O.3   503  BGC503     -0.3481
     11  O6         9.8150   -5.6490   10.9070 O.3   503  BGC503     -0.2176
@<TRIPOS>BOND
     1     5     4    1
     2     5    11    1
     3    10     4    1
     4    10     6    1
     5     4     3    1
     6     6     1    1
     7     3     9    1
     8     3     2    1
     9     1     2    1
    10     1     7    1
    11     2     8    1
