@<TRIPOS>MOLECULE
1gz1_MGL_A_1.pdb
 13 13 0 0 0
SMALL
GASTEIGER

@<TRIPOS>ATOM
      1  C1        21.6740   -7.9510    9.1460 C.3   501  MGL501      0.2695
      2  C2        20.8140   -7.1430   10.1020 C.3   501  MGL501      0.2406
      3  C3        19.5270   -7.8850   10.3980 C.3   501  MGL501      0.2198
      4  C4        18.8680   -8.3300    9.0980 C.3   501  MGL501      0.2144
      5  C5        19.8600   -9.0910    8.2280 C.3   501  MGL501      0.1835
      6  C6        19.2170   -9.5200    6.9370 C.3   501  MGL501      0.2142
      7  C7        23.5110   -7.6520    7.6710 C.3   501  MGL501      0.1769
      8  O1        22.8320   -7.1840    8.8330 O.3   501  MGL501     -0.3259
      9  O2        21.5290   -6.9640   11.3120 O.3   501  MGL501     -0.2149
     10  O3        18.6760   -7.0590   11.1850 O.3   501  MGL501     -0.2174
     11  O4        17.7640   -9.1920    9.3780 O.3   501  MGL501     -0.2176
     12  O5        20.9490   -8.2240    7.9660 O.3   501  MGL501     -0.3256
     13  O6        20.1000  -10.3040    6.1340 O.3   501  MGL501     -0.2176
@<TRIPOS>BOND
     1    13     6    1
     2     6     5    1
     3     7     8    1
     4    12     5    1
     5    12     1    1
     6     5     4    1
     7     8     1    1
     8     4    11    1
     9     4     3    1
    10     1     2    1
    11     2     3    1
    12     2     9    1
    13     3    10    1
