@<TRIPOS>MOLECULE
1gz1_NAG_A_1.pdb
 14 14 0 0 0
SMALL
GASTEIGER

@<TRIPOS>ATOM
      1  C1        -8.0380   -6.1210   -0.5000 C.3   500  NAG500      0.1665
      2  C2        -8.6490   -7.2550   -1.3430 C.3   500  NAG500      0.1576
      3  C3        -9.8060   -6.6890   -2.1760 C.3   500  NAG500      0.2069
      4  C4       -10.8430   -6.0360   -1.2800 C.3   500  NAG500      0.2134
      5  C5       -10.0980   -4.9970   -0.4410 C.3   500  NAG500      0.1809
      6  C6       -11.0220   -4.2770    0.5180 C.3   500  NAG500      0.2141
      7  C7        -7.5520   -9.1300   -2.5550 C.2   500  NAG500      0.2420
      8  C8        -6.5520   -9.4990   -3.5860 C.3   500  NAG500      0.0964
      9  N2        -7.6340   -7.8260   -2.1970 N.am  500  NAG500     -0.2019
     10  O3       -10.4210   -7.6810   -2.9700 O.3   500  NAG500     -0.2184
     11  O4       -11.8060   -5.3530   -2.0780 O.3   500  NAG500     -0.2176
     12  O5        -9.0630   -5.6120    0.2950 O.3   500  NAG500     -0.3489
     13  O6       -10.3040   -3.1870    1.0530 O.3   500  NAG500     -0.2176
     14  O7        -8.2360  -10.0330   -2.1200 O.2   500  NAG500     -0.2733
@<TRIPOS>BOND
     1     8     7    1
     2    10     3    1
     3     7     9   am
     4     7    14    2
     5     9     2    1
     6     3     2    1
     7     3     4    1
     8    11     4    1
     9     2     1    1
    10     4     5    1
    11     1    12    1
    12     5    12    1
    13     5     6    1
    14     6    13    1
