@<TRIPOS>MOLECULE
1gz1_SGC_A_1.pdb
 11 11 0 0 0
SMALL
GASTEIGER

@<TRIPOS>ATOM
      1  C1        16.3770   -8.7060    9.1230 C.3   502  SGC502      0.1776
      2  C2        15.4530   -9.9030    9.2480 C.3   502  SGC502      0.2124
      3  O2        15.6230  -10.7660    8.1350 O.3   502  SGC502     -0.2177
      4  C3        14.0040   -9.4680    9.3200 C.3   502  SGC502      0.1977
      5  O3        13.0740  -10.4950    9.5840 O.3   502  SGC502     -0.2193
      6  C4        13.7890   -8.3220   10.4520 C.3   502  SGC502      0.1206
      7  C5        14.9350   -7.2590   10.4250 C.3   502  SGC502      0.1614
      8  O5        16.2610   -7.8100   10.2450 O.3   502  SGC502     -0.3498
      9  C6        14.9760   -6.5090   11.7470 C.3   502  SGC502      0.2124
     10  O6        15.8930   -5.4890   11.6800 O.3   502  SGC502     -0.2177
     11  S4        12.2570   -7.3620   10.3200 S.3   502  SGC502     -0.0777
@<TRIPOS>BOND
     1     3     2    1
     2     1     2    1
     3     1     8    1
     4     2     4    1
     5     4     5    1
     6     4     6    1
     7     8     7    1
     8    11     6    1
     9     7     6    1
    10     7     9    1
    11    10     9    1
