@<TRIPOS>MOLECULE
1gz3_ATP_A_1.pdb
 31 33 0 0 0
SMALL
GASTEIGER

@<TRIPOS>ATOM
      1  PG        26.1110   34.8470   -5.3390 P.3   601  ATP601      0.5373
      2  O1G       26.8790   34.6070   -4.0430 O.3   601  ATP601     -0.1143
      3  O2G       25.4320   36.1570   -5.4110 O.3   601  ATP601     -0.1143
      4  O3G       25.1820   33.7240   -5.7210 O.2   601  ATP601     -0.2221
      5  PB        28.0810   33.7440   -7.1790 P.3   601  ATP601      0.2277
      6  O1B       28.2550   34.0690   -8.5810 O.2   601  ATP601     -0.5168
      7  O2B       27.4420   32.4650   -6.8490 O.3   601  ATP601     -0.4368
      8  O3B       27.2330   34.8800   -6.5180 O.3   601  ATP601     -0.2258
      9  PA        31.0500   33.8220   -6.9310 P.3   601  ATP601      0.2189
     10  O1A       31.9250   34.1590   -5.7760 O.3   601  ATP601     -0.4371
     11  O2A       31.3010   32.5800   -7.6740 O.2   601  ATP601     -0.5170
     12  O3A       29.5080   33.8300   -6.4350 O.3   601  ATP601     -0.2700
     13  O5'       31.0990   35.0360   -7.9960 O.3   601  ATP601     -0.3112
     14  C5'       30.9100   36.4060   -7.5880 C.3   601  ATP601      0.1813
     15  C4'       31.1420   37.3300   -8.8010 C.3   601  ATP601      0.1821
     16  O4'       30.7500   38.7170   -8.4720 O.3   601  ATP601     -0.3135
     17  C3'       32.6110   37.3720   -9.1830 C.3   601  ATP601      0.2184
     18  O3'       32.7660   37.2060  -10.6110 O.3   601  ATP601     -0.2174
     19  C2'       33.0930   38.7370   -8.7780 C.3   601  ATP601      0.2570
     20  O2'       34.1210   39.2050   -9.6660 O.3   601  ATP601     -0.2130
     21  C1'       31.8610   39.5890   -8.8430 C.3   601  ATP601      0.3186
     22  N9        31.9460   40.7980   -8.0050 N.pl3 601  ATP601     -0.1439
     23  C8        32.2880   40.8880   -6.6650 C.3   601  ATP601      0.3377
     24  N7        32.2710   42.1920   -6.3040 N.2   601  ATP601     -0.2095
     25  C5        31.9230   42.8280   -7.4010 C.2   601  ATP601      0.2526
     26  C6        31.7970   44.2060   -7.4530 C.2   601  ATP601      0.4393
     27  N6        32.0330   44.9740   -6.3940 N.pl3 601  ATP601      0.2180
     28  N1        31.4210   44.7440   -8.6520 N.2   601  ATP601      0.0021
     29  C2        31.2050   43.9310   -9.7430 C.3   601  ATP601      0.5254
     30  N3        31.3510   42.5700   -9.6410 N.2   601  ATP601     -0.0055
     31  C4        31.7290   42.0210   -8.4470 C.2   601  ATP601      0.3518
@<TRIPOS>BOND
     1    18    17    1
     2    29    30    1
     3    29    28    1
     4    20    19    1
     5    30    31    2
     6    17    15    1
     7    17    19    1
     8    21    19    1
     9    21    16    1
    10    21    22    1
    11    15    16    1
    12    15    14    1
    13    28    26    2
    14     6     5    2
    15    31    22    1
    16    31    25    1
    17    22    23    1
    18    13    14    1
    19    13     9    1
    20    11     9    2
    21    26    25    1
    22    26    27    1
    23    25    24    2
    24     5     7    1
    25     5     8    1
    26     5    12    1
    27     9    12    1
    28     9    10    1
    29    23    24    1
    30     8     1    1
    31     4     1    2
    32     3     1    1
    33     1     2    1
