@<TRIPOS>MOLECULE
1gz4_ATP_A_1.pdb
 31 33 0 0 0
SMALL
GASTEIGER

@<TRIPOS>ATOM
      1  PG        12.4020   29.4240   35.9750 P.3   601  ATP601      0.5373
      2  O1G       12.1830   28.0130   35.5450 O.2   601  ATP601     -0.2221
      3  O2G       13.8200   29.7270   36.3400 O.3   601  ATP601     -0.1143
      4  O3G       11.4160   29.8690   37.0060 O.3   601  ATP601     -0.1143
      5  PB        12.0640   30.0850   33.0440 P.3   601  ATP601      0.2277
      6  O1B       10.6830   30.2870   32.5350 O.2   601  ATP601     -0.5168
      7  O2B       12.7100   28.7960   32.8030 O.3   601  ATP601     -0.4368
      8  O3B       12.0900   30.3590   34.6360 O.3   601  ATP601     -0.2258
      9  PA        12.8540   32.2510   31.1520 P.3   601  ATP601      0.2189
     10  O1A       14.0400   33.1460   31.1330 O.3   601  ATP601     -0.4371
     11  O2A       12.5200   31.4900   29.9240 O.2   601  ATP601     -0.5170
     12  O3A       12.9870   31.2470   32.4110 O.3   601  ATP601     -0.2700
     13  O5'       11.5580   33.0950   31.5750 O.3   601  ATP601     -0.3112
     14  C5'       11.6200   34.0170   32.6650 C.3   601  ATP601      0.1813
     15  C4'       10.3420   34.8230   32.6860 C.3   601  ATP601      0.1821
     16  O4'       10.2200   35.5180   33.9690 O.3   601  ATP601     -0.3135
     17  C3'       10.3530   35.8750   31.5970 C.3   601  ATP601      0.2184
     18  O3'        9.1270   35.8140   30.8160 O.3   601  ATP601     -0.2174
     19  C2'       10.4550   37.1870   32.3170 C.3   601  ATP601      0.2570
     20  O2'        9.7200   38.2160   31.6430 O.3   601  ATP601     -0.2130
     21  C1'        9.9020   36.9050   33.6840 C.3   601  ATP601      0.3186
     22  N9        10.4250   37.8190   34.7230 N.pl3 601  ATP601     -0.1439
     23  C8        11.7440   38.1510   34.9820 C.3   601  ATP601      0.3377
     24  N7        11.7690   39.0520   35.9970 N.2   601  ATP601     -0.2095
     25  C5        10.5070   39.2230   36.3040 C.2   601  ATP601      0.2526
     26  C6        10.1050   40.0870   37.3010 C.2   601  ATP601      0.4393
     27  N6        10.9790   40.7980   38.0070 N.pl3 601  ATP601      0.2180
     28  N1         8.7580   40.1840   37.5270 N.2   601  ATP601      0.0021
     29  C2         7.8680   39.4430   36.7810 C.3   601  ATP601      0.5254
     30  N3         8.3150   38.5980   35.7980 N.2   601  ATP601     -0.0055
     31  C4         9.6670   38.4960   35.5630 C.2   601  ATP601      0.3518
@<TRIPOS>BOND
     1    11     9    2
     2    18    17    1
     3    10     9    1
     4     9    13    1
     5     9    12    1
     6    13    14    1
     7    17    19    1
     8    17    15    1
     9    20    19    1
    10    19    21    1
    11    12     5    1
    12     6     5    2
    13    14    15    1
    14    15    16    1
    15     7     5    1
    16     5     8    1
    17    21    16    1
    18    21    22    1
    19     8     1    1
    20    22    23    1
    21    22    31    1
    22    23    24    1
    23     2     1    2
    24    31    30    2
    25    31    25    1
    26    30    29    1
    27     1     3    1
    28     1     4    1
    29    24    25    2
    30    25    26    1
    31    29    28    1
    32    26    28    2
    33    26    27    1
