@<TRIPOS>MOLECULE
1gz5_G6P_A_1.pdb
 16 16 0 0 0
SMALL
GASTEIGER

@<TRIPOS>ATOM
      1  C1         5.5820    8.6550   41.4440 C.3   901  G6P901      0.3024
      2  C2         6.5150    9.5410   40.6480 C.3   901  G6P901      0.2434
      3  C3         6.3490   11.0080   41.0680 C.3   901  G6P901      0.2199
      4  C4         4.8670   11.3100   40.9690 C.3   901  G6P901      0.2143
      5  C5         4.0510   10.3790   41.8250 C.3   901  G6P901      0.1808
      6  C6         2.5760   10.6410   41.6320 C.3   901  G6P901      0.1859
      7  O1         5.8800    8.7020   42.7640 O.3   901  G6P901     -0.1869
      8  O2         7.8090    9.0420   40.9310 O.3   901  G6P901     -0.2148
      9  O3         7.0470   11.8740   40.1410 O.3   901  G6P901     -0.2174
     10  O4         4.5850   12.6260   41.3510 O.3   901  G6P901     -0.2176
     11  O5         4.2350    9.0650   41.2850 O.3   901  G6P901     -0.3237
     12  O6         2.2110   10.8600   40.2740 O.3   901  G6P901     -0.2675
     13  P          1.5930   12.2360   39.6550 P.3   901  G6P901      0.5327
     14  O1P        0.1660   12.3150   40.0660 O.3   901  G6P901     -0.1145
     15  O2P        1.6880   11.9680   38.2150 O.2   901  G6P901     -0.2224
     16  O3P        2.5660   13.2550   40.2090 O.3   901  G6P901     -0.1145
@<TRIPOS>BOND
     1    15    13    2
     2    13    14    1
     3    13    16    1
     4    13    12    1
     5     9     3    1
     6    12     6    1
     7     2     8    1
     8     2     3    1
     9     2     1    1
    10     4     3    1
    11     4    10    1
    12     4     5    1
    13    11     1    1
    14    11     5    1
    15     1     7    1
    16     6     5    1
