@<TRIPOS>MOLECULE
1gz5_UDP_A_1.pdb
 25 26 0 0 0
SMALL
GASTEIGER

@<TRIPOS>ATOM
      1  N1        -0.7510    7.1730   49.4950 N.am  900  UDP900     -0.1766
      2  C2        -1.6960    7.9830   50.1050 C.1   900  UDP900      0.2845
      3  N3        -3.0670    7.7830   49.9120 N.2   900  UDP900     -0.2452
      4  C4        -3.4690    6.7560   49.0660 C.1   900  UDP900      0.2182
      5  C5        -2.5090    5.9720   48.3940 C.2   900  UDP900      0.1242
      6  C6        -1.1360    6.2000   48.5910 C.2   900  UDP900      0.0929
      7  O2        -1.2760    8.8710   50.8350 O.2   900  UDP900     -0.1918
      8  O4        -4.6920    6.6160   48.8880 O.2   900  UDP900     -0.2085
      9  C1'        0.6120    7.5350   49.7730 C.3   900  UDP900      0.2401
     10  C2'        1.2920    6.4020   50.4120 C.3   900  UDP900      0.2319
     11  O2'        1.0330    6.4290   51.7790 O.3   900  UDP900     -0.2157
     12  C3'        2.7200    6.6710   50.0240 C.3   900  UDP900      0.2158
     13  C4'        2.5990    7.2420   48.6260 C.3   900  UDP900      0.1799
     14  O4'        1.2530    7.6950   48.5290 O.3   900  UDP900     -0.3320
     15  O3'        3.3690    7.5950   50.8710 O.3   900  UDP900     -0.2175
     16  C5'        2.8360    6.1000   47.6250 C.3   900  UDP900      0.1813
     17  O5'        4.2090    6.1430   47.3510 O.3   900  UDP900     -0.3111
     18  PA         4.8910    4.7950   46.8190 P.3   900  UDP900      0.2231
     19  O1A        6.3370    4.9250   46.8670 O.2   900  UDP900     -0.5169
     20  O2A        4.3940    3.5400   47.4310 O.3   900  UDP900     -0.4370
     21  O3A        4.3050    4.6450   45.3250 O.3   900  UDP900     -0.2261
     22  PB         4.2570    5.7010   44.1750 P.3   900  UDP900      0.5373
     23  O1B        5.1930    6.8320   44.3960 O.3   900  UDP900     -0.1143
     24  O2B        2.9140    6.3200   44.1010 O.3   900  UDP900     -0.1143
     25  O3B        4.4490    4.9100   42.9310 O.2   900  UDP900     -0.2221
@<TRIPOS>BOND
     1    25    22    2
     2    24    22    1
     3    22    23    1
     4    22    21    1
     5    21    18    1
     6    18    19    2
     7    18    17    1
     8    18    20    1
     9    17    16    1
    10    16    13    1
    11     5     6    2
    12     5     4    1
    13    14    13    1
    14    14     9    1
    15     6     1    1
    16    13    12    1
    17     8     4    2
    18     4     3    2
    19     1     9    1
    20     1     2   am
    21     9    10    1
    22     3     2    2
    23    12    10    1
    24    12    15    1
    25     2     7    2
    26    10    11    1
