@<TRIPOS>MOLECULE
1gz6_NAI_A_1.pdb
 44 48 0 0 0
SMALL
GASTEIGER

@<TRIPOS>ATOM
      1  PA        38.7550   48.9190   38.1900 P.3   1306  NAI1306     0.2189
      2  O1A       38.1530   49.6740   37.0850 O.2   1306  NAI1306    -0.5170
      3  O2A       40.1900   48.7350   38.0410 O.3   1306  NAI1306    -0.4371
      4  O5B       38.2040   47.4180   38.3500 O.3   1306  NAI1306    -0.3112
      5  C5B       36.8140   47.0690   38.0400 C.3   1306  NAI1306     0.1813
      6  C4B       36.7760   45.9040   37.0760 C.3   1306  NAI1306     0.1821
      7  O4B       35.3750   45.6470   36.8110 O.3   1306  NAI1306    -0.3135
      8  C3B       37.3920   46.2000   35.6980 C.3   1306  NAI1306     0.2184
      9  O3B       38.4000   45.2160   35.4330 O.3   1306  NAI1306    -0.2174
     10  C2B       36.1920   46.1410   34.7400 C.3   1306  NAI1306     0.2570
     11  O2B       36.5760   45.6710   33.4240 O.3   1306  NAI1306    -0.2130
     12  C1B       35.2510   45.2060   35.4850 C.3   1306  NAI1306     0.3186
     13  N9A       33.8520   45.3620   35.0880 N.pl3 1306  NAI1306    -0.1439
     14  C8A       33.1380   46.5260   34.8380 C.3   1306  NAI1306     0.3377
     15  N7A       31.8440   46.3140   34.4890 N.2   1306  NAI1306    -0.2095
     16  C5A       31.7420   44.9070   34.5270 C.2   1306  NAI1306     0.2526
     17  C6A       30.6380   44.0140   34.2650 C.2   1306  NAI1306     0.4393
     18  N6A       29.4370   44.4410   33.9110 N.pl3 1306  NAI1306     0.2180
     19  N1A       30.8790   42.6540   34.4010 N.2   1306  NAI1306     0.0021
     20  C2A       32.1320   42.2050   34.7690 C.3   1306  NAI1306     0.5254
     21  N3A       33.2020   42.9420   35.0280 N.2   1306  NAI1306    -0.0055
     22  C4A       32.9590   44.2980   34.8940 C.2   1306  NAI1306     0.3518
     23  O3        38.3610   49.5780   39.5560 O.3   1306  NAI1306    -0.2703
     24  PN        38.7240   49.2000   41.0600 P.3   1306  NAI1306     0.2189
     25  O1N       39.3270   50.3710   41.7190 O.3   1306  NAI1306    -0.4371
     26  O2N       39.6120   48.0080   41.0350 O.2   1306  NAI1306    -0.5170
     27  O5D       37.3370   48.9770   41.7830 O.3   1306  NAI1306    -0.3112
     28  C5D       36.8220   47.6450   41.9250 C.3   1306  NAI1306     0.1813
     29  C4D       35.5690   47.7600   42.7530 C.3   1306  NAI1306     0.1799
     30  O4D       35.9090   48.5110   43.9640 O.3   1306  NAI1306    -0.3327
     31  C3D       34.3680   48.4790   42.1250 C.3   1306  NAI1306     0.2158
     32  O3D       33.1310   47.8380   42.4560 O.3   1306  NAI1306    -0.2175
     33  C2D       34.5160   49.9030   42.7070 C.3   1306  NAI1306     0.2309
     34  O2D       33.2680   50.6410   42.6420 O.3   1306  NAI1306    -0.2158
     35  C1D       34.9870   49.5710   44.0940 C.3   1306  NAI1306     0.2263
     36  N1N       35.5920   50.7120   44.8560 N.pl3 1306  NAI1306    -0.2787
     37  C2N       36.9520   50.9720   44.5810 C.3   1306  NAI1306     0.1244
     38  C3N       37.5450   52.0090   45.3030 C.2   1306  NAI1306     0.0544
     39  C7N       39.0140   52.3720   45.1250 C.2   1306  NAI1306     0.2818
     40  O7N       39.5010   53.2750   45.8110 O.2   1306  NAI1306    -0.2670
     41  N7N       39.7510   51.6830   44.2370 N.am  1306  NAI1306    -0.0839
     42  C4N       36.7810   52.8040   46.2770 C.2   1306  NAI1306     0.0033
     43  C5N       35.4110   52.4350   46.4460 C.2   1306  NAI1306     0.0157
     44  C6N       34.7570   51.4100   45.7860 C.2   1306  NAI1306     0.0633
@<TRIPOS>BOND
     1    11    10    1
     2    18    17    1
     3    17    19    2
     4    17    16    1
     5    19    20    1
     6    15    16    2
     7    15    14    1
     8    16    22    1
     9    10    12    1
    10    10     8    1
    11    20    21    1
    12    14    13    1
    13    22    21    2
    14    22    13    1
    15    13    12    1
    16     9     8    1
    17    12     7    1
    18     8     6    1
    19     7     6    1
    20     6     5    1
    21     2     1    2
    22     5     4    1
    23     3     1    1
    24     1     4    1
    25     1    23    1
    26    23    24    1
    27    26    24    2
    28    24    25    1
    29    24    27    1
    30    27    28    1
    31    28    29    1
    32    31    32    1
    33    31    33    1
    34    31    29    1
    35    34    33    1
    36    33    35    1
    37    29    30    1
    38    30    35    1
    39    35    36    1
    40    41    39   am
    41    37    36    1
    42    37    38    1
    43    36    44    1
    44    39    38    1
    45    39    40    2
    46    38    42    2
    47    44    43    2
    48    42    43    1
