@<TRIPOS>MOLECULE
1gz8_MBP_A_1.pdb
 17 18 0 0 0
SMALL
GASTEIGER

@<TRIPOS>ATOM
      1  C2         1.9450   29.1630    6.4530 C.1   1300  MBP1300     0.2533
      2  C4         0.5870   30.8020    7.3060 C.1   1300  MBP1300     0.1221
      3  C5        -0.0980   29.8920    8.1730 C.2   1300  MBP1300     0.2195
      4  C4'       -0.8130   25.3460    9.5230 C.2   1300  MBP1300     0.1941
      5  O4'       -1.7450   25.7650   10.2480 O.2   1300  MBP1300    -0.2922
      6  C3'       -1.3380   23.0230    8.8460 C.3   1300  MBP1300     0.0079
      7  C2'       -0.3260   23.9270    9.5200 C.3   1300  MBP1300     0.0615
      8  C12       -0.0060   23.4630   10.9270 C.3   1300  MBP1300     0.0079
      9  N9        -0.0280   31.9510    7.5890 N.2   1300  MBP1300    -0.1806
     10  N3         1.6100   30.4480    6.4950 N.2   1300  MBP1300    -0.2693
     11  N2         2.9520   28.8020    5.6460 N.pl3 1300  MBP1300    -0.0226
     12  N1         1.3210   28.2410    7.2470 N.2   1300  MBP1300    -0.2855
     13  C6         0.3040   28.5100    8.0400 C.2   1300  MBP1300     0.3181
     14  O6        -0.2760   27.5740    8.7850 O.2   1300  MBP1300    -0.4415
     15  C60       -0.0460   26.2100    8.5600 C.3   1300  MBP1300     0.2718
     16  N7        -1.0500   30.5390    8.8720 N.2   1300  MBP1300    -0.2273
     17  C8        -0.9870   31.7820    8.4880 C.3   1300  MBP1300     0.2628
@<TRIPOS>BOND
     1    11     1    1
     2     1    10    2
     3     1    12    2
     4    10     2    2
     5    12    13    2
     6     2     9    2
     7     2     3    1
     8     9    17    1
     9    13     3    1
    10    13    14    1
    11     3    16    2
    12    17    16    1
    13    15    14    1
    14    15     4    1
    15     6     7    1
    16     7     4    1
    17     7     8    1
    18     4     5    2
