@<TRIPOS>MOLECULE
1gz9_FUC_A_1.pdb
 11 11 0 0 0
SMALL
GASTEIGER

@<TRIPOS>ATOM
      1  C1        84.0580   39.0520   32.1980 C.3   1559  FUC1559     0.3023
      2  C2        85.0580   38.2610   31.3190 C.3   1559  FUC1559     0.2434
      3  C3        86.4940   38.8670   31.1370 C.3   1559  FUC1559     0.2198
      4  C4        87.0350   39.4220   32.5010 C.3   1559  FUC1559     0.2118
      5  C5        85.9920   40.3700   33.1510 C.3   1559  FUC1559     0.1509
      6  C6        86.4830   40.9540   34.5360 C.3   1559  FUC1559     0.0350
      7  O1        83.6990   40.1630   31.3960 O.3   1559  FUC1559    -0.1869
      8  O2        84.4080   37.6720   30.1660 O.3   1559  FUC1559    -0.2148
      9  O3        87.3460   37.8350   30.6590 O.3   1559  FUC1559    -0.2174
     10  O4        87.3050   38.3430   33.3820 O.3   1559  FUC1559    -0.2177
     11  O5        84.6700   39.6390   33.4120 O.3   1559  FUC1559    -0.3264
@<TRIPOS>BOND
     1     8     2    1
     2     9     3    1
     3     3     2    1
     4     3     4    1
     5     2     1    1
     6     7     1    1
     7     1    11    1
     8     4     5    1
     9     4    10    1
    10     5    11    1
    11     5     6    1
