@<TRIPOS>MOLECULE
1gz9_LAT_A_1.pdb
 22 23 0 0 0
SMALL
GASTEIGER

@<TRIPOS>ATOM
      1  C1        82.7760   42.1810   30.7350 C.3   1560  LAT1560     0.2379
      2  C2        82.5960   41.0400   31.6660 C.3   1560  LAT1560     0.0969
      3  C3        81.2000   40.3830   31.2130 C.3   1560  LAT1560     0.1897
      4  C4        80.0820   41.4300   31.3420 C.3   1560  LAT1560     0.2118
      5  C5        80.4740   42.6120   30.4080 C.3   1560  LAT1560     0.1833
      6  C6        79.4910   43.7340   30.4520 C.3   1560  LAT1560     0.2142
      7  O1        84.0330   42.8220   31.1550 O.3   1560  LAT1560    -0.3276
      8  O3        80.9290   39.2470   32.0890 O.3   1560  LAT1560    -0.2202
      9  O4        79.9590   41.9390   32.6690 O.3   1560  LAT1560    -0.2177
     10  O5        81.7370   43.1500   30.8260 O.3   1560  LAT1560    -0.3275
     11  O6        79.9240   44.6680   29.4540 O.3   1560  LAT1560    -0.2176
     12  C1'       86.6530   45.9390   30.0400 C.3   1560  LAT1560     0.3023
     13  C2'       85.1640   46.3050   29.9110 C.3   1560  LAT1560     0.2433
     14  C3'       84.3530   45.2680   30.7370 C.3   1560  LAT1560     0.2168
     15  C4'       84.6490   43.8440   30.2510 C.3   1560  LAT1560     0.1803
     16  C5'       86.1590   43.5440   30.2680 C.3   1560  LAT1560     0.1804
     17  C6'       86.5000   42.2210   29.5840 C.3   1560  LAT1560     0.2141
     18  O1'       87.3940   46.8460   29.2860 O.3   1560  LAT1560    -0.1869
     19  O2'       84.8880   47.5970   30.4290 O.3   1560  LAT1560    -0.2148
     20  O3'       82.9840   45.5800   30.6260 O.3   1560  LAT1560    -0.2175
     21  O5'       86.8610   44.5770   29.5060 O.3   1560  LAT1560    -0.3237
     22  O6'       87.7560   41.7210   30.0700 O.3   1560  LAT1560    -0.2176
@<TRIPOS>BOND
     1    18    12    1
     2    11     6    1
     3    21    12    1
     4    21    16    1
     5    17    22    1
     6    17    16    1
     7    13    12    1
     8    13    19    1
     9    13    14    1
    10    15    16    1
    11    15    14    1
    12    15     7    1
    13     5     6    1
    14     5    10    1
    15     5     4    1
    16    20    14    1
    17     1    10    1
    18     1     7    1
    19     1     2    1
    20     3     4    1
    21     3     2    1
    22     3     8    1
    23     4     9    1
