@<TRIPOS>MOLECULE
1gza_HEM_A_1.pdb
 43 50 0 0 0
SMALL
GASTEIGER

@<TRIPOS>ATOM
      1  CHA       18.6540   20.1810   29.1640 C.2   345  HEM345      0.0000
      2  CHB       15.3900   23.7140   28.7610 C.2   345  HEM345      0.0000
      3  CHC       18.5700   26.8570   30.5000 C.2   345  HEM345      0.0000
      4  CHD       21.5330   23.2300   31.4710 C.2   345  HEM345      0.0000
      5  C1A       17.4660   20.8680   28.9670 C.ar  345  HEM345      0.0000
      6  C2A       16.2190   20.2440   28.6210 C.ar  345  HEM345      0.0000
      7  C3A       15.2830   21.2190   28.5530 C.ar  345  HEM345      0.0000
      8  C4A       15.9720   22.4620   28.8370 C.ar  345  HEM345      0.0000
      9  CMA       13.8090   21.0690   28.2420 C.3   345  HEM345      0.0000
     10  CAA       16.0720   18.7620   28.3340 C.3   345  HEM345      0.0000
     11  CBA       15.9300   17.8960   29.5580 C.3   345  HEM345      0.0000
     12  CGA       15.5790   16.4670   29.2460 C.2   345  HEM345      0.0000
     13  O1A       16.3720   15.5880   29.5020 O.co2 345  HEM345      0.0000
     14  O2A       14.5160   16.1760   28.7370 O.co2 345  HEM345      0.0000
     15  C1B       16.0340   24.9070   29.0440 C.2   345  HEM345      0.0000
     16  C2B       15.3960   26.2250   28.9830 C.2   345  HEM345      0.0000
     17  C3B       16.3200   27.1250   29.4750 C.2   345  HEM345      0.0000
     18  C4B       17.5070   26.3500   29.8020 C.2   345  HEM345      0.0000
     19  CMB       13.9750   26.5070   28.4640 C.3   345  HEM345      0.0000
     20  CAB       16.1730   28.4980   29.7210 C.3   345  HEM345      0.0000
     21  CBB       15.9960   29.5220   28.6980 C.3   345  HEM345      0.0000
     22  C1C       19.5910   26.1100   31.0070 C.ar  345  HEM345      0.0000
     23  C2C       20.5480   26.6290   31.9450 C.ar  345  HEM345      0.0000
     24  C3C       21.3280   25.5880   32.3120 C.ar  345  HEM345      0.0000
     25  C4C       20.8700   24.4480   31.5390 C.ar  345  HEM345      0.0000
     26  CMC       20.7490   28.1090   32.2750 C.3   345  HEM345      0.0000
     27  CAC       22.3540   25.5450   33.2490 C.3   345  HEM345      0.0000
     28  CBC       23.4150   26.5140   33.4500 C.3   345  HEM345      0.0000
     29  C1D       21.0950   22.1190   30.7520 C.2   345  HEM345      0.0000
     30  C2D       21.8300   20.8940   30.5920 C.2   345  HEM345      0.0000
     31  C3D       20.9940   20.0500   29.9630 C.2   345  HEM345      0.0000
     32  C4D       19.7930   20.7500   29.6830 C.2   345  HEM345      0.0000
     33  CMD       23.2950   20.6710   30.9430 C.3   345  HEM345      0.0000
     34  CAD       21.2810   18.6340   29.5370 C.3   345  HEM345      0.0000
     35  CBD       20.7220   17.5600   30.4550 C.3   345  HEM345      0.0000
     36  CGD       21.1180   16.1610   30.0790 C.2   345  HEM345      0.0000
     37  O1D       20.7430   15.2190   30.7690 O.co2 345  HEM345      0.0000
     38  O2D       21.8060   15.9900   29.0890 O.co2 345  HEM345      0.0000
     39  NA        17.3060   22.2380   29.1290 N.ar  345  HEM345      0.0000
     40  NB        17.3460   25.0020   29.5080 N.2   345  HEM345      0.0000
     41  NC        19.7700   24.7670   30.7780 N.ar  345  HEM345      0.0000
     42  ND        19.8890   22.0570   30.1050 N.2   345  HEM345      0.0000
     43 FE         18.6790   23.5370   29.6990 Fe    345  HEM345      0.0000
@<TRIPOS>BOND
     1     9     7    1
     2    10     6    1
     3    10    11    1
     4    19    16    1
     5     7     6   ar
     6     7     8   ar
     7     6     5   ar
     8    21    20    1
     9    14    12   ar
    10     2     8    2
    11     2    15    1
    12     8    39   ar
    13     5    39   ar
    14     5     1    2
    15    16    15    1
    16    16    17    2
    17    15    40    2
    18    38    36   ar
    19    39    43    1
    20     1    32    1
    21    12    13   ar
    22    12    11    1
    23    17    20    1
    24    17    18    1
    25    40    43    1
    26    40    18    1
    27    34    31    1
    28    34    35    1
    29    32    31    1
    30    32    42    2
    31    43    42    1
    32    43    41    1
    33    18     3    2
    34    31    30    2
    35    36    35    1
    36    36    37   ar
    37    42    29    1
    38     3    22    1
    39    30    29    1
    40    30    33    1
    41    29     4    2
    42    41    22   ar
    43    41    25   ar
    44    22    23   ar
    45     4    25    1
    46    25    24   ar
    47    23    26    1
    48    23    24   ar
    49    24    27    1
    50    27    28    1
