@<TRIPOS>MOLECULE
1gzb_HEM_A_1.pdb
 43 50 0 0 0
SMALL
GASTEIGER

@<TRIPOS>ATOM
      1  CHA       18.6700   20.1510   29.1030 C.2   345  HEM345      0.0000
      2  CHB       15.3600   23.6330   28.8050 C.2   345  HEM345      0.0000
      3  CHC       18.5240   26.8180   30.4320 C.2   345  HEM345      0.0000
      4  CHD       21.4560   23.1970   31.5250 C.2   345  HEM345      0.0000
      5  C1A       17.4780   20.8230   28.9220 C.ar  345  HEM345      0.0000
      6  C2A       16.2200   20.1960   28.6170 C.ar  345  HEM345      0.0000
      7  C3A       15.2820   21.1610   28.5860 C.ar  345  HEM345      0.0000
      8  C4A       15.9590   22.3970   28.8530 C.ar  345  HEM345      0.0000
      9  CMA       13.8100   20.9900   28.2790 C.3   345  HEM345      0.0000
     10  CAA       15.9990   18.7240   28.3240 C.3   345  HEM345      0.0000
     11  CBA       15.8900   17.8580   29.5440 C.3   345  HEM345      0.0000
     12  CGA       15.5620   16.4190   29.1980 C.2   345  HEM345      0.0000
     13  O1A       16.3650   15.5480   29.4460 O.co2 345  HEM345      0.0000
     14  O2A       14.5030   16.1240   28.6440 O.co2 345  HEM345      0.0000
     15  C1B       15.9920   24.8340   29.0330 C.2   345  HEM345      0.0000
     16  C2B       15.3320   26.1290   28.9850 C.2   345  HEM345      0.0000
     17  C3B       16.2200   27.0450   29.4280 C.2   345  HEM345      0.0000
     18  C4B       17.4570   26.2980   29.7130 C.2   345  HEM345      0.0000
     19  CMB       13.9120   26.4180   28.5170 C.3   345  HEM345      0.0000
     20  CAB       15.9300   28.3830   29.7080 C.3   345  HEM345      0.0000
     21  CBB       16.2260   29.4940   28.8260 C.3   345  HEM345      0.0000
     22  C1C       19.5670   26.1010   30.9390 C.ar  345  HEM345      0.0000
     23  C2C       20.5130   26.6310   31.8980 C.ar  345  HEM345      0.0000
     24  C3C       21.2760   25.5970   32.3070 C.ar  345  HEM345      0.0000
     25  C4C       20.8160   24.4340   31.5480 C.ar  345  HEM345      0.0000
     26  CMC       20.6490   28.0860   32.3210 C.3   345  HEM345      0.0000
     27  CAC       22.2480   25.5700   33.2990 C.3   345  HEM345      0.0000
     28  CBC       23.3700   26.4430   33.4430 C.3   345  HEM345      0.0000
     29  C1D       21.0600   22.1040   30.7530 C.2   345  HEM345      0.0000
     30  C2D       21.8310   20.9010   30.5510 C.2   345  HEM345      0.0000
     31  C3D       21.0190   20.0310   29.9110 C.2   345  HEM345      0.0000
     32  C4D       19.8120   20.7290   29.6330 C.2   345  HEM345      0.0000
     33  CMD       23.3250   20.7660   30.8450 C.3   345  HEM345      0.0000
     34  CAD       21.3260   18.5990   29.5010 C.2   345  HEM345      0.0000
     35  CBD       20.7810   17.5080   30.4010 C.2   345  HEM345      0.0000
     36  CGD       21.1420   16.0910   30.0040 C.2   345  HEM345      0.0000
     37  O1D       20.7090   15.1810   30.6820 O.co2 345  HEM345      0.0000
     38  O2D       21.8630   15.8740   29.0350 O.co2 345  HEM345      0.0000
     39  NA        17.3040   22.1810   29.1010 N.ar  345  HEM345      0.0000
     40  NB        17.3060   24.9470   29.4360 N.2   345  HEM345      0.0000
     41  NC        19.7460   24.7580   30.7440 N.ar  345  HEM345      0.0000
     42  ND        19.8730   22.0290   30.0780 N.2   345  HEM345      0.0000
     43 FE         18.6400   23.5060   29.6670 Fe    345  HEM345      0.0000
@<TRIPOS>BOND
     1     9     7    1
     2    10     6    1
     3    10    11    1
     4    19    16    1
     5     7     6   ar
     6     7     8   ar
     7     6     5   ar
     8    14    12   ar
     9     2     8    2
    10     2    15    1
    11    21    20    1
    12     8    39   ar
    13     5    39   ar
    14     5     1    2
    15    16    15    1
    16    16    17    2
    17    15    40    2
    18    38    36   ar
    19    39    43    1
    20     1    32    1
    21    12    13   ar
    22    12    11    1
    23    17    20    1
    24    17    18    1
    25    40    43    1
    26    40    18    1
    27    34    31    1
    28    34    35    2
    29    32    31    1
    30    32    42    2
    31    43    42    1
    32    43    41    1
    33    18     3    2
    34    31    30    2
    35    36    35    1
    36    36    37   ar
    37    42    29    1
    38     3    22    1
    39    30    29    1
    40    30    33    1
    41    41    22   ar
    42    41    25   ar
    43    29     4    2
    44    22    23   ar
    45     4    25    1
    46    25    24   ar
    47    23    24   ar
    48    23    26    1
    49    24    27    1
    50    27    28    1
