@<TRIPOS>MOLECULE
1gzc_LAT_A_1.pdb
 23 24 0 0 0
SMALL
GASTEIGER

@<TRIPOS>ATOM
      1  C1        83.5890   42.7070   30.5940 C.3   1559  LAT1559     0.2695
      2  C2        83.3470   41.5450   31.5350 C.3   1559  LAT1559     0.2406
      3  C3        81.9990   40.8490   31.0880 C.3   1559  LAT1559     0.2198
      4  C4        80.8800   41.9040   31.1440 C.3   1559  LAT1559     0.2144
      5  C5        81.2420   43.0760   30.2260 C.3   1559  LAT1559     0.1835
      6  C6        80.2060   44.1980   30.2870 C.3   1559  LAT1559     0.2142
      7  O1        84.7910   43.4140   30.9710 O.3   1559  LAT1559    -0.3257
      8  O2        84.4430   40.5970   31.4980 O.3   1559  LAT1559    -0.2149
      9  O3        81.7290   39.7410   31.9440 O.3   1559  LAT1559    -0.2174
     10  O4        80.6980   42.4520   32.4430 O.3   1559  LAT1559    -0.2176
     11  O5        82.5060   43.6490   30.6340 O.3   1559  LAT1559    -0.3256
     12  O6        80.4780   45.0920   29.1980 O.3   1559  LAT1559    -0.2176
     13  C1'       87.2420   46.5170   29.5120 C.3   1559  LAT1559     0.3023
     14  C2'       85.7470   46.8320   29.4400 C.3   1559  LAT1559     0.2433
     15  C3'       85.0230   45.8400   30.3920 C.3   1559  LAT1559     0.2168
     16  C4'       85.3410   44.3870   29.9980 C.3   1559  LAT1559     0.1804
     17  C5'       86.8550   44.1320   29.9620 C.3   1559  LAT1559     0.1804
     18  C6'       87.1800   42.7380   29.3860 C.3   1559  LAT1559     0.2141
     19  O1'       87.9290   47.3930   28.6630 O.3   1559  LAT1559    -0.1869
     20  O2'       85.4500   48.1460   29.8720 O.3   1559  LAT1559    -0.2148
     21  O3'       83.6150   46.1090   30.3420 O.3   1559  LAT1559    -0.2175
     22  O5'       87.4560   45.1390   29.0630 O.3   1559  LAT1559    -0.3237
     23  O6'       88.5790   42.4900   29.4290 O.3   1559  LAT1559    -0.2176
@<TRIPOS>BOND
     1    19    13    1
     2    22    13    1
     3    22    17    1
     4    12     6    1
     5    18    23    1
     6    18    17    1
     7    14    13    1
     8    14    20    1
     9    14    15    1
    10    17    16    1
    11    16    15    1
    12    16     7    1
    13     5     6    1
    14     5    11    1
    15     5     4    1
    16    21    15    1
    17     1    11    1
    18     1     7    1
    19     1     2    1
    20     3     4    1
    21     3     2    1
    22     3     9    1
    23     4    10    1
    24     8     2    1
