@<TRIPOS>MOLECULE
1gzf_NAD_A_1.pdb
 44 48 0 0 0
SMALL
GASTEIGER

@<TRIPOS>ATOM
      1  PA        37.6760   37.5940   34.6810 P.3   1248  NAD1248     0.2189
      2  O1A       38.9010   36.8380   34.4670 O.2   1248  NAD1248    -0.5170
      3  O2A       38.1480   38.8990   35.3660 O.3   1248  NAD1248    -0.4371
      4  O5B       36.7990   37.4070   33.4320 O.3   1248  NAD1248    -0.3112
      5  C5B       35.4700   38.0060   33.5090 C.3   1248  NAD1248     0.1813
      6  C4B       34.7280   37.8140   32.1250 C.3   1248  NAD1248     0.1821
      7  O4B       35.4510   38.6100   31.2050 O.3   1248  NAD1248    -0.3135
      8  C3B       34.7480   36.4470   31.5150 C.3   1248  NAD1248     0.2184
      9  O3B       33.6120   36.0630   30.7090 O.3   1248  NAD1248    -0.2174
     10  C2B       36.0740   36.3570   30.7490 C.3   1248  NAD1248     0.2570
     11  O2B       36.0090   35.2900   29.7810 O.3   1248  NAD1248    -0.2130
     12  C1B       36.1470   37.7750   30.2870 C.3   1248  NAD1248     0.3186
     13  N9A       37.4930   38.2720   29.9730 N.pl3 1248  NAD1248    -0.1439
     14  C8A       38.6660   37.7530   30.4590 C.3   1248  NAD1248     0.3377
     15  N7A       39.7090   38.4810   30.0370 N.2   1248  NAD1248    -0.2095
     16  C5A       39.1780   39.4150   29.2210 C.2   1248  NAD1248     0.2526
     17  C6A       39.8930   40.4240   28.5320 C.2   1248  NAD1248     0.4393
     18  N6A       41.2630   40.3740   28.6640 N.pl3 1248  NAD1248     0.2180
     19  N1A       39.1600   41.2760   27.8400 N.2   1248  NAD1248     0.0021
     20  C2A       37.7660   41.0780   27.8800 C.3   1248  NAD1248     0.5254
     21  N3A       36.9930   40.1590   28.4870 N.2   1248  NAD1248    -0.0055
     22  C4A       37.8340   39.3600   29.1920 C.2   1248  NAD1248     0.3518
     23  O3        36.6830   36.6880   35.6780 O.3   1248  NAD1248    -0.2703
     24  PN        36.4620   35.2020   35.7640 P.3   1248  NAD1248     0.2189
     25  O1N       37.5270   34.2960   35.9490 O.3   1248  NAD1248    -0.4371
     26  O2N       35.4300   34.5900   34.9070 O.2   1248  NAD1248    -0.5170
     27  O5D       35.6660   34.8480   37.0960 O.3   1248  NAD1248    -0.3112
     28  C5D       36.3750   34.6250   38.3220 C.3   1248  NAD1248     0.1813
     29  C4D       35.3540   34.0620   39.3540 C.3   1248  NAD1248     0.1799
     30  O4D       35.5660   32.6010   39.2400 O.3   1248  NAD1248    -0.3327
     31  C3D       35.9670   34.3710   40.7390 C.3   1248  NAD1248     0.2158
     32  O3D       35.1230   33.8750   41.7740 O.3   1248  NAD1248    -0.2175
     33  C2D       37.1810   33.4430   40.6040 C.3   1248  NAD1248     0.2309
     34  O2D       37.6260   32.8660   41.8430 O.3   1248  NAD1248    -0.2158
     35  C1D       36.8000   32.3670   39.6140 C.3   1248  NAD1248     0.2263
     36  N1N       37.6160   31.3830   38.9490 N.pl3 1248  NAD1248    -0.2787
     37  C2N       37.4990   31.3610   37.5580 C.3   1248  NAD1248     0.1244
     38  C3N       38.2680   30.4760   36.8550 C.2   1248  NAD1248     0.0544
     39  C7N       38.1690   30.2640   35.2830 C.2   1248  NAD1248     0.2818
     40  O7N       38.4390   29.1550   34.8400 O.2   1248  NAD1248    -0.2670
     41  N7N       37.6470   31.3330   34.6130 N.am  1248  NAD1248    -0.0839
     42  C4N       39.1320   29.6220   37.5100 C.2   1248  NAD1248     0.0033
     43  C5N       39.2140   29.6510   38.9190 C.2   1248  NAD1248     0.0157
     44  C6N       38.5240   30.5860   39.6640 C.2   1248  NAD1248     0.0633
@<TRIPOS>BOND
     1    19    20    1
     2    19    17    2
     3    20    21    1
     4    21    22    2
     5    17    18    1
     6    17    16    1
     7    22    16    1
     8    22    13    1
     9    16    15    2
    10    11    10    1
    11    13    12    1
    12    13    14    1
    13    15    14    1
    14    12    10    1
    15    12     7    1
    16     9     8    1
    17    10     8    1
    18     7     6    1
    19     8     6    1
    20     6     5    1
    21     4     5    1
    22     4     1    1
    23     2     1    2
    24    41    39   am
    25     1     3    1
    26     1    23    1
    27    40    39    2
    28    26    24    2
    29    39    38    1
    30    23    24    1
    31    24    25    1
    32    24    27    1
    33    38    42    2
    34    38    37    1
    35    27    28    1
    36    42    43    1
    37    37    36    1
    38    28    29    1
    39    43    44    2
    40    36    35    1
    41    36    44    1
    42    30    29    1
    43    30    35    1
    44    29    31    1
    45    35    33    1
    46    33    31    1
    47    33    34    1
    48    31    32    1
