@<TRIPOS>MOLECULE
1gzf_ADP_C_1.pdb
 27 29 0 0 0
SMALL
GASTEIGER

@<TRIPOS>ATOM
      1  PB         7.8980   37.3780   37.9790 P.3   1253  ADP1253     0.5373
      2  O1B        7.9090   36.2970   38.9880 O.3   1253  ADP1253    -0.1143
      3  O2B        7.2710   36.9460   36.7220 O.2   1253  ADP1253    -0.2221
      4  O3B        7.0270   38.3880   38.5420 O.3   1253  ADP1253    -0.1143
      5  PA        10.7270   37.5360   36.8460 P.3   1253  ADP1253     0.2231
      6  O1A       11.2230   36.1460   36.6440 O.2   1253  ADP1253    -0.5169
      7  O2A       11.9200   38.2830   37.2840 O.3   1253  ADP1253    -0.4370
      8  O3A        9.4110   37.8020   37.7350 O.3   1253  ADP1253    -0.2261
      9  O5'       10.1400   38.0760   35.4580 O.3   1253  ADP1253    -0.3111
     10  C5'        9.5530   39.4280   35.4550 C.3   1253  ADP1253     0.1813
     11  C4'        9.0340   39.5680   34.0200 C.3   1253  ADP1253     0.1821
     12  O4'       10.2040   39.2800   33.1970 O.3   1253  ADP1253    -0.3135
     13  C3'        7.9800   38.5030   33.7010 C.3   1253  ADP1253     0.2184
     14  O3'        6.8700   38.9470   32.9440 O.3   1253  ADP1253    -0.2174
     15  C2'        8.7540   37.3790   33.0510 C.3   1253  ADP1253     0.2570
     16  O2'        7.9790   36.5880   32.1660 O.3   1253  ADP1253    -0.2130
     17  C1'        9.9350   38.1210   32.4150 C.3   1253  ADP1253     0.3186
     18  N9        11.2000   37.3620   32.3550 N.pl3 1253  ADP1253    -0.1439
     19  C8        11.5840   36.2640   33.0690 C.3   1253  ADP1253     0.3377
     20  N7        12.7980   35.8420   32.7470 N.2   1253  ADP1253    -0.2095
     21  C5        13.2050   36.6970   31.7610 C.2   1253  ADP1253     0.2526
     22  C6        14.3970   36.7620   31.0030 C.2   1253  ADP1253     0.4393
     23  N6        15.3880   35.8880   31.1850 N.pl3 1253  ADP1253     0.2180
     24  N1        14.4880   37.7540   30.0850 N.2   1253  ADP1253     0.0021
     25  C2        13.4410   38.6240   29.9510 C.3   1253  ADP1253     0.5254
     26  N3        12.3050   38.6550   30.5860 N.2   1253  ADP1253    -0.0055
     27  C4        12.2400   37.6490   31.4960 C.2   1253  ADP1253     0.3518
@<TRIPOS>BOND
     1    25    24    1
     2    25    26    1
     3    24    22    2
     4    26    27    2
     5    22    23    1
     6    22    21    1
     7    27    21    1
     8    27    18    1
     9    21    20    2
    10    16    15    1
    11    18    17    1
    12    18    19    1
    13    17    15    1
    14    17    12    1
    15    20    19    1
    16    14    13    1
    17    15    13    1
    18    12    11    1
    19    13    11    1
    20    11    10    1
    21    10     9    1
    22     9     5    1
    23     6     5    2
    24     3     1    2
    25     5     7    1
    26     5     8    1
    27     8     1    1
    28     1     4    1
    29     1     2    1
