@<TRIPOS>MOLECULE
1gzf_NIR_C_1.pdb
 17 18 0 0 0
SMALL
GASTEIGER

@<TRIPOS>ATOM
      1  N1         6.5540   33.4360   37.7810 N.am  1252  NIR1252    -0.0839
      2  C4         6.2750   34.0140   40.6720 C.3   1252  NIR1252     0.1244
      3  C5         6.0580   32.7800   40.0910 C.2   1252  NIR1252     0.0544
      4  C6         5.8010   32.6260   38.5710 C.2   1252  NIR1252     0.2818
      5  O6         4.9700   31.8780   38.1210 O.2   1252  NIR1252    -0.2670
      6  C8         6.5330   33.0200   42.8470 C.2   1252  NIR1252     0.0633
      7  N9         6.4850   34.1400   42.0190 N.pl3 1252  NIR1252    -0.2787
      8  C1'        6.6250   35.5000   42.3960 C.3   1252  NIR1252     0.2262
      9  C2'        6.5470   36.3140   43.5970 C.3   1252  NIR1252     0.2308
     10  O2'        5.3460   36.1740   44.3540 O.3   1252  NIR1252    -0.2158
     11  C3'        6.8560   37.7450   43.1160 C.3   1252  NIR1252     0.2133
     12  C4N        6.0910   31.6060   40.8640 C.2   1252  NIR1252     0.0033
     13  O3'        5.6410   38.4780   42.9410 O.3   1252  NIR1252    -0.2176
     14  C4'        7.4090   37.5480   41.6980 C.3   1252  NIR1252     0.1501
     15  C5N        6.3620   31.8520   42.2220 C.2   1252  NIR1252     0.0157
     16  O4'        6.8130   36.2990   41.2860 O.3   1252  NIR1252    -0.3353
     17  C5'        8.8740   37.5160   41.4090 C.3   1252  NIR1252     0.0349
@<TRIPOS>BOND
     1     1     4   am
     2     5     4    2
     3     4     3    1
     4     3     2    1
     5     3    12    2
     6     2     7    1
     7    12    15    1
     8    16    14    1
     9    16     8    1
    10    17    14    1
    11    14    11    1
    12     7     8    1
    13     7     6    1
    14    15     6    2
    15     8     9    1
    16    13    11    1
    17    11     9    1
    18     9    10    1
