@<TRIPOS>MOLECULE
1gzm_C8E_A_1.pdb
 17 16 0 0 0
SMALL
GASTEIGER

@<TRIPOS>ATOM
      1  C1        31.3520   20.4100   11.3070 C.3   1343  C8E1343     0.0000
      2  C2        30.8360   21.5550   12.1670 C.3   1343  C8E1343     0.0000
      3  C3        31.8210   22.7200   12.3470 C.3   1343  C8E1343     0.0000
      4  C4        32.8940   22.4080   13.3980 C.3   1343  C8E1343     0.0000
      5  C5        34.2850   22.8070   12.9160 C.3   1343  C8E1343     0.0001
      6  C6        35.2230   21.6030   12.8340 C.3   1343  C8E1343     0.0026
      7  C7        36.6220   21.9570   13.3240 C.3   1343  C8E1343     0.0321
      8  C8        37.4650   20.7160   13.4800 C.3   1343  C8E1343     0.1423
      9  O9        38.0280   20.6870   14.7920 O.3   1343  C8E1343    -0.3511
     10  C10       39.4580   20.6380   14.8220 C.3   1343  C8E1343     0.1741
     11  C11       40.0080   21.8230   15.5680 C.3   1343  C8E1343     0.1742
     12  O12       40.9370   22.5500   14.7530 O.3   1343  C8E1343    -0.3484
     13  C13       40.4830   23.8660   14.4140 C.3   1343  C8E1343     0.1742
     14  C14       41.4990   24.8940   14.7770 C.3   1343  C8E1343     0.1741
     15  O15       41.4540   25.9940   13.8690 O.3   1343  C8E1343    -0.3511
     16  C16       40.8390   27.1480   14.4490 C.3   1343  C8E1343     0.1424
     17  C17       41.8280   28.2360   14.6710 C.3   1343  C8E1343     0.0346
@<TRIPOS>BOND
     1     1     2    1
     2     2     3    1
     3     3     4    1
     4     6     5    1
     5     6     7    1
     6     5     4    1
     7     7     8    1
     8     8     9    1
     9    15    16    1
    10    15    14    1
    11    13    12    1
    12    13    14    1
    13    16    17    1
    14    12    11    1
    15     9    10    1
    16    10    11    1
