@<TRIPOS>MOLECULE
1gzm_RET_A_1.pdb
 20 20 0 0 0
SMALL
GASTEIGER

@<TRIPOS>ATOM
      1  C1        33.8140   23.7250   -1.6470 C.3   1332  RET1332     0.0183
      2  C2        33.7130   22.1930   -1.6500 C.3   1332  RET1332     0.0044
      3  C3        34.9190   21.4510   -1.1310 C.3   1332  RET1332     0.0047
      4  C4        36.2460   21.9330   -1.7550 C.3   1332  RET1332     0.0217
      5  C5        36.3690   23.4470   -1.8220 C.2   1332  RET1332    -0.0479
      6  C6        35.2810   24.2750   -1.7450 C.2   1332  RET1332    -0.0307
      7  C7        35.3800   25.7800   -1.7260 C.2   1332  RET1332    -0.0052
      8  C8        36.1070   26.4940   -0.8550 C.2   1332  RET1332    -0.0046
      9  C9        36.2640   27.9380   -0.7310 C.2   1332  RET1332    -0.0219
     10  C10       37.1070   28.3340    0.2470 C.2   1332  RET1332    -0.0043
     11  C11       37.4790   29.6900    0.6010 C.2   1332  RET1332    -0.0007
     12  C12       38.2670   30.1370    1.6000 C.2   1332  RET1332    -0.0046
     13  C13       38.8630   29.5140    2.8110 C.2   1332  RET1332    -0.0261
     14  C14       39.7380   30.2910    3.5190 C.2   1332  RET1332    -0.0300
     15  C15       40.3800   29.9040    4.7850 C.3   1332  RET1332     0.0304
     16  C16       32.9710   24.1760   -2.8260 C.3   1332  RET1332     0.0043
     17  C17       33.1070   24.2840   -0.4080 C.3   1332  RET1332     0.0043
     18  C18       37.8260   23.8420   -1.8750 C.3   1332  RET1332     0.0260
     19  C19       35.4900   28.8550   -1.6670 C.3   1332  RET1332     0.0310
     20  C20       38.5140   28.1180    3.2850 C.3   1332  RET1332     0.0307
@<TRIPOS>BOND
     1    16     1    1
     2    18     5    1
     3     5     4    1
     4     5     6    2
     5     4     3    1
     6     6     7    1
     7     6     1    1
     8     7     8    2
     9    19     9    1
    10     2     1    1
    11     2     3    1
    12     1    17    1
    13     8     9    1
    14     9    10    2
    15    10    11    1
    16    11    12    2
    17    12    13    1
    18    13    20    1
    19    13    14    2
    20    14    15    1
