@<TRIPOS>MOLECULE
1gzr_C15_B_1.pdb
 20 19 0 0 0
SMALL
GASTEIGER

@<TRIPOS>ATOM
      1  C1        19.9890    6.9320   31.1990 C.3   1067  C151067     0.1067
      2  C2        20.0580    8.3150   30.5210 C.3   1067  C151067     0.0403
      3  C3        21.4560    8.6010   29.9450 C.3   1067  C151067     0.0904
      4  C5        18.8900   19.1980   38.3110 C.3   1067  C151067     0.0000
      5  C6        17.5950   18.4610   38.1540 C.3   1067  C151067     0.0000
      6  C7        17.4430   18.1490   36.6820 C.3   1067  C151067     0.0000
      7  C8        17.5480   16.6710   36.3760 C.3   1067  C151067     0.0000
      8  N1        21.6610   10.0070   29.6000 N.3   1067  C151067    -0.2180
      9  C9        17.3230   16.5970   34.8850 C.3   1067  C151067     0.0000
     10  C10       17.7750   15.2610   34.3390 C.3   1067  C151067     0.0000
     11  C11       19.0000   15.4990   33.4800 C.3   1067  C151067     0.0000
     12  C12       19.6980   14.1750   33.2540 C.3   1067  C151067     0.0000
     13  C13       19.5090   13.6930   31.8290 C.3   1067  C151067     0.0000
     14  C14       20.2300   12.3540   31.6550 C.3   1067  C151067     0.0015
     15  C15       20.8170   12.2340   30.2560 C.3   1067  C151067     0.0188
     16  C16       20.5040   10.8850   29.6180 C.3   1067  C151067     0.0887
     17  S1        18.3950    6.5500   31.9730 S.3   1067  C151067    -0.1960
     18  O1S       18.6470    5.5320   32.9480 O.3   1067  C151067    -0.3075
     19  O2S       17.8240    7.6710   32.6360 O.3   1067  C151067    -0.3075
     20  O3S       17.3220    5.8110   30.7900 O.3   1067  C151067    -0.3075
@<TRIPOS>BOND
     1     8    16    1
     2     8     3    1
     3    16    15    1
     4     3     2    1
     5    15    14    1
     6     2     1    1
     7    20    17    1
     8     1    17    1
     9    14    13    1
    10    13    12    1
    11    17    19    1
    12    17    18    1
    13    12    11    1
    14    11    10    1
    15    10     9    1
    16     9     7    1
    17     7     6    1
    18     6     5    1
    19     5     4    1
