@<TRIPOS>MOLECULE
1gzt_FUC_A_1.pdb
 11 11 0 0 0
SMALL
GASTEIGER

@<TRIPOS>ATOM
      1  C1        28.9680   17.5310   59.8990 C.2   201  FUC201      0.3504
      2  C2        28.1130   18.2940   58.9320 C.3   201  FUC201      0.2822
      3  C3        27.8810   19.6170   59.6260 C.3   201  FUC201      0.2269
      4  C4        29.2040   20.2620   59.9530 C.3   201  FUC201      0.2249
      5  C5        30.0770   19.2880   60.7310 C.3   201  FUC201      0.2018
      6  C6        31.4540   19.8740   60.9980 C.3   201  FUC201      0.0502
      7  O1        28.2820   17.0690   61.0040 O.2   201  FUC201     -0.2472
      8  O2        26.8330   17.7150   58.6390 O.3   201  FUC201     -0.2082
      9  O3        27.1190   20.4600   58.7580 O.3   201  FUC201     -0.2169
     10  O4        29.7920   20.6650   58.7110 O.3   201  FUC201     -0.2164
     11  O5        30.2030   18.0490   60.0440 O.3   201  FUC201     -0.4477
@<TRIPOS>BOND
     1     8     2    1
     2    10     4    1
     3     9     3    1
     4     2     3    1
     5     2     1    1
     6     3     4    1
     7     1    11    1
     8     1     7    2
     9     4     5    1
    10    11     5    1
    11     5     6    1
