@<TRIPOS>MOLECULE
1gzu_NMN_A_1.pdb
 22 23 0 0 0
SMALL
GASTEIGER

@<TRIPOS>ATOM
      1  O3P      -19.2770   61.1830   37.1890 O.3   501  NMN501     -0.1145
      2  P        -17.9170   61.0230   37.7970 P.3   501  NMN501      0.5327
      3  O1P      -16.9730   60.9860   36.6200 O.2   501  NMN501     -0.2224
      4  O2P      -17.7110   62.0560   38.9080 O.3   501  NMN501     -0.1145
      5  O5R      -17.7670   59.5780   38.5520 O.3   501  NMN501     -0.2671
      6  C5R      -16.4970   58.9180   38.5550 C.3   501  NMN501      0.1913
      7  C4R      -16.3990   57.8460   39.6060 C.3   501  NMN501      0.2116
      8  O4R      -15.1640   57.1990   40.0140 O.3   501  NMN501     -0.3235
      9  C3R      -17.3780   57.4920   40.3940 C.2   501  NMN501      0.2410
     10  O3R      -18.4210   57.1200   39.9130 O.2   501  NMN501     -0.2855
     11  C2R      -16.8610   56.9140   41.4870 C.2   501  NMN501      0.2565
     12  O2R      -17.5520   56.2910   42.2870 O.2   501  NMN501     -0.2837
     13  C1R      -15.5130   56.8360   41.3690 C.3   501  NMN501      0.2601
     14  N1       -14.5780   56.9030   42.3920 N.pl3 501  NMN501     -0.2745
     15  C2       -14.0500   55.7680   42.8760 C.3   501  NMN501      0.1247
     16  C3       -13.1080   55.7660   43.8980 C.2   501  NMN501      0.0544
     17  C7       -12.5830   54.4630   44.4020 C.2   501  NMN501      0.2818
     18  O7       -12.9640   53.4190   43.9100 O.2   501  NMN501     -0.2670
     19  N7       -11.6790   54.4730   45.3710 N.am  501  NMN501     -0.0839
     20  C4       -12.6570   56.9600   44.4370 C.2   501  NMN501      0.0033
     21  C5       -13.1900   58.1340   43.9150 C.2   501  NMN501      0.0157
     22  C6       -14.1570   58.0810   42.8940 C.2   501  NMN501      0.0636
@<TRIPOS>BOND
     1     3     2    2
     2     1     2    1
     3     2     5    1
     4     2     4    1
     5     5     6    1
     6     6     7    1
     7     7     8    1
     8     7     9    1
     9    10     9    2
    10     8    13    1
    11     9    11    1
    12    13    11    1
    13    13    14    1
    14    11    12    2
    15    14    15    1
    16    14    22    1
    17    15    16    1
    18    22    21    2
    19    16    17    1
    20    16    20    2
    21    18    17    2
    22    21    20    1
    23    17    19   am
