@<TRIPOS>MOLECULE
1gzv_PA5_A_1.pdb
 15 14 0 0 0
SMALL
GASTEIGER

@<TRIPOS>ATOM
      1  O1A       45.8360   30.7640   46.6180 O.co2 600  PA5600     -0.2427
      2  C1        45.6520   31.1040   47.7770 C.2   600  PA5600      0.3973
      3  O1        45.2830   30.2860   48.5850 O.co2 600  PA5600     -0.2427
      4  C2        45.8440   32.5050   48.2360 C.3   600  PA5600      0.2865
      5  O2        46.1920   33.2270   47.0900 O.3   600  PA5600     -0.2080
      6  C3        44.4950   33.0690   48.6280 C.3   600  PA5600      0.2259
      7  O3        43.8620   33.4050   47.4050 O.3   600  PA5600     -0.2169
      8  C4        44.5980   34.3550   49.4420 C.3   600  PA5600      0.2152
      9  O4        45.4640   34.1680   50.5490 O.3   600  PA5600     -0.2176
     10  C5        43.2380   34.8270   49.9570 C.3   600  PA5600      0.1892
     11  O5        42.6810   33.8480   50.8520 O.3   600  PA5600     -0.2674
     12  P         41.1920   34.0940   51.4230 P.3   600  PA5600      0.5327
     13  O1P       40.9980   33.1050   52.5160 O.3   600  PA5600     -0.1145
     14  O2P       41.1710   35.5070   51.9680 O.3   600  PA5600     -0.1145
     15  O3P       40.3450   33.6960   50.2390 O.2   600  PA5600     -0.2224
@<TRIPOS>BOND
     1     1     2   ar
     2     5     4    1
     3     7     6    1
     4     2     4    1
     5     2     3   ar
     6     4     6    1
     7     6     8    1
     8     8    10    1
     9     8     9    1
    10    10    11    1
    11    15    12    2
    12    11    12    1
    13    12    14    1
    14    12    13    1
