@<TRIPOS>MOLECULE
1gzw_BGC_A_1.pdb
 12 12 0 0 0
SMALL
GASTEIGER

@<TRIPOS>ATOM
      1  C2        57.0960   24.5260   21.7090 C.3   4001  BGC4001     0.2434
      2  C3        56.9720   26.0250   22.0360 C.3   4001  BGC4001     0.2199
      3  C4        57.0920   26.1730   23.5730 C.3   4001  BGC4001     0.2144
      4  C5        58.4470   25.5800   24.0740 C.3   4001  BGC4001     0.1836
      5  C6        58.6360   25.6400   25.5890 C.3   4001  BGC4001     0.2142
      6  C1        58.4470   23.9930   22.2310 C.3   4001  BGC4001     0.3024
      7  O1        58.5440   22.6330   21.9500 O.3   4001  BGC4001    -0.1869
      8  O2        57.0120   24.3430   20.2910 O.3   4001  BGC4001    -0.2148
      9  O3        55.6520   26.4180   21.6440 O.3   4001  BGC4001    -0.2174
     10  O4        56.9690   27.5740   23.9330 O.3   4001  BGC4001    -0.2176
     11  O5        58.5620   24.1810   23.6660 O.3   4001  BGC4001    -0.3236
     12  O6        57.6110   24.9190   26.2790 O.3   4001  BGC4001    -0.2176
@<TRIPOS>BOND
     1     8     1    1
     2     9     2    1
     3     1     2    1
     4     1     6    1
     5     7     6    1
     6     2     3    1
     7     6    11    1
     8     3    10    1
     9     3     4    1
    10    11     4    1
    11     4     5    1
    12     5    12    1
