@<TRIPOS>MOLECULE
1gzw_GAL_A_1.pdb
 11 11 0 0 0
SMALL
GASTEIGER

@<TRIPOS>ATOM
      1  C1        56.0730   27.9610   24.9380 C.3   4000  GAL4000     0.1777
      2  C2        56.1650   29.4980   25.0970 C.3   4000  GAL4000     0.2141
      3  C3        55.1830   29.9250   26.2120 C.3   4000  GAL4000     0.2173
      4  C4        53.7510   29.5350   25.7820 C.3   4000  GAL4000     0.2142
      5  C5        53.7250   28.0010   25.5930 C.3   4000  GAL4000     0.1810
      6  C6        52.3570   27.5210   25.1220 C.3   4000  GAL4000     0.2141
      7  O2        57.4970   29.8360   25.4740 O.3   4000  GAL4000    -0.2176
      8  O3        55.2530   31.3410   26.3710 O.3   4000  GAL4000    -0.2175
      9  O4        53.4160   30.2030   24.5660 O.3   4000  GAL4000    -0.2176
     10  O5        54.7130   27.6000   24.5810 O.3   4000  GAL4000    -0.3481
     11  O6        52.4020   26.1030   24.9680 O.3   4000  GAL4000    -0.2176
@<TRIPOS>BOND
     1     9     4    1
     2    10     1    1
     3    10     5    1
     4     1     2    1
     5    11     6    1
     6     2     7    1
     7     2     3    1
     8     6     5    1
     9     5     4    1
    10     4     3    1
    11     3     8    1
