@<TRIPOS>MOLECULE
1gzx_HEM_A_1.pdb
 43 50 0 0 0
SMALL
GASTEIGER

@<TRIPOS>ATOM
      1 FE         15.8170   16.2790   14.6820 Fe    1142  HEM1142     0.0000
      2  CHA       17.7350   18.7860   16.2390 C.2   1142  HEM1142     0.0000
      3  CHB       18.1030   16.2370   12.1570 C.2   1142  HEM1142     0.0000
      4  CHC       14.1450   13.6530   13.2640 C.2   1142  HEM1142     0.0000
      5  CHD       13.4370   16.6420   17.0300 C.2   1142  HEM1142     0.0000
      6  NA        17.6070   17.2370   14.3230 N.ar  1142  HEM1142     0.0000
      7  C1A       18.1180   18.2960   15.0230 C.ar  1142  HEM1142     0.0000
      8  C2A       19.1180   18.8930   14.2100 C.ar  1142  HEM1142     0.0000
      9  C3A       19.2870   18.2240   13.0970 C.ar  1142  HEM1142     0.0000
     10  C4A       18.3390   17.1660   13.1440 C.ar  1142  HEM1142     0.0000
     11  CMA       20.2630   18.4630   11.9360 C.3   1142  HEM1142     0.0000
     12  CAA       19.8460   20.1350   14.7830 C.3   1142  HEM1142     0.0000
     13  CBA       20.9420   19.5900   15.7520 C.3   1142  HEM1142     0.0000
     14  CGA       22.0450   20.6460   15.7910 C.2   1142  HEM1142     0.0000
     15  O1A       21.8240   21.8710   16.0800 O.co2 1142  HEM1142     0.0000
     16  O2A       23.1700   20.1390   15.4360 O.co2 1142  HEM1142     0.0000
     17  NB        16.0810   15.1680   13.0290 N.2   1142  HEM1142     0.0000
     18  C1B       17.0410   15.3450   12.0640 C.2   1142  HEM1142     0.0000
     19  C2B       16.8110   14.4790   10.9400 C.2   1142  HEM1142     0.0000
     20  C3B       15.7380   13.7400   11.2360 C.2   1142  HEM1142     0.0000
     21  C4B       15.2730   14.1530   12.5380 C.2   1142  HEM1142     0.0000
     22  CMB       17.7730   14.4260    9.7100 C.3   1142  HEM1142     0.0000
     23  CAB       15.0750   12.7120   10.3150 C.2   1142  HEM1142     0.0000
     24  CBB       14.7400   11.4940   10.5370 C.2   1142  HEM1142     0.0000
     25  NC        14.0890   15.2940   15.1350 N.ar  1142  HEM1142     0.0000
     26  C1C       13.4840   14.2750   14.3720 C.ar  1142  HEM1142     0.0000
     27  C2C       12.1590   14.0250   14.8720 C.ar  1142  HEM1142     0.0000
     28  C3C       11.9470   14.8670   15.8780 C.ar  1142  HEM1142     0.0000
     29  C4C       13.1720   15.6500   16.0870 C.ar  1142  HEM1142     0.0000
     30  CMC       11.2480   12.9460   14.2680 C.3   1142  HEM1142     0.0000
     31  CAC       10.7140   15.0430   16.8290 C.2   1142  HEM1142     0.0000
     32  CBC        9.4210   14.9430   16.4650 C.2   1142  HEM1142     0.0000
     33  ND        15.6310   17.4320   16.3260 N.2   1142  HEM1142     0.0000
     34  C1D       14.5040   17.4970   17.1650 C.2   1142  HEM1142     0.0000
     35  C2D       14.6740   18.5720   18.1150 C.2   1142  HEM1142     0.0000
     36  C3D       15.8850   19.1200   17.8560 C.2   1142  HEM1142     0.0000
     37  C4D       16.4850   18.4380   16.7360 C.2   1142  HEM1142     0.0000
     38  CMD       13.6930   19.0030   19.2430 C.3   1142  HEM1142     0.0000
     39  CAD       16.5630   20.3300   18.5480 C.3   1142  HEM1142     0.0000
     40  CBD       15.7710   21.5580   18.0610 C.3   1142  HEM1142     0.0000
     41  CGD       16.3140   22.7230   18.8260 C.2   1142  HEM1142     0.0000
     42  O1D       16.6740   23.6950   18.1530 O.co2 1142  HEM1142     0.0000
     43  O2D       16.3970   22.6270   20.0760 O.co2 1142  HEM1142     0.0000
@<TRIPOS>BOND
     1    22    19    1
     2    23    24    2
     3    23    20    1
     4    19    20    2
     5    19    18    1
     6    20    21    1
     7    11     9    1
     8    18     3    1
     9    18    17    2
    10     3    10    2
    11    21    17    1
    12    21     4    2
    13    17     1    1
    14     9    10   ar
    15     9     8   ar
    16    10     6   ar
    17     4    26    1
    18     8    12    1
    19     8     7   ar
    20    30    27    1
    21     6     1    1
    22     6     7   ar
    23    26    27   ar
    24    26    25   ar
    25     1    25    1
    26     1    33    1
    27    12    13    1
    28    27    28   ar
    29     7     2    2
    30    25    29   ar
    31    16    14   ar
    32    13    14    1
    33    14    15   ar
    34    28    29   ar
    35    28    31    1
    36    29     5    1
    37     2    37    1
    38    33    37    2
    39    33    34    1
    40    32    31    2
    41    37    36    1
    42     5    34    2
    43    34    35    1
    44    36    35    2
    45    36    39    1
    46    40    39    1
    47    40    41    1
    48    35    38    1
    49    42    41   ar
    50    41    43   ar
