@<TRIPOS>MOLECULE
1gzy_C15_B_1.pdb
 20 19 0 0 0
SMALL
GASTEIGER

@<TRIPOS>ATOM
      1  C1        20.1170    6.8100   31.3250 C.3   1067  C151067     0.1067
      2  C2        20.1330    8.2850   30.9340 C.3   1067  C151067     0.0403
      3  C3        21.1130    8.5460   29.7910 C.3   1067  C151067     0.0904
      4  C5        18.2300   19.2440   38.1370 C.3   1067  C151067     0.0000
      5  C6        18.2980   17.7400   37.9990 C.3   1067  C151067     0.0000
      6  C7        17.3100   17.2210   36.9540 C.3   1067  C151067     0.0000
      7  C8        17.8890   16.0110   36.2220 C.3   1067  C151067     0.0000
      8  N1        21.5170    9.9380   29.7070 N.3   1067  C151067    -0.2180
      9  C9        18.2830   16.3530   34.7910 C.3   1067  C151067     0.0000
     10  C10       18.4330   15.0740   33.9700 C.3   1067  C151067     0.0000
     11  C11       19.4870   15.2180   32.8860 C.3   1067  C151067     0.0000
     12  C12       20.2130   13.9050   32.5990 C.3   1067  C151067     0.0000
     13  C13       19.8440   13.3850   31.2150 C.3   1067  C151067     0.0000
     14  C14       20.7910   12.2910   30.7550 C.3   1067  C151067     0.0015
     15  C15       20.8240   12.2390   29.2340 C.3   1067  C151067     0.0188
     16  C16       20.9190   10.8100   28.7190 C.3   1067  C151067     0.0887
     17  S1        18.4590    6.3300   31.8010 S.3   1067  C151067    -0.1960
     18  O1S       18.5380    5.2940   32.7960 O.3   1067  C151067    -0.3075
     19  O2S       17.7560    7.4770   32.3360 O.3   1067  C151067    -0.3075
     20  O3S       17.6050    5.6880   30.4000 O.3   1067  C151067    -0.3075
@<TRIPOS>BOND
     1    16    15    1
     2    16     8    1
     3    15    14    1
     4     8     3    1
     5     3     2    1
     6    20    17    1
     7    14    13    1
     8     2     1    1
     9    13    12    1
    10     1    17    1
    11    17    19    1
    12    17    18    1
    13    12    11    1
    14    11    10    1
    15    10     9    1
    16     9     7    1
    17     7     6    1
    18     6     5    1
    19     5     4    1
