@<TRIPOS>MOLECULE
1gzz_C15_B_1.pdb
 20 19 0 0 0
SMALL
GASTEIGER

@<TRIPOS>ATOM
      1  C1        20.0590    6.4730   31.3750 C.3   1067  C151067     0.1067
      2  C2        20.5550    7.9110   31.4780 C.3   1067  C151067     0.0403
      3  C3        20.3320    8.6620   30.1700 C.3   1067  C151067     0.0904
      4  C5        18.3800   19.0140   37.6840 C.3   1067  C151067     0.0000
      5  C6        17.4090   17.8760   37.9020 C.3   1067  C151067     0.0000
      6  C7        17.1400   17.0860   36.6210 C.3   1067  C151067     0.0000
      7  C8        18.4200   16.5400   36.0030 C.3   1067  C151067     0.0000
      8  N1        21.3470    9.6840   29.9710 N.3   1067  C151067    -0.2180
      9  C9        18.3410   16.6590   34.4860 C.3   1067  C151067     0.0000
     10  C10       18.2450   15.2730   33.8730 C.3   1067  C151067     0.0000
     11  C11       19.0870   15.1930   32.6220 C.3   1067  C151067     0.0000
     12  C12       19.9480   13.9350   32.6110 C.3   1067  C151067     0.0000
     13  C13       19.6700   13.2290   31.2930 C.3   1067  C151067     0.0000
     14  C14       20.7930   12.3150   30.8350 C.3   1067  C151067     0.0015
     15  C15       20.4640   11.9300   29.3990 C.3   1067  C151067     0.0188
     16  C16       21.1920   10.6810   28.9280 C.3   1067  C151067     0.0887
     17  S1        18.4630    6.3370   32.1780 S.3   1067  C151067    -0.1960
     18  O1S       18.6270    5.4520   33.3010 O.3   1067  C151067    -0.3075
     19  O2S       17.9460    7.6200   32.6000 O.3   1067  C151067    -0.3075
     20  O3S       17.2940    5.6670   31.0440 O.3   1067  C151067    -0.3075
@<TRIPOS>BOND
     1    16    15    1
     2    16     8    1
     3    15    14    1
     4     8     3    1
     5     3     2    1
     6    14    13    1
     7    20    17    1
     8    13    12    1
     9     1     2    1
    10     1    17    1
    11    17    19    1
    12    17    18    1
    13    12    11    1
    14    11    10    1
    15    10     9    1
    16     9     7    1
    17     7     6    1
    18     6     5    1
    19     4     5    1
