@<TRIPOS>MOLECULE
1h00_FCP_A_1.pdb
 30 32 0 0 0
SMALL
GASTEIGER

@<TRIPOS>ATOM
      1  C22        3.7950   28.5970    6.0100 C.ar  1400  FCP1400     0.0475
      2  C1         0.3260   33.1000    7.8560 C.3   1400  FCP1400     0.5247
      3  C5         1.6140   31.1970    7.6890 C.2   1400  FCP1400     0.3541
      4  C4         0.7130   30.5170    8.5790 C.3   1400  FCP1400     0.2416
      5  C3        -0.4010   31.2770    9.0660 C.2   1400  FCP1400     0.3543
      6  C17        3.4120   29.2380    7.2190 C.ar  1400  FCP1400     0.1833
      7  C18        3.6480   28.5750    8.4680 C.ar  1400  FCP1400     0.0475
      8  C19        4.2480   27.2990    8.5010 C.ar  1400  FCP1400     0.0405
      9  C20        4.6280   26.6560    7.2930 C.ar  1400  FCP1400     0.1389
     10  N2        -0.5690   32.5630    8.6890 N.2   1400  FCP1400    -0.0073
     11  N6         1.3960   32.4840    7.3450 N.2   1400  FCP1400    -0.0073
     12  N7        -1.3980   30.7320    9.9800 N.pl3 1400  FCP1400    -0.0047
     13  N16        2.7940   30.5570    7.1260 N.pl3 1400  FCP1400    -0.0094
     14  C21        4.3990   27.3140    6.0420 C.ar  1400  FCP1400     0.0405
     15  O23        5.2070   25.3980    7.4400 O.3   1400  FCP1400    -0.4727
     16  C24        4.4640   24.1590    7.6170 C.3   1400  FCP1400     0.2394
     17  C11       -3.0410   27.0090   11.5200 C.ar  1400  FCP1400     0.0049
     18  C10       -3.7160   28.2430   11.6750 C.ar  1400  FCP1400     0.0335
     19  C9        -3.1520   29.4400   11.1590 C.ar  1400  FCP1400     0.1831
     20  C8        -1.8930   29.4200   10.4730 C.ar  1400  FCP1400     0.2373
     21  C12       -1.7990   26.9590   10.8480 C.ar  1400  FCP1400     0.0335
     22  C13       -1.2160   28.1420   10.3240 C.ar  1400  FCP1400     0.1831
     23  F14       -3.8410   30.6100   11.3340 F     1400  FCP1400    -0.2003
     24  F15       -0.0180   28.0090    9.6920 F     1400  FCP1400    -0.2003
     25  C25        5.3350   22.9020    7.8250 C.3   1400  FCP1400     0.2112
     26  C26        6.5250   22.6910    6.8600 C.3   1400  FCP1400     0.1094
     27  N27        6.4350   21.5150    5.9360 N.3   1400  FCP1400    -0.2681
     28  C28        6.8330   20.2330    6.5790 C.3   1400  FCP1400     0.0897
     29  C29        7.2220   21.7260    4.6860 C.3   1400  FCP1400     0.0897
     30  O30        5.7560   22.8240    9.1850 O.3   1400  FCP1400    -0.2176
@<TRIPOS>BOND
     1    29    27    1
     2    27    28    1
     3    27    26    1
     4     1    14   ar
     5     1     6   ar
     6    14     9   ar
     7    26    25    1
     8    13     6    1
     9    13     3    1
    10     6     7   ar
    11     9    15    1
    12     9     8   ar
    13    11     3    2
    14    11     2    1
    15    15    16    1
    16    16    25    1
    17     3     4    1
    18    25    30    1
    19     2    10    1
    20     7     8   ar
    21     4     5    1
    22    10     5    2
    23     5    12    1
    24    24    22    1
    25    12    20    1
    26    22    20   ar
    27    22    21   ar
    28    20    19   ar
    29    21    17   ar
    30    19    23    1
    31    19    18   ar
    32    17    18   ar
