@<TRIPOS>MOLECULE
1h00_FAP_A_1.pdb
 30 32 0 0 0
SMALL
GASTEIGER

@<TRIPOS>ATOM
      1  C22        3.7950   28.5970    6.0100 C.ar  1300  FAP1300     0.0475
      2  C1         0.3260   33.1000    7.8560 C.3   1300  FAP1300     0.5247
      3  C5         1.6140   31.1970    7.6890 C.2   1300  FAP1300     0.3541
      4  C4         0.7130   30.5170    8.5790 C.3   1300  FAP1300     0.2416
      5  C3        -0.4010   31.2770    9.0660 C.2   1300  FAP1300     0.3543
      6  C17        3.4120   29.2380    7.2190 C.ar  1300  FAP1300     0.1833
      7  C18        3.6480   28.5750    8.4680 C.ar  1300  FAP1300     0.0475
      8  C19        4.2480   27.2990    8.5010 C.ar  1300  FAP1300     0.0405
      9  C20        4.6280   26.6560    7.2930 C.ar  1300  FAP1300     0.1389
     10  N2        -0.5690   32.5630    8.6890 N.2   1300  FAP1300    -0.0073
     11  N6         1.3960   32.4840    7.3450 N.2   1300  FAP1300    -0.0073
     12  N7        -1.3980   30.7320    9.9800 N.pl3 1300  FAP1300    -0.0047
     13  N16        2.7940   30.5570    7.1260 N.pl3 1300  FAP1300    -0.0094
     14  C21        4.3990   27.3140    6.0420 C.ar  1300  FAP1300     0.0405
     15  O23        5.2070   25.3980    7.4400 O.3   1300  FAP1300    -0.4727
     16  C24        4.4640   24.1590    7.6170 C.3   1300  FAP1300     0.2394
     17  C11       -1.7340   27.4480   12.7920 C.ar  1300  FAP1300     0.0049
     18  C10       -2.8640   27.9370   12.0910 C.ar  1300  FAP1300     0.0335
     19  C9        -2.7310   29.0150   11.1770 C.ar  1300  FAP1300     0.1831
     20  C8        -1.4540   29.6170   10.9470 C.ar  1300  FAP1300     0.2373
     21  C12       -0.4620   28.0280   12.5840 C.ar  1300  FAP1300     0.0335
     22  C13       -0.3090   29.1050   11.6740 C.ar  1300  FAP1300     0.1831
     23  F14       -3.8490   29.4590   10.5210 F     1300  FAP1300    -0.2003
     24  F15        0.9450   29.6210   11.5160 F     1300  FAP1300    -0.2003
     25  C25        5.3960   22.9350    7.6620 C.3   1300  FAP1300     0.2112
     26  C26        4.7670   21.5370    7.4440 C.3   1300  FAP1300     0.1094
     27  N27        5.6170   20.3410    7.7610 N.3   1300  FAP1300    -0.2681
     28  C28        6.4420   19.8810    6.6120 C.3   1300  FAP1300     0.0897
     29  C29        4.8050   19.2050    8.2910 C.3   1300  FAP1300     0.0897
     30  O30        6.2510   22.9720    8.7540 O.3   1300  FAP1300    -0.2176
@<TRIPOS>BOND
     1     1    14   ar
     2     1     6   ar
     3    14     9   ar
     4    28    27    1
     5    13     6    1
     6    13     3    1
     7     6     7   ar
     8     9    15    1
     9     9     8   ar
    10    11     3    2
    11    11     2    1
    12    15    16    1
    13    26    25    1
    14    26    27    1
    15    16    25    1
    16    25    30    1
    17     3     4    1
    18    27    29    1
    19     2    10    1
    20     7     8   ar
    21     4     5    1
    22    10     5    2
    23     5    12    1
    24    12    20    1
    25    23    19    1
    26    20    19   ar
    27    20    22   ar
    28    19    18   ar
    29    24    22    1
    30    22    21   ar
    31    18    17   ar
    32    21    17   ar
