@<TRIPOS>MOLECULE
1h01_FBL_A_1.pdb
 30 32 0 0 0
SMALL
GASTEIGER

@<TRIPOS>ATOM
      1  C22        3.8690   22.3600    7.9180 C.3   302  FBL302      0.2394
      2  N1         1.5450   30.6830    6.6430 N.2   302  FBL302     -0.1683
      3  C2         0.4460   31.3340    7.1190 C.2   302  FBL302      0.1158
      4  C6         1.7120   29.4100    7.0100 C.1   302  FBL302      0.1709
      5  C4        -0.2050   29.3310    8.2990 C.2   302  FBL302      0.2178
      6  C3        -0.5010   30.6900    7.9870 C.2   302  FBL302      0.0720
      7  N5         0.8880   28.7420    7.8090 N.2   302  FBL302     -0.3189
      8  C11       -0.8260   24.4910   10.4950 C.ar  302  FBL302      0.0123
      9  C10       -1.1770   25.5160   11.4070 C.ar  302  FBL302      0.0136
     10  C9        -1.2590   26.8640   10.9660 C.ar  302  FBL302      0.0730
     11  C8        -0.9960   27.1890    9.6070 C.ar  302  FBL302      0.0845
     12  C12       -0.5610   24.8170    9.1480 C.ar  302  FBL302      0.0590
     13  C17        3.4460   25.3620    8.1240 C.ar  302  FBL302      0.0383
     14  C16        2.9970   26.6680    7.8690 C.ar  302  FBL302      0.0205
     15  C13       -0.6460   26.1450    8.7120 C.ar  302  FBL302      0.0288
     16  C15        3.4140   27.3730    6.6980 C.ar  302  FBL302      0.0828
     17  C18        4.3400   24.7220    7.2150 C.ar  302  FBL302      0.1388
     18  C19        4.7680   25.4130    6.0500 C.ar  302  FBL302      0.0383
     19  C20        4.3130   26.7350    5.7920 C.ar  302  FBL302      0.0205
     20  O21        4.7750   23.4180    7.4730 O.3   302  FBL302     -0.4727
     21  N7        -1.0780   28.5690    9.1560 N.pl3 302  FBL302     -0.1819
     22  N14        2.8820   28.7260    6.5180 N.pl3 302  FBL302     -0.1357
     23 CL29       -1.6820   28.1000   12.1320 Cl    302  FBL302     -0.0809
     24 CL30       -0.1100   23.5850    7.9980 Cl    302  FBL302     -0.0822
     25  C23        4.6060   21.0550    8.2630 C.3   302  FBL302      0.2112
     26  C24        5.8480   21.1330    9.2420 C.3   302  FBL302      0.1094
     27  N25        5.5810   21.2720   10.7380 N.3   302  FBL302     -0.2681
     28  C26        6.7410   20.9090   11.5970 C.3   302  FBL302      0.0897
     29  C27        4.3810   20.4960   11.1860 C.3   302  FBL302      0.0897
     30  O28        5.0220   20.5300    7.0180 O.3   302  FBL302     -0.2176
@<TRIPOS>BOND
     1    19    18   ar
     2    19    16   ar
     3    18    17   ar
     4    22    16    1
     5    22     4    1
     6     2     4    2
     7     2     3    1
     8    16    14   ar
     9     4     7    2
    10    30    25    1
    11     3     6    2
    12    17    20    1
    13    17    13   ar
    14    20     1    1
    15     7     5    2
    16    14    13   ar
    17     1    25    1
    18     6     5    1
    19    24    12    1
    20    25    26    1
    21     5    21    1
    22    15    12   ar
    23    15    11   ar
    24    12     8   ar
    25    21    11    1
    26    26    27    1
    27    11    10   ar
    28     8     9   ar
    29    27    29    1
    30    27    28    1
    31    10     9   ar
    32    10    23    1
