@<TRIPOS>MOLECULE
1h02_C15_B_1.pdb
 20 18 0 0 0
SMALL
GASTEIGER

@<TRIPOS>ATOM
      1  C1        19.6720    6.7040   31.2170 C.3   1069  C151069     0.1053
      2  C2        19.8060    7.3540   29.8310 C.3   1069  C151069     0.0232
      3  C5        18.6890   19.3490   38.2100 C.3   1069  C151069     0.0000
      4  C6        17.3890   18.5830   38.1520 C.3   1069  C151069     0.0000
      5  C7        17.1460   18.1840   36.7070 C.3   1069  C151069     0.0000
      6  C8        17.7420   16.9220   36.1340 C.3   1069  C151069     0.0000
      7  N1        21.4080   10.3630   29.0560 N.3   1069  C151069    -0.2165
      8  C1N       22.1410    9.3700   29.8190 C.3   1069  C151069     0.1075
      9  C9        17.3180   16.9430   34.6920 C.3   1069  C151069     0.0000
     10  C10       17.6090   15.5800   34.1220 C.3   1069  C151069     0.0000
     11  C11       18.8100   15.7020   33.2200 C.3   1069  C151069     0.0000
     12  C12       19.3390   14.3040   33.0320 C.3   1069  C151069     0.0000
     13  C13       19.1100   13.8540   31.5990 C.3   1069  C151069     0.0000
     14  C14       19.8870   12.5370   31.4680 C.3   1069  C151069     0.0015
     15  C15       20.5450   12.4020   30.1020 C.3   1069  C151069     0.0188
     16  C16       20.2240   11.0270   29.5410 C.3   1069  C151069     0.0887
     17  S1        18.2550    6.4490   31.8770 S.3   1069  C151069    -0.1960
     18  O1S       18.5730    5.3580   32.7740 O.3   1069  C151069    -0.3075
     19  O2S       17.7090    7.6930   32.3810 O.3   1069  C151069    -0.3075
     20  O3S       17.5520    5.9540   30.6770 O.3   1069  C151069    -0.3075
@<TRIPOS>BOND
     1     7    16    1
     2     7     8    1
     3    16    15    1
     4     2     1    1
     5    15    14    1
     6    20    17    1
     7     1    17    1
     8    14    13    1
     9    13    12    1
    10    17    19    1
    11    17    18    1
    12    12    11    1
    13    11    10    1
    14    10     9    1
    15     9     6    1
    16     6     5    1
    17     5     4    1
    18     4     3    1
