@<TRIPOS>MOLECULE
1h07_MFQ_A_1.pdb
 33 35 0 0 0
SMALL
GASTEIGER

@<TRIPOS>ATOM
      1  C22        4.5590   26.6480    6.0840 C.ar  302  MFQ302      0.0405
      2  C1         0.3070   32.4400    7.5680 C.3   302  MFQ302      0.5246
      3  C5         1.7060   30.6460    7.2870 C.2   302  MFQ302      0.3540
      4  C4         0.7960   29.8520    8.1150 C.3   302  MFQ302      0.2378
      5  C3        -0.3650   30.4620    8.6430 C.2   302  MFQ302      0.3173
      6  C11       -0.7830   25.6330   11.1900 C.ar  302  MFQ302     -0.0211
      7  C10       -0.2790   26.7680   11.8550 C.ar  302  MFQ302      0.0059
      8  C9        -0.4630   28.0620   11.3120 C.ar  302  MFQ302      0.0712
      9  C8        -1.1650   28.2670   10.0790 C.ar  302  MFQ302      0.1455
     10  C12       -1.4830   25.8000    9.9600 C.ar  302  MFQ302     -0.0007
     11  C17       -2.6830   31.5500   10.7450 C.1   302  MFQ302      0.1259
     12  C16       -2.6520   30.3730    9.9560 C.3   302  MFQ302      0.3130
     13  C13       -1.6720   27.1080    9.4060 C.ar  302  MFQ302      0.0405
     14  C15       -0.5780   24.2470   11.7990 C.3   302  MFQ302      0.0310
     15  C20        3.4440   28.6890    6.8580 C.ar  302  MFQ302      0.1833
     16  N2        -0.5800   31.7770    8.3310 N.2   302  MFQ302     -0.0110
     17  N6         1.4270   31.9370    7.0360 N.2   302  MFQ302     -0.0073
     18  N7        -1.3800   29.6800    9.5130 N.pl3 302  MFQ302     -0.1594
     19 BR          0.2520   29.5170   12.2970 Br    302  MFQ302     -0.0455
     20  N18       -2.7220   32.5140   11.3920 N.1   302  MFQ302     -0.1916
     21  N19        2.9400   30.0530    6.7120 N.pl3 302  MFQ302     -0.0094
     22  C21        4.1430   27.9910    5.8320 C.ar  302  MFQ302      0.0475
     23  C23        4.2610   26.0680    7.3500 C.ar  302  MFQ302      0.1389
     24  C24        3.5830   26.7990    8.3180 C.ar  302  MFQ302      0.0405
     25  C25        3.1920   28.0760    8.0790 C.ar  302  MFQ302      0.0475
     26  O26        4.6160   24.7590    7.6550 O.3   302  MFQ302     -0.4727
     27  C27        4.0940   24.0760    8.8390 C.3   302  MFQ302      0.2394
     28  C28        4.6110   22.6540    8.9440 C.3   302  MFQ302      0.2112
     29  C29        5.9180   22.4900    9.7500 C.3   302  MFQ302      0.1094
     30  N30        5.9410   21.3390   10.7020 N.3   302  MFQ302     -0.2681
     31  C31        5.8350   21.7240   12.1390 C.3   302  MFQ302      0.0897
     32  C32        7.0640   20.3930   10.4520 C.3   302  MFQ302      0.0897
     33  O33        4.7280   22.0870    7.6420 O.3   302  MFQ302     -0.2176
@<TRIPOS>BOND
     1    22     1   ar
     2    22    15   ar
     3     1    23   ar
     4    21    15    1
     5    21     3    1
     6    15    25   ar
     7    17     3    2
     8    17     2    1
     9     3     4    1
    10    23    26    1
    11    23    24   ar
    12     2    16    1
    13    33    28    1
    14    26    27    1
    15    25    24   ar
    16     4     5    1
    17    16     5    2
    18     5    18    1
    19    27    28    1
    20    28    29    1
    21    13    10   ar
    22    13     9   ar
    23    18    12    1
    24    18     9    1
    25    29    30    1
    26    12    11    1
    27    10     6   ar
    28     9     8   ar
    29    32    30    1
    30    30    31    1
    31    11    20    3
    32     6    14    1
    33     6     7   ar
    34     8     7   ar
    35     8    19    1
