@<TRIPOS>MOLECULE
1h08_BYP_A_1.pdb
 29 31 0 0 0
SMALL
GASTEIGER

@<TRIPOS>ATOM
      1  C22        8.6630   -9.9020    5.9770 C.3   299  BYP299      0.2394
      2  N1        11.4800  -10.7260   14.2040 N.2   299  BYP299     -0.1677
      3  C2        12.5810  -10.2190   14.8120 C.2   299  BYP299      0.1224
      4  C6        11.2560  -10.3670   12.9290 C.1   299  BYP299      0.1709
      5  C4        13.1270   -9.0150   12.7770 C.2   299  BYP299      0.2239
      6  C3        13.4660   -9.3270   14.1210 C.2   299  BYP299      0.1010
      7  N5        12.0310   -9.5390   12.2250 N.2   299  BYP299     -0.3184
      8  C11       13.9900   -6.3230    8.1010 C.ar  299  BYP299      0.0001
      9  C10       14.4830   -5.6150    9.2260 C.ar  299  BYP299      0.0013
     10  C9        14.4700   -6.2250   10.5100 C.ar  299  BYP299      0.0166
     11  C8        13.9660   -7.5490   10.6790 C.ar  299  BYP299      0.0731
     12  C12       13.4830   -7.6400    8.2510 C.ar  299  BYP299      0.0013
     13  C17        7.9800  -11.6300    9.2030 C.ar  299  BYP299      0.0383
     14  C16        8.5330  -11.7500   10.5060 C.ar  299  BYP299      0.0205
     15  C13       13.4690   -8.2530    9.5340 C.ar  299  BYP299      0.0166
     16  C15        9.4910  -10.8060   10.9570 C.ar  299  BYP299      0.0828
     17  C18        8.3860  -10.5570    8.3360 C.ar  299  BYP299      0.1388
     18  C19        9.3490   -9.6100    8.7970 C.ar  299  BYP299      0.0383
     19  C20        9.8960   -9.7320   10.0930 C.ar  299  BYP299      0.0205
     20  O21        7.8090  -10.4640    7.0410 O.3   299  BYP299     -0.4727
     21  N7        13.9800   -8.1050   12.0260 N.pl3 299  BYP299     -0.1823
     22  N14       10.0780  -10.9250   12.2940 N.pl3 299  BYP299     -0.1357
     23 BR         15.0190   -8.6080   14.9720 Br    299  BYP299     -0.0432
     24  C23        7.7590   -9.4630    4.7860 C.3   299  BYP299      0.2112
     25  C24        6.5950  -10.4980    4.5810 C.3   299  BYP299      0.1094
     26  N25        5.9320  -10.5250    3.2220 N.3   299  BYP299     -0.2681
     27  C26        5.0380   -9.3710    2.9190 C.3   299  BYP299      0.0897
     28  C27        6.7980  -10.9330    2.0780 C.3   299  BYP299      0.0897
     29  O28        7.2130   -8.1780    5.0690 O.3   299  BYP299     -0.2176
@<TRIPOS>BOND
     1    28    26    1
     2    27    26    1
     3    26    25    1
     4    25    24    1
     5    24    29    1
     6    24     1    1
     7     1    20    1
     8    20    17    1
     9     8    12   ar
    10     8     9   ar
    11    12    15   ar
    12    17    18   ar
    13    17    13   ar
    14    18    19   ar
    15    13    14   ar
    16     9    10   ar
    17    15    11   ar
    18    19    16   ar
    19    14    16   ar
    20    10    11   ar
    21    11    21    1
    22    16    22    1
    23    21     5    1
    24     7     5    2
    25     7     4    2
    26    22     4    1
    27     5     6    1
    28     4     2    2
    29     6     3    2
    30     6    23    1
    31     2     3    1
