@<TRIPOS>MOLECULE
1h0a_I3P_A_1.pdb
 24 24 0 0 0
SMALL
GASTEIGER

@<TRIPOS>ATOM
      1  C1        24.2490   33.7590    2.6630 C.3   1164  I3P1164     0.1918
      2  C2        25.2730   34.2920    3.6720 C.3   1164  I3P1164     0.2147
      3  C3        24.5950   35.1830    4.6990 C.3   1164  I3P1164     0.2146
      4  C4        23.4780   34.4220    5.3690 C.3   1164  I3P1164     0.1892
      5  C5        22.5040   33.8070    4.4240 C.3   1164  I3P1164     0.1891
      6  C6        23.1010   32.9800    3.2340 C.3   1164  I3P1164     0.2120
      7  O1        24.8500   32.8300    1.6700 O.3   1164  I3P1164    -0.2673
      8  O2        26.0520   33.2780    4.3490 O.3   1164  I3P1164    -0.2176
      9  O3        25.6250   35.6510    5.5670 O.3   1164  I3P1164    -0.2176
     10  O4        22.7360   35.2870    6.1890 O.3   1164  I3P1164    -0.2674
     11  O5        21.6280   32.9670    5.2160 O.3   1164  I3P1164    -0.2674
     12  O6        22.1450   32.4590    2.2800 O.3   1164  I3P1164    -0.2177
     13  P1        25.3570   33.6030    0.2980 P.3   1164  I3P1164     0.5327
     14  O11       24.1360   33.9980   -0.3600 O.2   1164  I3P1164    -0.2224
     15  O12       26.0320   32.4330   -0.3300 O.3   1164  I3P1164    -0.1145
     16  O13       26.2130   34.6960    0.5730 O.3   1164  I3P1164    -0.1145
     17  P4        23.0350   35.7650    7.6950 P.3   1164  I3P1164     0.5327
     18  O41       23.4940   34.4880    8.5010 O.3   1164  I3P1164    -0.1145
     19  O42       24.1780   36.7050    7.6620 O.2   1164  I3P1164    -0.2224
     20  O43       21.7350   36.2440    8.0820 O.3   1164  I3P1164    -0.1145
     21  P5        20.0800   32.8440    5.0820 P.3   1164  I3P1164     0.5327
     22  O51       19.5310   31.6730    5.8560 O.3   1164  I3P1164    -0.1145
     23  O52       19.7600   32.3010    3.6930 O.2   1164  I3P1164    -0.2224
     24  O53       19.3980   34.1230    5.4990 O.3   1164  I3P1164    -0.1145
@<TRIPOS>BOND
     1    14    13    2
     2    15    13    1
     3    13    16    1
     4    13     7    1
     5     7     1    1
     6    12     6    1
     7     1     6    1
     8     1     2    1
     9     6     5    1
    10     2     8    1
    11     2     3    1
    12    23    21    2
    13     5    11    1
    14     5     4    1
    15     3     4    1
    16     3     9    1
    17    21    11    1
    18    21    24    1
    19    21    22    1
    20     4    10    1
    21    10    17    1
    22    19    17    2
    23    17    20    1
    24    17    18    1
