@<TRIPOS>MOLECULE
1h0b_EPE_A_1.pdb
 15 15 0 0 0
SMALL
GASTEIGER

@<TRIPOS>ATOM
      1  N1        14.8920    9.0940   28.1340 N.3   1228  EPE1228    -0.2689
      2  C2        15.2840    9.0430   26.6820 C.3   1228  EPE1228     0.0897
      3  C3        14.3830    8.0240   26.0020 C.3   1228  EPE1228     0.0897
      4  N4        14.6180    6.6850   26.5520 N.3   1228  EPE1228    -0.2681
      5  C5        14.2940    6.6920   27.9990 C.3   1228  EPE1228     0.0897
      6  C6        15.1330    7.7290   28.7480 C.3   1228  EPE1228     0.0897
      7  C7        13.7600    5.6460   25.9280 C.3   1228  EPE1228     0.1081
      8  C8        13.9900    5.5160   24.4400 C.3   1228  EPE1228     0.1993
      9  O8        15.3330    5.1960   24.1000 O.3   1228  EPE1228    -0.2189
     10  C9        15.7270   10.0810   28.9020 C.3   1228  EPE1228     0.0939
     11  C10       17.2120    9.6360   28.9310 C.3   1228  EPE1228     0.1225
     12  S         18.1560   10.8480   29.8630 S.3   1228  EPE1228    -0.1946
     13  O1S       19.5220   10.3790   29.8570 O.3   1228  EPE1228    -0.3074
     14  O2S       17.5790   10.8770   31.2120 O.3   1228  EPE1228    -0.3074
     15  O3S       17.9950   12.0920   29.1530 O.3   1228  EPE1228    -0.3074
@<TRIPOS>BOND
     1     9     8    1
     2     8     7    1
     3     7     4    1
     4     3     4    1
     5     3     2    1
     6     4     5    1
     7     2     1    1
     8     5     6    1
     9     1     6    1
    10     1    10    1
    11    10    11    1
    12    11    12    1
    13    15    12    1
    14    13    12    1
    15    12    14    1
