@<TRIPOS>MOLECULE
1h0c_PLP_A_1.pdb
 15 15 0 0 0
SMALL
GASTEIGER

@<TRIPOS>ATOM
      1  N1        31.8790   36.2680  -14.9730 N.ar  1391  PLP1391    -0.2452
      2  C2        31.0110   35.8950  -15.9070 C.ar  1391  PLP1391     0.0978
      3  C2A       31.4520   35.7530  -17.3470 C.3   1391  PLP1391     0.0555
      4  C3        29.5820   35.6120  -15.5250 C.ar  1391  PLP1391     0.2049
      5  O3        28.6690   35.2130  -16.4740 O.3   1391  PLP1391    -0.2857
      6  C4        29.1800   35.7500  -14.2340 C.ar  1391  PLP1391     0.0182
      7  C4A       27.7540   35.4600  -13.8670 C.3   1391  PLP1391     0.0342
      8  C5        30.2060   36.1980  -13.1900 C.ar  1391  PLP1391     0.0261
      9  C6        31.5100   36.4240  -13.5890 C.ar  1391  PLP1391     0.0965
     10  C5A       29.7710   36.3960  -11.7660 C.3   1391  PLP1391     0.1815
     11  O4P       29.8250   35.2090  -11.0830 O.3   1391  PLP1391    -0.2653
     12  P         29.2780   35.4730   -9.5230 P.3   1391  PLP1391     0.5329
     13  O1P       27.7640   36.0970   -9.6180 O.2   1391  PLP1391    -0.2224
     14  O2P       29.3170   34.0530   -8.8490 O.3   1391  PLP1391    -0.1145
     15  O3P       30.2480   36.5290   -8.6500 O.3   1391  PLP1391    -0.1145
@<TRIPOS>BOND
     1     3     2    1
     2     5     4    1
     3     2     4   ar
     4     2     1   ar
     5     4     6   ar
     6     1     9   ar
     7     6     7    1
     8     6     8   ar
     9     9     8   ar
    10     8    10    1
    11    10    11    1
    12    11    12    1
    13    13    12    2
    14    12    14    1
    15    12    15    1
