@<TRIPOS>MOLECULE
1h0g_III_C_1.pdb
 48 51 0 0 0
SMALL
GASTEIGER

@<TRIPOS>ATOM
      1  C         49.2000   75.0450   56.3480 C.2     1  ARG1        0.2495
      2  N         46.9510   74.6830   57.3150 N.2     1  ARG1       -0.1973
      3  O         49.4020   73.8880   55.9820 O.2     1  ARG1       -0.2727
      4  CA        48.2660   75.3370   57.5570 C.3     1  ARG1        0.1905
      5  CB        48.9180   74.7590   58.8230 C.3     1  ARG1        0.0383
      6  CD        48.9660   74.7440   61.3390 C.3     1  ARG1        0.2202
      7  NE        48.2950   73.4380   61.4430 N.pl3   1  ARG1       -0.0911
      8  CG        48.4350   75.4580   60.0990 C.3     1  ARG1        0.0494
      9  CZ        48.5620   72.5750   62.4210 C.2     1  ARG1        0.4924
     10  C0B       48.1050   70.5100   63.4310 C.2     1  ARG1        0.3195
     11  O0C       48.9000   70.6580   64.3620 O.2     1  ARG1       -0.2534
     12  C1B       47.2530   69.2450   63.3230 C.3     1  ARG1        0.1176
     13  NH1       49.5050   72.8510   63.3240 N.pl3   1  ARG1        0.1297
     14  NH2       47.8950   71.4120   62.4620 N.am    1  ARG1        0.0044
     15  N         49.7660   76.0470   55.6600 N.am    2  DPR2       -0.2658
     16  CA        50.6870   75.8160   54.5250 C.3     2  DPR2        0.1823
     17  CB        51.3660   77.1910   54.4110 C.3     2  DPR2        0.0388
     18  CG        50.2950   78.1900   54.8650 C.3     2  DPR2        0.0244
     19  CD        49.5820   77.4710   56.0090 C.3     2  DPR2        0.0945
     20  C         49.9480   75.5420   53.1900 C.1     2  DPR2        0.1445
     21  O         50.5440   75.6990   52.1290 O.2     2  DPR2       -0.2254
     22  N         48.6850   75.1110   53.2420 N.2     3  UN23       -0.1974
     23  CA        47.9590   74.8350   51.9780 C.3     3  UN23        0.1947
     24  C         46.5200   75.2740   52.1150 C.2     3  UN23        0.2514
     25  O         46.1680   76.4510   52.1550 O.2     3  UN23       -0.2727
     26  CB        47.8190   73.3180   51.7070 C.3     3  UN23        0.0887
     27  CG        46.3970   72.9510   52.2030 C.3     3  UN23        0.2334
     28  OD1       46.4850   72.4100   53.5240 O.3     3  UN23       -0.2005
     29  N         45.6880   74.2580   52.2220 N.am    4  HIS4       -0.2404
     30  CA        44.2070   74.4470   52.3430 C.3     4  HIS4        0.1897
     31  C         43.9450   74.8000   53.8080 C.1     4  HIS4        0.1455
     32  O         43.0870   75.6090   54.1590 O.2     4  HIS4       -0.2253
     33  CB        43.4520   73.1530   51.9650 C.3     4  HIS4        0.0805
     34  CG        41.9480   73.3830   51.7170 C.2     4  HIS4        0.0658
     35  ND1       41.1200   72.4990   51.1460 N.2     4  HIS4       -0.2309
     36  CD2       41.2330   74.5080   52.0100 C.3     4  HIS4        0.1683
     37  CE1       39.9510   73.1100   51.1160 C.2     4  HIS4        0.1939
     38  NE2       39.9620   74.3270   51.6250 N.2     4  HIS4       -0.2440
     39  C1'       46.2310   71.4050   59.7310 C.2     5  UN15        0.3649
     40  O1'       46.9680   72.4060   59.8620 O.co2   5  UN15       -0.2457
     41  O2'       46.1150   70.4520   60.5340 O.co2   5  UN15       -0.2457
     42  O58       46.5450   75.9170   55.4720 O.2     5  UN15       -0.2251
     43  C1        45.4070   71.3610   58.4680 C.3     5  UN15        0.1142
     44  C3        46.1940   75.0460   56.2710 C.1     5  UN15        0.1495
     45  C4        44.8420   74.3010   56.0380 C.3     5  UN15        0.2190
     46  C5        44.8640   72.8620   56.5740 C.3     5  UN15        0.0429
     47  C6        45.1370   72.7960   58.0440 C.3     5  UN15        0.0150
     48  N4        44.7730   74.1710   54.6050 N.2     5  UN15       -0.1899
@<TRIPOS>BOND
     1    37    35    1
     2    37    38    2
     3    35    34    2
     4    38    36    1
     5    26    23    1
     6    26    27    1
     7    34    33    1
     8    34    36    1
     9    33    30    1
    10    23    24    1
    11    23    22    1
    12    24    25    2
    13    24    29   am
    14    21    20    2
    15    27    29    1
    16    27    28    1
    17    29    30    1
    18    30    31    1
    19    20    22    2
    20    20    16    1
    21    31    32    2
    22    31    48    2
    23    17    16    1
    24    17    18    1
    25    16    15    1
    26    48    45    1
    27    18    19    1
    28    42    44    2
    29    15    19    1
    30    15     1   am
    31     3     1    2
    32    45    44    1
    33    45    46    1
    34    44     2    2
    35     1     4    1
    36    46    47    1
    37     2     4    1
    38     4     5    1
    39    47    43    1
    40    43    39    1
    41     5     8    1
    42    39    40   ar
    43    39    41   ar
    44     8     6    1
    45     6     7    1
    46     7     9    1
    47     9    14    1
    48     9    13    2
    49    14    10   am
    50    12    10    1
    51    10    11    2
