@<TRIPOS>MOLECULE
1h0h_2MD_A_1.pdb
 47 52 0 0 0
SMALL
GASTEIGER

@<TRIPOS>ATOM
      1  PB        16.0450    6.7880   61.8420 P.3   1001  2MD1001     0.2189
      2  O3B       16.5980    6.7820   60.3480 O.3   1001  2MD1001    -0.2703
      3  O1B       16.5780    7.9770   62.4760 O.2   1001  2MD1001    -0.5170
      4  O2B       16.1600    5.4780   62.5050 O.3   1001  2MD1001    -0.4371
      5  O3A       14.4800    7.1140   61.6250 O.3   1001  2MD1001    -0.3109
      6  C10       13.6250    6.0690   61.1890 C.3   1001  2MD1001     0.1833
      7  C11       12.1670    6.3740   61.5450 C.3   1001  2MD1001     0.1728
      8  O11       11.7950    7.6280   60.9450 O.3   1001  2MD1001    -0.3276
      9  C12       11.2140    5.3090   60.9640 C.2   1001  2MD1001     0.0332
     10  S12       11.5570    3.7420   61.5110 S.2   1001  2MD1001    -0.0565
     11  C13        9.8600    5.7190   60.8420 C.3   1001  2MD1001     0.1117
     12  S13        8.7810    4.4020   60.3440 S.3   1001  2MD1001    -0.0758
     13  C14        9.4090    7.1940   60.6820 C.3   1001  2MD1001     0.1712
     14  N15        9.2900    7.4490   59.2320 N.2   1001  2MD1001    -0.2449
     15  C16        9.0220    8.7630   58.9050 C.2   1001  2MD1001     0.2464
     16  C15        8.1000    9.1440   57.8190 C.1   1001  2MD1001     0.2441
     17  O14        7.5170    8.2750   57.1470 O.2   1001  2MD1001    -0.2063
     18  N17        7.8920   10.4320   57.6080 N.2   1001  2MD1001    -0.2474
     19  C17        8.5200   11.3640   58.3530 C.1   1001  2MD1001     0.2608
     20  N16        8.2890   12.7030   58.0820 N.pl3 1001  2MD1001    -0.0220
     21  N18        9.3600   11.0540   59.3450 N.2   1001  2MD1001    -0.2682
     22  C20        9.6050    9.7360   59.6280 C.1   1001  2MD1001     0.1292
     23  N8        10.4140    9.4080   60.6250 N.2   1001  2MD1001    -0.1767
     24  C7        10.4950    8.1400   61.2280 C.3   1001  2MD1001     0.2537
     25  PA        18.0190    6.4260   59.7480 P.3   1001  2MD1001     0.2189
     26  O1A       19.0440    6.9250   60.6750 O.3   1001  2MD1001    -0.4371
     27  O2A       18.1160    7.0400   58.3940 O.2   1001  2MD1001    -0.5170
     28  O5'       18.1270    4.8300   59.5670 O.3   1001  2MD1001    -0.3112
     29  C5'       18.7000    4.0050   60.5650 C.3   1001  2MD1001     0.1813
     30  C4'       20.2150    4.2150   60.6840 C.3   1001  2MD1001     0.1799
     31  O4'       20.9060    2.9840   60.8000 O.3   1001  2MD1001    -0.3326
     32  C1'       22.2700    3.1770   60.4850 C.3   1001  2MD1001     0.2293
     33  N9        22.9230    1.8700   60.4850 N.pl3 1001  2MD1001    -0.2354
     34  C4        23.6560    1.4610   61.4780 C.2   1001  2MD1001     0.2300
     35  N3        24.0060    1.9910   62.6280 N.2   1001  2MD1001    -0.3074
     36  C2        24.7700    1.2980   63.4900 C.1   1001  2MD1001     0.2531
     37  N2        25.1210    1.8900   64.6940 N.pl3 1001  2MD1001    -0.0226
     38  N1        25.2200    0.0660   63.2710 N.2   1001  2MD1001    -0.2485
     39  C6        24.9580   -0.5810   62.1220 C.1   1001  2MD1001     0.2372
     40  O6        25.4000   -1.7330   61.9610 O.2   1001  2MD1001    -0.2069
     41  C5        24.1140    0.1110   61.1180 C.2   1001  2MD1001     0.2182
     42  N7        23.5970   -0.1690   59.9080 N.2   1001  2MD1001    -0.2322
     43  C8        22.8830    0.9030   59.5380 C.3   1001  2MD1001     0.2246
     44  C2'       22.0920    3.9120   59.1790 C.3   1001  2MD1001     0.2310
     45  O2'       23.3120    4.4790   58.7260 O.3   1001  2MD1001    -0.2158
     46  C3'       20.9600    4.8900   59.5420 C.3   1001  2MD1001     0.2158
     47  O3'       21.3960    6.1680   60.0090 O.3   1001  2MD1001    -0.2175
@<TRIPOS>BOND
     1    17    16    2
     2    18    16    2
     3    18    19    2
     4    16    15    1
     5    20    19    1
     6    19    21    2
     7    27    25    2
     8    45    44    1
     9    15    14    2
    10    15    22    1
    11    44    46    1
    12    44    32    1
    13    14    13    1
    14    21    22    2
    15    43    42    1
    16    43    33    1
    17    46    47    1
    18    46    30    1
    19    28    25    1
    20    28    29    1
    21    22    23    2
    22    25     2    1
    23    25    26    1
    24    42    41    2
    25    12    11    1
    26     2     1    1
    27    32    33    1
    28    32    31    1
    29    33    34    1
    30    29    30    1
    31    23    24    1
    32    13    11    1
    33    13    24    1
    34    30    31    1
    35    11     9    1
    36     8    24    1
    37     8     7    1
    38     9    10    2
    39     9     7    1
    40    41    34    1
    41    41    39    1
    42     6     7    1
    43     6     5    1
    44    34    35    2
    45     5     1    1
    46     1     3    2
    47     1     4    1
    48    40    39    2
    49    39    38    2
    50    35    36    2
    51    38    36    2
    52    36    37    1
