@<TRIPOS>MOLECULE
1h0h_MGD_A_1.pdb
 47 52 0 0 0
SMALL
GASTEIGER

@<TRIPOS>ATOM
      1  PB         4.9360    4.7320   53.1790 P.3   1002  MGD1002     0.2189
      2  O1B        5.5830    4.7350   51.8810 O.2   1002  MGD1002    -0.5170
      3  O2B        5.3760    5.6930   54.1440 O.3   1002  MGD1002    -0.4371
      4  O3B        5.3700    3.3580   53.8060 O.3   1002  MGD1002    -0.2703
      5  O3A        6.0940    1.1890   54.9350 O.3   1002  MGD1002    -0.3112
      6  PA         4.8300    1.9690   54.2970 P.3   1002  MGD1002     0.2189
      7  O1A        4.4210    1.1690   53.1320 O.2   1002  MGD1002    -0.5170
      8  O2A        3.8480    2.2960   55.3250 O.3   1002  MGD1002    -0.4371
      9  O5'        3.3210    4.7180   53.1550 O.3   1002  MGD1002    -0.3112
     10  C5'        2.6850    3.6830   52.4160 C.3   1002  MGD1002     0.1813
     11  C4'        1.5170    4.2630   51.6070 C.3   1002  MGD1002     0.1799
     12  O4'        0.6020    4.9500   52.4420 O.3   1002  MGD1002    -0.3326
     13  C3'        1.9280    5.3690   50.6370 C.3   1002  MGD1002     0.2158
     14  O3'        1.7480    4.8720   49.3270 O.3   1002  MGD1002    -0.2175
     15  C2'        1.0000    6.5720   50.9240 C.3   1002  MGD1002     0.2310
     16  O2'        0.3840    7.1210   49.7800 O.3   1002  MGD1002    -0.2158
     17  C1'       -0.1210    5.9090   51.6680 C.3   1002  MGD1002     0.2293
     18  N9        -0.9550    6.7170   52.5560 N.pl3 1002  MGD1002    -0.2354
     19  C8        -0.6970    7.9250   53.1230 C.3   1002  MGD1002     0.2246
     20  N7        -1.7160    8.3000   53.9300 N.2   1002  MGD1002    -0.2322
     21  C5        -2.6160    7.3120   53.8650 C.2   1002  MGD1002     0.2182
     22  C6        -3.9080    7.0460   54.4870 C.1   1002  MGD1002     0.2372
     23  O6        -4.3990    7.8950   55.2500 O.2   1002  MGD1002    -0.2069
     24  N1        -4.5440    5.9200   54.1620 N.2   1002  MGD1002    -0.2485
     25  C2        -4.0360    4.9990   53.3260 C.1   1002  MGD1002     0.2531
     26  N2        -4.8040    3.8480   53.0850 N.pl3 1002  MGD1002    -0.0226
     27  N3        -2.8390    5.1500   52.7280 N.2   1002  MGD1002    -0.3074
     28  C4        -2.1130    6.2570   52.9830 C.2   1002  MGD1002     0.2300
     29  C10        6.6960    1.7920   56.0530 C.3   1002  MGD1002     0.1798
     30  C11        7.8470    0.8440   56.3680 C.3   1002  MGD1002     0.1623
     31  O11        8.6540    0.7820   55.1860 O.3   1002  MGD1002    -0.3309
     32  C12        8.7620    1.2750   57.5120 C.3   1002  MGD1002     0.1141
     33  S12        7.9760    1.5710   59.0270 S.3   1002  MGD1002    -0.0753
     34  C13       10.1350    1.3850   57.4170 C.2   1002  MGD1002     0.0309
     35  S13       11.1300    1.8200   58.7390 S.2   1002  MGD1002    -0.0569
     36  C14       10.8810    1.0310   56.1420 C.3   1002  MGD1002     0.1817
     37  N15       11.2560    2.2210   55.3490 N.2   1002  MGD1002    -0.2414
     38  C16       11.4880    2.0350   53.9970 C.2   1002  MGD1002     0.2467
     39  C17       12.2260    3.0600   53.2260 C.1   1002  MGD1002     0.2441
     40  O17       12.6300    4.0930   53.8030 O.2   1002  MGD1002    -0.2063
     41  N18       12.3690    2.8380   51.9160 N.2   1002  MGD1002    -0.2474
     42  C19       11.9220    1.6920   51.3410 C.1   1002  MGD1002     0.2608
     43  N19       12.1150    1.4650   49.9520 N.pl3 1002  MGD1002    -0.0220
     44  N20       11.2700    0.7460   52.0320 N.2   1002  MGD1002    -0.2682
     45  C21       11.0520    0.8950   53.3560 C.1   1002  MGD1002     0.1293
     46  N22       10.4060   -0.0740   54.0260 N.2   1002  MGD1002    -0.1763
     47  C23        9.9210    0.1510   55.3370 C.3   1002  MGD1002     0.2567
@<TRIPOS>BOND
     1    14    13    1
     2    16    15    1
     3    43    42    1
     4    13    15    1
     5    13    11    1
     6    15    17    1
     7    42    41    2
     8    42    44    2
     9    11    10    1
    10    11    12    1
    11    17    12    1
    12    17    18    1
    13     2     1    2
    14    41    39    2
    15    44    45    2
    16    10     9    1
    17    18    28    1
    18    18    19    1
    19    27    28    2
    20    27    25    2
    21    28    21    1
    22    26    25    1
    23    19    20    1
    24     7     6    2
    25     9     1    1
    26     1     4    1
    27     1     3    1
    28    39    40    2
    29    39    38    1
    30    25    24    2
    31    45    38    1
    32    45    46    2
    33     4     6    1
    34    21    20    2
    35    21    22    1
    36    38    37    2
    37    46    47    1
    38    24    22    2
    39     6     5    1
    40     6     8    1
    41    22    23    2
    42     5    29    1
    43    31    47    1
    44    31    30    1
    45    47    36    1
    46    37    36    1
    47    29    30    1
    48    36    34    1
    49    30    32    1
    50    34    32    1
    51    34    35    2
    52    32    33    1
