@<TRIPOS>MOLECULE
1h0i_VR0_C_1.pdb
 15 14 0 0 0
SMALL
GASTEIGER

@<TRIPOS>ATOM
      1  C1        18.2390   47.4580  104.0440 C.3     1  VR01        0.1418
      2  NH2       19.8630   43.1350  102.1220 N.pl3   1  VR01        0.1298
      3  O1        19.5900   45.2090  103.3990 O.2     1  VR01       -0.2284
      4  O         19.2430   36.3730   99.2870 O.2     1  VR01       -0.2867
      5  CG        18.2650   40.6980   99.4460 C.3     1  VR01        0.0489
      6  CD        19.3000   41.7580   99.7940 C.3     1  VR01        0.2202
      7  CB        18.9440   39.3940   99.0380 C.3     1  VR01        0.0307
      8  NH3       17.9170   46.6290  102.8710 N.am    1  VR01       -0.1697
      9  NE        18.6170   43.0010  100.1730 N.pl3   1  VR01       -0.0911
     10  NH1       18.3200   44.7930  101.5880 N.am    1  VR01        0.0241
     11  N         17.1110   38.0970   99.9970 N.3     1  VR01       -0.1245
     12  CZ        18.9570   43.6550  101.2830 C.2     1  VR01        0.4938
     13  C6        18.6390   45.5160  102.6690 C.2     1  VR01        0.4188
     14  C         18.6400   36.9930   98.4110 C.2     1  VR01        0.2260
     15  CA        17.9100   38.3010   98.7740 C.3     1  VR01        0.1563
@<TRIPOS>BOND
     1    14    15    1
     2    14     4    2
     3    15     7    1
     4    15    11    1
     5     7     5    1
     6     5     6    1
     7     6     9    1
     8     9    12    1
     9    12    10    1
    10    12     2    2
    11    10    13   am
    12    13     8   am
    13    13     3    2
    14     8     1    1
