@<TRIPOS>MOLECULE
1h0i_MEA_C_1.pdb
 12 12 0 0 0
SMALL
GASTEIGER

@<TRIPOS>ATOM
      1  C1        19.2920   35.3260   96.8290 C.3     2  MEA2        0.1079
      2  N         18.5570   36.5790   97.1250 N.3     2  MEA2       -0.2097
      3  CA        17.7930   37.3390   96.0930 C.3     2  MEA2        0.1415
      4  C         16.7300   36.4470   95.4150 C.2     2  MEA2        0.2247
      5  O         16.7970   36.1980   94.2100 O.2     2  MEA2       -0.2868
      6  CB        18.7490   37.8840   95.0140 C.3     2  MEA2        0.0517
      7  CG        19.6950   38.9670   95.5480 C.ar    2  MEA2       -0.0203
      8  CD1       20.9420   38.6140   96.0980 C.ar    2  MEA2       -0.0042
      9  CE1       21.8400   39.6230   96.5060 C.ar    2  MEA2       -0.0003
     10  CZ        21.4870   40.9810   96.3660 C.ar    2  MEA2       -0.0000
     11  CE2       20.2410   41.3330   95.8250 C.ar    2  MEA2       -0.0003
     12  CD2       19.3450   40.3280   95.4170 C.ar    2  MEA2       -0.0042
@<TRIPOS>BOND
     1     5     4    2
     2     6     7    1
     3     6     3    1
     4     4     3    1
     5    12     7   ar
     6    12    11   ar
     7     7     8   ar
     8    11    10   ar
     9     3     2    1
    10     8     9   ar
    11    10     9   ar
    12     1     2    1
