@<TRIPOS>MOLECULE
1h0j_SDS_A_1.pdb
 17 16 0 0 0
SMALL
GASTEIGER

@<TRIPOS>ATOM
      1  S         22.1980   28.4930   33.9300 S.3   1061  SDS1061    -0.0001
      2  O1S       20.7810   28.3710   34.3200 O.2   1061  SDS1061    -0.3452
      3  O2S       22.3440   29.6040   32.9640 O.3   1061  SDS1061    -0.2412
      4  O3S       23.0150   28.7550   35.1340 O.3   1061  SDS1061    -0.2682
      5  O4        22.6400   27.2390   33.3060 O.2   1061  SDS1061    -0.3452
      6  C1        22.1570   30.8230   33.0130 C.3   1061  SDS1061     0.1725
      7  C2        27.9950   37.2400   27.7890 C.3   1061  SDS1061     0.0000
      8  C3        27.7280   37.6020   29.2220 C.3   1061  SDS1061     0.0000
      9  C4        28.8430   37.0910   30.1220 C.3   1061  SDS1061     0.0000
     10  C5        28.2960   37.3250   31.5380 C.3   1061  SDS1061     0.0000
     11  C6        28.5930   35.9910   32.2410 C.3   1061  SDS1061     0.0000
     12  C7        27.2200   35.6040   32.8340 C.3   1061  SDS1061     0.0000
     13  C8        27.0430   34.1030   32.6110 C.3   1061  SDS1061     0.0000
     14  C9        25.7910   33.8220   31.7890 C.3   1061  SDS1061     0.0000
     15  C10       25.2580   32.4230   32.0690 C.3   1061  SDS1061     0.0001
     16  C11       23.7290   32.5010   32.0420 C.3   1061  SDS1061     0.0027
     17  C12       23.1600   31.9300   33.3350 C.3   1061  SDS1061     0.0346
@<TRIPOS>BOND
     1     7     8    1
     2     8     9    1
     3     9    10    1
     4    10    11    1
     5    14    15    1
     6    14    13    1
     7    16    15    1
     8    16    17    1
     9    11    12    1
    10    13    12    1
    11     3     6    1
    12     3     1    1
    13     6    17    1
    14     5     1    2
    15     1     2    2
    16     1     4    1
