@<TRIPOS>MOLECULE
1h0m_OOA_A_1.pdb
 10 9 0 0 0
SMALL
GASTEIGER

@<TRIPOS>ATOM
      1  C1        58.7330   29.4510  130.6800 C.2   1236  OOA1236     0.2152
      2  C2        59.1850   30.5180  129.7300 C.3   1236  OOA1236     0.1365
      3  C3        60.6920   30.6210  129.6430 C.2   1236  OOA1236     0.1585
      4  C4        61.4520   31.4880  130.6400 C.3   1236  OOA1236     0.0650
      5  O1        61.2870   29.9970  128.7740 O.2   1236  OOA1236    -0.2956
      6  C5        62.4690   32.4170  129.9860 C.3   1236  OOA1236     0.0078
      7  C6        62.6090   33.6390  130.8800 C.3   1236  OOA1236     0.0004
      8  C7        63.1470   34.8510  130.1290 C.3   1236  OOA1236     0.0000
      9  C8        64.3870   35.3220  130.8670 C.3   1236  OOA1236     0.0000
     10  O3        58.0980   28.4780  130.2780 O.2   1236  OOA1236    -0.2878
@<TRIPOS>BOND
     1     5     3    2
     2     3     2    1
     3     3     4    1
     4     2     1    1
     5     6     4    1
     6     6     7    1
     7     8     9    1
     8     8     7    1
     9    10     1    2
