@<TRIPOS>MOLECULE
1h0r_FA1_A_1.pdb
 12 12 0 0 0
SMALL
GASTEIGER

@<TRIPOS>ATOM
      1  C2        30.0170   72.0450   20.6080 C.3   200  FA1200      0.0818
      2  C3        29.1550   73.2480   20.2380 C.3   200  FA1200      0.1897
      3  O3        29.8850   74.4610   20.6060 O.3   200  FA1200     -0.2199
      4  C4        28.9840   73.2600   18.7050 C.3   200  FA1200      0.2040
      5  O4        28.1760   74.3800   18.3500 O.3   200  FA1200     -0.2156
      6  C5        28.5740   71.9340   18.0660 C.2   200  FA1200      0.0071
      7  C6        28.8250   70.8150   18.6800 C.2   200  FA1200      0.0124
      8  C         30.1910   69.5200   20.2350 C.2   200  FA1200      0.3956
      9  O1        31.4300   69.6150   20.5250 O.co2 200  FA1200     -0.2426
     10  O30       28.1950   70.6710   21.0010 O.3   200  FA1200     -0.2095
     11  O2        29.6200   68.3370   20.1760 O.co2 200  FA1200     -0.2426
     12  C1        29.3490   70.7600   20.1040 C.3   200  FA1200      0.2396
@<TRIPOS>BOND
     1     6     7    2
     2     6     4    1
     3     5     4    1
     4     7    12    1
     5     4     2    1
     6    12     8    1
     7    12     1    1
     8    12    10    1
     9    11     8   ar
    10     8     9   ar
    11     2     3    1
    12     2     1    1
