@<TRIPOS>MOLECULE
1h0s_FA6_A_1.pdb
 14 14 0 0 0
SMALL
GASTEIGER

@<TRIPOS>ATOM
      1  O2        29.4150   68.0710   20.3510 O.co2 200  FA6200     -0.2429
      2  C7        29.9910   69.1780   20.1650 C.2   200  FA6200      0.3921
      3  O1        31.2430   69.3120   20.2670 O.co2 200  FA6200     -0.2429
      4  C1        29.1600   70.3900   19.8580 C.3   200  FA6200      0.2268
      5  O3        27.8410   70.3170   20.4180 O.3   200  FA6200     -0.2136
      6  C2        28.9320   70.4240   18.3550 C.3   200  FA6200      0.0891
      7  C3        28.2720   71.7340   17.9520 C.2   200  FA6200      0.1151
      8  N1        27.3850   71.6890   16.9550 N.2   200  FA6200     -0.0355
      9  O6        27.0630   70.4300   16.3720 O.2   200  FA6200     -0.1437
     10  C4        28.5970   72.9810   18.5200 C.3   200  FA6200      0.2211
     11  O4        27.9060   74.1170   18.1160 O.3   200  FA6200     -0.2141
     12  C5        29.1940   72.9960   19.7600 C.3   200  FA6200      0.1907
     13  O5        29.5770   74.1680   20.3780 O.3   200  FA6200     -0.2199
     14  C6        29.8300   71.7040   20.2150 C.3   200  FA6200      0.0779
@<TRIPOS>BOND
     1     9     8    1
     2     8     7    2
     3     7     6    1
     4     7    10    1
     5    11    10    1
     6     6     4    1
     7    10    12    1
     8    12    14    1
     9    12    13    1
    10     4     2    1
    11     4    14    1
    12     4     5    1
    13     2     3   ar
    14     2     1   ar
