@<TRIPOS>MOLECULE
1h0v_UN4_A_1.pdb
 18 20 0 0 0
SMALL
GASTEIGER

@<TRIPOS>ATOM
      1  C2         2.4180   29.2870    6.7290 C.1   1299  UN41299     0.2533
      2  C4         0.8580   30.7950    7.4840 C.1   1299  UN41299     0.1221
      3  C5         0.2860   29.8040    8.3100 C.2   1299  UN41299     0.2195
      4  C4'        1.0770   25.8330   10.5900 C.3   1299  UN41299     0.1592
      5  C3'       -0.1250   23.7280   10.6470 C.3   1299  UN41299     0.1238
      6  C2'       -0.3110   25.1960   10.3610 C.3   1299  UN41299     0.0467
      7  N9         0.1360   31.8590    7.7520 N.2   1299  UN41299    -0.1806
      8  N3         1.8990   30.5020    6.7320 N.2   1299  UN41299    -0.2693
      9  N2         3.4850   29.1150    5.9360 N.pl3 1299  UN41299    -0.0226
     10  N1         1.8930   28.2760    7.4780 N.2   1299  UN41299    -0.2855
     11  C6         0.8230   28.4740    8.2420 C.2   1299  UN41299     0.3178
     12  O6         0.3020   27.5200    9.0200 O.2   1299  UN41299    -0.4475
     13  C60        1.4400   26.7190    9.4150 C.3   1299  UN41299     0.2332
     14  C14        1.3720   23.5300   10.6600 C.1   1299  UN41299     0.1261
     15  N7        -0.7420   30.2670    9.0110 N.2   1299  UN41299    -0.2273
     16  C8        -0.8220   31.5180    8.6350 C.3   1299  UN41299     0.2628
     17  O14        1.8380   22.3990   10.6910 O.2   1299  UN41299    -0.2270
     18  N15        2.0410   24.7300   10.6390 N.2   1299  UN41299    -0.2044
@<TRIPOS>BOND
     1     9     1    1
     2     1     8    2
     3     1    10    2
     4     8     2    2
     5    10    11    2
     6     2     7    2
     7     2     3    1
     8     7    16    1
     9    11     3    1
    10    11    12    1
    11     3    15    2
    12    16    15    1
    13    12    13    1
    14    13     4    1
    15     6     4    1
    16     6     5    1
    17     4    18    1
    18    18    14    2
    19     5    14    1
    20    14    17    2
