@<TRIPOS>MOLECULE
1h0w_207_A_1.pdb
 18 20 0 0 0
SMALL
GASTEIGER

@<TRIPOS>ATOM
      1  N1         2.3310   29.3130    7.8490 N.2   1299  2071299    -0.3522
      2  C2         2.8180   30.3540    7.1210 C.2   1299  2071299     0.2060
      3  C3         2.2360   31.6110    7.1280 C.3   1299  2071299     0.1252
      4  C4         1.1310   31.8740    7.8700 C.2   1299  2071299     0.0874
      5  C5         0.5890   30.7980    8.6390 C.2   1299  2071299     0.1576
      6  C6         1.2370   29.4720    8.6320 C.2   1299  2071299     0.2975
      7  O6         0.7080   28.4560    9.4080 O.2   1299  2071299    -0.4507
      8  C9         1.4630   27.2530    9.5560 C.3   1299  2071299     0.2081
      9  N7        -0.4760   31.2370    9.2900 N.2   1299  2071299    -0.2372
     10  C8        -0.6330   32.5150    8.9650 C.3   1299  2071299     0.2506
     11  N9         0.3310   32.9020    8.1040 N.2   1299  2071299    -0.2465
     12  N2         3.9270   30.2130    6.3400 N.pl3 1299  2071299    -0.0975
     13  C10        0.9110   26.4560   10.7230 C.3   1299  2071299     0.0438
     14  C11       -0.3420   25.7350   10.2480 C.3   1299  2071299     0.0037
     15  C12       -0.0120   24.2850    9.9480 C.3   1299  2071299     0.0001
     16  C13        0.3330   23.5630   11.2370 C.3   1299  2071299     0.0000
     17  C14        1.5360   24.2230   11.9030 C.3   1299  2071299     0.0001
     18  C15        2.0040   25.5280   11.2430 C.3   1299  2071299     0.0037
@<TRIPOS>BOND
     1    12     2    1
     2     2     3    1
     3     2     1    2
     4     3     4    1
     5     1     6    2
     6     4    11    2
     7     4     5    1
     8    11    10    1
     9     6     5    1
    10     6     7    1
    11     5     9    2
    12    10     9    1
    13     7     8    1
    14     8    13    1
    15    15    14    1
    16    15    16    1
    17    14    13    1
    18    13    18    1
    19    16    17    1
    20    18    17    1
