@<TRIPOS>MOLECULE
1h10_4IP_A_1.pdb
 28 28 0 0 0
SMALL
GASTEIGER

@<TRIPOS>ATOM
      1  C1        14.7250   25.1820   17.6890 C.3   1118  4IP1118     0.1917
      2  O1        14.9640   25.2940   19.1080 O.3   1118  4IP1118    -0.2673
      3  C2        14.7800   23.7070   17.2760 C.3   1118  4IP1118     0.2120
      4  O2        16.0040   23.1530   17.7710 O.3   1118  4IP1118    -0.2177
      5  C3        14.6920   23.5480   15.7550 C.3   1118  4IP1118     0.1890
      6  O3        14.7760   22.1650   15.4130 O.3   1118  4IP1118    -0.2674
      7  C4        15.8290   24.3100   15.0870 C.3   1118  4IP1118     0.1865
      8  O4        15.6990   24.1790   13.6610 O.3   1118  4IP1118    -0.2675
      9  C5        15.7590   25.7880   15.4810 C.3   1118  4IP1118     0.1890
     10  O5        16.8500   26.4890   14.8920 O.3   1118  4IP1118    -0.2674
     11  C6        15.8760   25.9370   16.9970 C.3   1118  4IP1118     0.2120
     12  O6        15.8130   27.3090   17.3550 O.3   1118  4IP1118    -0.2177
     13  P1        13.7150   25.1090   20.1580 P.3   1118  4IP1118     0.5327
     14  O1P       13.3700   26.5870   20.5800 O.3   1118  4IP1118    -0.1145
     15  O2P       12.5510   24.4960   19.4230 O.2   1118  4IP1118    -0.2224
     16  O3P       14.2610   24.3240   21.2830 O.3   1118  4IP1118    -0.1145
     17  P3        13.4670   21.3250   15.0070 P.3   1118  4IP1118     0.5327
     18  O4P       12.9440   22.0130   13.6700 O.2   1118  4IP1118    -0.2224
     19  O5P       12.4360   21.4320   16.0460 O.3   1118  4IP1118    -0.1145
     20  O6P       13.9640   19.9650   14.5780 O.3   1118  4IP1118    -0.1145
     21  P4        16.9230   23.6860   12.7250 P.3   1118  4IP1118     0.5327
     22  O7P       16.1850   23.2830   11.4040 O.2   1118  4IP1118    -0.2224
     23  O8P       17.8620   24.8650   12.5220 O.3   1118  4IP1118    -0.1145
     24  O9P       17.6100   22.5560   13.4130 O.3   1118  4IP1118    -0.1145
     25  P5        16.5830   27.6890   13.8510 P.3   1118  4IP1118     0.5327
     26  OPF       17.7450   28.7050   14.1750 O.3   1118  4IP1118    -0.1145
     27  OPG       15.2290   28.2080   14.0320 O.3   1118  4IP1118    -0.1145
     28  OPH       16.8160   27.0840   12.4670 O.2   1118  4IP1118    -0.2224
@<TRIPOS>BOND
     1    22    21    2
     2    28    25    2
     3    23    21    1
     4    21    24    1
     5    21     8    1
     6     8     7    1
     7    18    17    2
     8    25    27    1
     9    25    26    1
    10    25    10    1
    11    20    17    1
    12    10     9    1
    13    17     6    1
    14    17    19    1
    15     7     9    1
    16     7     5    1
    17     6     5    1
    18     9    11    1
    19     5     3    1
    20    11    12    1
    21    11     1    1
    22     3     1    1
    23     3     4    1
    24     1     2    1
    25     2    13    1
    26    15    13    2
    27    13    14    1
    28    13    16    1
