@<TRIPOS>MOLECULE
1h11_FCT_A_1.pdb
 33 35 0 0 0
SMALL
GASTEIGER

@<TRIPOS>ATOM
      1  C1A       62.3630   41.8480   35.0970 C.3   500  FCT500      0.1801
      2  C2A       60.9220   42.2950   34.9270 C.3   500  FCT500      0.2229
      3  C3A       60.8100   43.7760   34.7120 C.3   500  FCT500      0.2163
      4  C4A       61.4270   44.4860   35.9320 C.3   500  FCT500      0.1804
      5  C5A       62.8810   44.0330   36.0120 C.3   500  FCT500      0.1778
      6  C6A       63.5550   44.5980   37.2720 C.3   500  FCT500      0.2140
      7  F2A       60.4220   41.6130   33.8120 F     500  FCT500     -0.2317
      8  O3A       59.4270   44.0890   34.5980 O.3   500  FCT500     -0.2174
      9  O4A       61.3860   45.8880   35.6970 O.3   500  FCT500     -0.3257
     10  O5A       62.9490   42.5980   36.1520 O.3   500  FCT500     -0.3480
     11  C1B       60.9570   46.6880   36.7870 C.3   500  FCT500      0.2695
     12  C2B       61.2930   48.1220   36.4340 C.3   500  FCT500      0.2404
     13  C3B       60.6820   49.0700   37.4930 C.3   500  FCT500      0.2167
     14  C4B       59.2000   48.8050   37.5380 C.3   500  FCT500      0.1804
     15  C5B       58.9820   47.3430   37.8880 C.3   500  FCT500      0.1803
     16  C6B       57.5840   46.9080   38.0170 C.3   500  FCT500      0.2141
     17  O2B       62.7120   48.2410   36.3960 O.3   500  FCT500     -0.2149
     18  O3B       60.9430   50.4380   37.1170 O.3   500  FCT500     -0.2175
     19  O4B       58.6230   49.6580   38.5220 O.3   500  FCT500     -0.3257
     20  O5B       59.5630   46.5140   36.8560 O.3   500  FCT500     -0.3257
     21  O6B       56.8970   47.1250   36.7750 O.3   500  FCT500     -0.2176
     22  C1C       57.4810   50.3460   38.1410 C.3   500  FCT500      0.2695
     23  C2C       56.8220   50.8570   39.3980 C.3   500  FCT500      0.2406
     24  C3C       55.6590   51.7970   39.0550 C.3   500  FCT500      0.2198
     25  C4C       56.0610   52.8520   38.0560 C.3   500  FCT500      0.2144
     26  C5C       56.7430   52.2130   36.8520 C.3   500  FCT500      0.1835
     27  C6C       57.1900   53.2250   35.8380 C.3   500  FCT500      0.2142
     28  O2C       56.3870   49.7720   40.2070 O.3   500  FCT500     -0.2149
     29  O3C       55.1870   52.3830   40.2650 O.3   500  FCT500     -0.2174
     30  O4C       54.9300   53.5780   37.6140 O.3   500  FCT500     -0.2176
     31  O5C       57.8550   51.4440   37.3050 O.3   500  FCT500     -0.3256
     32  O6C       58.1180   54.1070   36.4300 O.3   500  FCT500     -0.2176
     33  O6A       64.9490   44.3010   37.2450 O.3   500  FCT500     -0.2176
@<TRIPOS>BOND
     1     7     2    1
     2     8     3    1
     3     3     2    1
     4     3     4    1
     5     2     1    1
     6     1    10    1
     7     9     4    1
     8     9    11    1
     9    27    32    1
    10    27    26    1
    11     4     5    1
    12     5    10    1
    13     5     6    1
    14    17    12    1
    15    12    11    1
    16    12    13    1
    17    21    16    1
    18    11    20    1
    19    26    31    1
    20    26    25    1
    21    20    15    1
    22    18    13    1
    23    33     6    1
    24    31    22    1
    25    13    14    1
    26    14    15    1
    27    14    19    1
    28    30    25    1
    29    15    16    1
    30    25    24    1
    31    22    19    1
    32    22    23    1
    33    24    23    1
    34    24    29    1
    35    23    28    1
