@<TRIPOS>MOLECULE
1h12_XYS_A_1.pdb
 10 10 0 0 0
SMALL
GASTEIGER

@<TRIPOS>ATOM
      1  C1       -11.9690    3.4880    8.8090 C.3   502  XYS502      0.3024
      2  C2       -10.6530    3.4880    9.3970 C.3   502  XYS502      0.2434
      3  C3        -9.9760    2.1680    9.3990 C.3   502  XYS502      0.2199
      4  C4       -10.9840    1.0540    9.7220 C.3   502  XYS502      0.2143
      5  C5       -12.2820    1.2210    8.9520 C.3   502  XYS502      0.1804
      6  O1       -11.8220    3.4220    7.4420 O.3   502  XYS502     -0.1869
      7  O2        -9.7630    4.4660    8.8540 O.3   502  XYS502     -0.2148
      8  O3        -8.8380    2.1720   10.2590 O.3   502  XYS502     -0.2174
      9  O4       -10.4450   -0.2320    9.5730 O.3   502  XYS502     -0.2176
     10  O5       -12.7900    2.5400    9.1820 O.3   502  XYS502     -0.3237
@<TRIPOS>BOND
     1     6     1    1
     2     1    10    1
     3     1     2    1
     4     7     2    1
     5     5    10    1
     6     5     4    1
     7     2     3    1
     8     3     4    1
     9     3     8    1
    10     9     4    1
