@<TRIPOS>MOLECULE
1h12_XYP_A_1.pdb
 10 10 0 0 0
SMALL
GASTEIGER

@<TRIPOS>ATOM
      1  O4A      -12.5280    4.8110    8.9010 O.3   501  XYP501     -0.1869
      2  C1B      -11.9690    3.4880    8.8090 C.3   501  XYP501      0.3024
      3  C2B      -10.6530    3.4880    9.3970 C.3   501  XYP501      0.2434
      4  C3B       -9.9760    2.1680    9.3990 C.3   501  XYP501      0.2199
      5  C4B      -10.9840    1.0540    9.7220 C.3   501  XYP501      0.2143
      6  C5B      -12.2820    1.2210    8.9520 C.3   501  XYP501      0.1804
      7  O2B       -9.7630    4.4660    8.8540 O.3   501  XYP501     -0.2148
      8  O3B       -8.8380    2.1720   10.2590 O.3   501  XYP501     -0.2174
      9  O4B      -10.4450   -0.2320    9.5730 O.3   501  XYP501     -0.2176
     10  O5B      -12.7900    2.5400    9.1820 O.3   501  XYP501     -0.3237
@<TRIPOS>BOND
     1     2     1    1
     2     2    10    1
     3     2     3    1
     4     7     3    1
     5     6    10    1
     6     6     5    1
     7     3     4    1
     8     4     5    1
     9     4     8    1
    10     9     5    1
