@<TRIPOS>MOLECULE
1h16_COA_A_1.pdb
 48 50 0 0 0
SMALL
GASTEIGER

@<TRIPOS>ATOM
      1  N1A       88.6040  -84.6940  -15.4010 N.2   1000  COA1000     0.0021
      2  C2A       88.5170  -85.3620  -16.6140 C.3   1000  COA1000     0.5254
      3  N3A       88.4530  -84.8110  -17.8270 N.2   1000  COA1000    -0.0055
      4  C4A       88.4890  -83.4640  -17.7910 C.2   1000  COA1000     0.3518
      5  C5A       88.5780  -82.6230  -16.6440 C.2   1000  COA1000     0.2526
      6  C6A       88.6370  -83.3150  -15.3450 C.2   1000  COA1000     0.4393
      7  N6A       88.7190  -82.6940  -14.2090 N.pl3 1000  COA1000     0.2180
      8  N7A       88.5930  -81.3110  -16.9840 N.2   1000  COA1000    -0.2095
      9  C8A       88.5140  -81.2930  -18.3130 C.3   1000  COA1000     0.3377
     10  N9A       88.4440  -82.5690  -18.8600 N.pl3 1000  COA1000    -0.1439
     11  C1B       88.2830  -82.8930  -20.3050 C.3   1000  COA1000     0.3185
     12  C2B       89.1690  -84.0030  -20.8100 C.3   1000  COA1000     0.2543
     13  O2B       90.4930  -83.5370  -21.0680 O.3   1000  COA1000    -0.2131
     14  C3B       88.4470  -84.3520  -22.1030 C.3   1000  COA1000     0.1928
     15  O3B       88.5340  -83.3380  -23.0200 O.3   1000  COA1000    -0.2673
     16  P3B       88.5670  -83.7630  -24.6320 P.3   1000  COA1000     0.5327
     17  O7A       89.7760  -84.7730  -24.8120 O.3   1000  COA1000    -0.1145
     18  O8A       88.8680  -82.4540  -25.4620 O.2   1000  COA1000    -0.2224
     19  O9A       87.1870  -84.4450  -25.0050 O.3   1000  COA1000    -0.1145
     20  C4B       86.9970  -84.4910  -21.5560 C.3   1000  COA1000     0.1795
     21  O4B       86.9570  -83.4610  -20.4760 O.3   1000  COA1000    -0.3136
     22  C5B       86.5780  -85.7930  -20.9340 C.3   1000  COA1000     0.1812
     23  O5B       86.6630  -86.7650  -22.0150 O.3   1000  COA1000    -0.3112
     24  P1A       85.5120  -87.8990  -22.1320 P.3   1000  COA1000     0.2189
     25  O1A       85.9730  -88.8420  -23.2310 O.2   1000  COA1000    -0.5170
     26  O2A       84.1350  -87.3250  -22.2760 O.3   1000  COA1000    -0.4371
     27  O3A       85.5440  -88.6720  -20.8060 O.3   1000  COA1000    -0.2703
     28  P2A       86.5260  -89.8380  -20.2320 P.3   1000  COA1000     0.2188
     29  O4A       85.9410  -91.2220  -20.3870 O.3   1000  COA1000    -0.4371
     30  O5A       87.9130  -89.7660  -20.8150 O.2   1000  COA1000    -0.5170
     31  O6A       86.6310  -89.4110  -18.6740 O.3   1000  COA1000    -0.3138
     32  CBP       85.9600  -88.6360  -16.5360 C.3   1000  COA1000     0.0645
     33  CCP       85.5210  -89.4080  -17.8120 C.3   1000  COA1000     0.1519
     34  CDP       87.4920  -88.7900  -16.2100 C.3   1000  COA1000     0.0056
     35  CEP       85.6020  -87.2100  -16.9500 C.3   1000  COA1000     0.0056
     36  CAP       85.1850  -89.1370  -15.2540 C.3   1000  COA1000     0.2312
     37  OAP       85.5020  -88.2660  -14.1280 O.3   1000  COA1000    -0.2131
     38  C9P       83.6680  -89.1660  -15.4160 C.2   1000  COA1000     0.2719
     39  O9P       83.0890  -90.0690  -16.2240 O.2   1000  COA1000    -0.2706
     40  N8P       82.9960  -88.2770  -14.7190 N.am  1000  COA1000    -0.2028
     41  C7P       81.5360  -88.1930  -14.7460 C.3   1000  COA1000     0.1248
     42  C6P       81.0500  -88.2840  -13.2980 C.3   1000  COA1000     0.1102
     43  C5P       81.4830  -89.5720  -12.6330 C.2   1000  COA1000     0.2432
     44  O5P       81.5080  -90.7220  -13.2480 O.2   1000  COA1000    -0.2733
     45  N4P       81.8280  -89.4210  -11.3700 N.am  1000  COA1000    -0.2044
     46  C3P       82.3050  -90.5540  -10.4610 C.3   1000  COA1000     0.1276
     47  C2P       81.0660  -91.3020  -10.0080 C.3   1000  COA1000     0.0920
     48  S1P       81.4370  -92.6410   -8.8190 S.3   1000  COA1000    -0.0802
@<TRIPOS>BOND
     1    18    16    2
     2    19    16    1
     3    17    16    1
     4    16    15    1
     5    25    24    2
     6    15    14    1
     7    26    24    1
     8    24    23    1
     9    24    27    1
    10    14    20    1
    11    14    12    1
    12    23    22    1
    13    20    22    1
    14    20    21    1
    15    13    12    1
    16    30    28    2
    17    12    11    1
    18    27    28    1
    19    21    11    1
    20    29    28    1
    21    11    10    1
    22    28    31    1
    23    10     9    1
    24    10     4    1
    25    31    33    1
    26     9     8    1
    27     3     4    2
    28     3     2    1
    29    33    32    1
    30     4     5    1
    31     8     5    2
    32    35    32    1
    33     5     6    1
    34     2     1    1
    35    32    34    1
    36    32    36    1
    37    39    38    2
    38    38    36    1
    39    38    40   am
    40     1     6    2
    41     6     7    1
    42    36    37    1
    43    41    40    1
    44    41    42    1
    45    42    43    1
    46    44    43    2
    47    43    45   am
    48    45    46    1
    49    46    47    1
    50    47    48    1
