@<TRIPOS>MOLECULE
1h17_COA_A_1.pdb
 48 50 0 0 0
SMALL
GASTEIGER

@<TRIPOS>ATOM
      1  N1A       88.6970  -84.7650  -15.3350 N.2   1000  COA1000     0.0021
      2  C2A       88.6030  -85.4340  -16.5430 C.3   1000  COA1000     0.5254
      3  N3A       88.5350  -84.8870  -17.7640 N.2   1000  COA1000    -0.0055
      4  C4A       88.5740  -83.5420  -17.7380 C.2   1000  COA1000     0.3518
      5  C5A       88.6740  -82.6920  -16.5980 C.2   1000  COA1000     0.2526
      6  C6A       88.7370  -83.3870  -15.2820 C.2   1000  COA1000     0.4393
      7  N6A       88.8250  -82.7580  -14.1480 N.pl3 1000  COA1000     0.2180
      8  N7A       88.6920  -81.3830  -16.9380 N.2   1000  COA1000    -0.2095
      9  C8A       88.6040  -81.3740  -18.2780 C.3   1000  COA1000     0.3377
     10  N9A       88.5260  -82.6500  -18.8200 N.pl3 1000  COA1000    -0.1439
     11  C1B       88.3480  -82.9660  -20.2710 C.3   1000  COA1000     0.3185
     12  C2B       89.2260  -84.0670  -20.8000 C.3   1000  COA1000     0.2543
     13  O2B       90.5330  -83.6170  -21.0630 O.3   1000  COA1000    -0.2131
     14  C3B       88.4950  -84.3950  -22.0960 C.3   1000  COA1000     0.1928
     15  O3B       88.5630  -83.3710  -23.0210 O.3   1000  COA1000    -0.2673
     16  P3B       88.6560  -83.8360  -24.6240 P.3   1000  COA1000     0.5327
     17  O7A       89.8690  -84.8540  -24.7360 O.3   1000  COA1000    -0.1145
     18  O8A       89.0020  -82.5650  -25.5080 O.2   1000  COA1000    -0.2224
     19  O9A       87.2830  -84.5340  -25.0120 O.3   1000  COA1000    -0.1145
     20  C4B       87.0610  -84.5740  -21.5260 C.3   1000  COA1000     0.1795
     21  O4B       87.0140  -83.5290  -20.4530 O.3   1000  COA1000    -0.3136
     22  C5B       86.6920  -85.8970  -20.8930 C.3   1000  COA1000     0.1812
     23  O5B       86.7470  -86.8780  -21.9760 O.3   1000  COA1000    -0.3112
     24  P1A       85.5730  -88.0040  -22.0760 P.3   1000  COA1000     0.2189
     25  O1A       85.9950  -88.9530  -23.1650 O.2   1000  COA1000    -0.5170
     26  O2A       84.1980  -87.4070  -22.2250 O.3   1000  COA1000    -0.4371
     27  O3A       85.6290  -88.7710  -20.7560 O.3   1000  COA1000    -0.2703
     28  P2A       86.6040  -89.9590  -20.2130 P.3   1000  COA1000     0.2188
     29  O4A       85.9960  -91.3290  -20.3940 O.3   1000  COA1000    -0.4371
     30  O5A       87.9890  -89.9220  -20.8110 O.2   1000  COA1000    -0.5170
     31  O6A       86.7200  -89.5390  -18.6440 O.3   1000  COA1000    -0.3138
     32  CBP       86.0110  -88.7250  -16.4930 C.3   1000  COA1000     0.0645
     33  CCP       85.5950  -89.4990  -17.7850 C.3   1000  COA1000     0.1519
     34  CDP       87.5360  -88.8650  -16.1460 C.3   1000  COA1000     0.0056
     35  CEP       85.6490  -87.2880  -16.8880 C.3   1000  COA1000     0.0056
     36  CAP       85.2230  -89.2490  -15.2230 C.3   1000  COA1000     0.2312
     37  OAP       85.5170  -88.3790  -14.0910 O.3   1000  COA1000    -0.2131
     38  C9P       83.7050  -89.2780  -15.3940 C.2   1000  COA1000     0.2719
     39  O9P       83.1150  -90.1750  -16.2150 O.2   1000  COA1000    -0.2706
     40  N8P       83.0480  -88.3920  -14.6800 N.am  1000  COA1000    -0.2028
     41  C7P       81.5910  -88.2700  -14.6940 C.3   1000  COA1000     0.1248
     42  C6P       81.0940  -88.3730  -13.2540 C.3   1000  COA1000     0.1102
     43  C5P       81.5400  -89.6510  -12.5970 C.2   1000  COA1000     0.2432
     44  O5P       81.6050  -90.7910  -13.2200 O.2   1000  COA1000    -0.2733
     45  N4P       81.8600  -89.4940  -11.3260 N.am  1000  COA1000    -0.2044
     46  C3P       82.3530  -90.6060  -10.4080 C.3   1000  COA1000     0.1276
     47  C2P       81.1190  -91.3690   -9.9580 C.3   1000  COA1000     0.0920
     48  S1P       81.5000  -92.7190   -8.7870 S.3   1000  COA1000    -0.0802
@<TRIPOS>BOND
     1    18    16    2
     2    19    16    1
     3    17    16    1
     4    16    15    1
     5    25    24    2
     6    15    14    1
     7    26    24    1
     8    14    20    1
     9    14    12    1
    10    24    23    1
    11    24    27    1
    12    23    22    1
    13    20    22    1
    14    20    21    1
    15    13    12    1
    16    30    28    2
    17    12    11    1
    18    27    28    1
    19    21    11    1
    20    29    28    1
    21    11    10    1
    22    28    31    1
    23    10     9    1
    24    10     4    1
    25    31    33    1
    26     9     8    1
    27    33    32    1
    28     3     4    2
    29     3     2    1
    30     4     5    1
    31     8     5    2
    32    35    32    1
    33     5     6    1
    34     2     1    1
    35    32    34    1
    36    32    36    1
    37    39    38    2
    38    38    36    1
    39    38    40   am
    40     1     6    2
    41     6     7    1
    42    36    37    1
    43    41    40    1
    44    41    42    1
    45    42    43    1
    46    44    43    2
    47    43    45   am
    48    45    46    1
    49    46    47    1
    50    47    48    1
