@<TRIPOS>MOLECULE
1h1b_FUC_A_1.pdb
 10 10 0 0 0
SMALL
GASTEIGER

@<TRIPOS>ATOM
      1  C1         1.7840   22.3970    6.6300 C.3   402  FUC402      0.1776
      2  C2         3.0490   22.4940    5.8130 C.3   402  FUC402      0.2141
      3  C3         4.2110   21.6860    6.3830 C.3   402  FUC402      0.2172
      4  C4         3.7820   20.2780    6.6040 C.3   402  FUC402      0.2116
      5  C5         2.5430   20.3680    7.4960 C.3   402  FUC402      0.1483
      6  C6         2.0190   18.9990    7.8490 C.3   402  FUC402      0.0349
      7  O2         3.4440   23.8470    5.8920 O.3   402  FUC402     -0.2176
      8  O3         5.3290   21.7120    5.5460 O.3   402  FUC402     -0.2175
      9  O4         3.6080   19.5960    5.3540 O.3   402  FUC402     -0.2177
     10  O5         1.4910   21.0470    6.8660 O.3   402  FUC402     -0.3508
@<TRIPOS>BOND
     1     9     4    1
     2     8     3    1
     3     2     7    1
     4     2     3    1
     5     2     1    1
     6     3     4    1
     7     4     5    1
     8     1    10    1
     9    10     5    1
    10     5     6    1
