@<TRIPOS>MOLECULE
1h1b_151_A_1.pdb
 29 31 0 0 0
SMALL
GASTEIGER

@<TRIPOS>ATOM
      1  O3        17.6300   13.2150   24.7210 O.2   400  151400     -0.2673
      2  C2        18.2600   12.7710   23.7530 C.2   400  151400      0.2784
      3  N1        17.8180   11.7320   22.9620 N.am  400  151400     -0.2739
      4  C26       18.6990   10.8960   22.1770 C.3   400  151400      0.0953
      5  C28       17.8690    9.6140   21.8950 C.3   400  151400      0.0425
      6  C29       16.7790    9.7590   22.9390 C.3   400  151400      0.1175
      7  N2        17.4060    9.4000   24.1670 N.3   400  151400     -0.0817
      8  S1        16.3980    8.9010   25.4570 S.O2  400  151400      0.0592
      9  C3        14.7570    8.4460   24.9870 C.3   400  151400      0.1975
     10  O1        17.2610    7.8450   26.0790 O.2   400  151400     -0.1561
     11  O2        16.3070   10.1150   26.3840 O.2   400  151400     -0.1561
     12  C8        16.4560   11.2700   22.9470 C.3   400  151400      0.1008
     13  C7        15.6610   11.6400   21.6890 C.3   400  151400      0.0845
     14  C27       15.2980   13.1440   21.5020 C.3   400  151400      0.0090
     15  C1        14.4650   13.5680   22.7170 C.3   400  151400      0.0005
     16  C17       14.5500   13.3210   20.1680 C.3   400  151400      0.0005
     17  C30       14.3650   10.7910   21.6650 C.2   400  151400      0.2087
     18  O5        13.3700   10.8480   22.4290 O.2   400  151400     -0.2882
     19  C4        19.5570   13.1940   23.5860 C.2   400  151400      0.2092
     20  N3        20.2880   13.2790   22.3560 N.2   400  151400     -0.3662
     21  C5        21.5580   13.6570   22.8740 C.2   400  151400      0.2695
     22  O4        21.6200   13.7970   24.2460 O.2   400  151400     -0.4458
     23  C6        20.3710   13.4650   24.6900 C.3   400  151400      0.2709
     24  C9        22.7260   13.9160   21.9860 C.3   400  151400      0.1726
     25  N4        23.4980   12.7390   21.6410 N.3   400  151400     -0.2640
     26  C11       22.9720   11.9210   20.5440 C.3   400  151400      0.0726
     27  C13       23.7410   12.3760   19.3100 C.3   400  151400      0.0188
     28  C14       25.1290   12.4090   19.9180 C.3   400  151400      0.0188
     29  C12       24.8700   13.1240   21.2540 C.3   400  151400      0.0726
@<TRIPOS>BOND
     1    27    28    1
     2    27    26    1
     3    28    29    1
     4    16    14    1
     5    26    25    1
     6    29    25    1
     7    14    13    1
     8    14    15    1
     9    25    24    1
    10    17    13    1
    11    17    18    2
    12    13    12    1
    13     5     4    1
    14     5     6    1
    15    24    21    1
    16     4     3    1
    17    20    21    2
    18    20    19    2
    19    21    22    1
    20     6    12    1
    21     6     7    1
    22    12     3    1
    23     3     2   am
    24    19     2    1
    25    19    23    1
    26     2     1    2
    27     7     8    1
    28    22    23    1
    29     9     8    1
    30     8    10    2
    31     8    11    2
