@<TRIPOS>MOLECULE
1h1c_PLP_A_1.pdb
 15 15 0 0 0
SMALL
GASTEIGER

@<TRIPOS>ATOM
      1  N1        15.7160   28.9310    1.9340 N.ar  1202  PLP1202    -0.2452
      2  C2        15.4530   28.0740    3.0030 C.ar  1202  PLP1202     0.0978
      3  C2A       15.7650   26.6090    2.7540 C.3   1202  PLP1202     0.0555
      4  C3        14.8900   28.7040    4.2550 C.ar  1202  PLP1202     0.2049
      5  O3        14.6670   27.8300    5.2460 O.3   1202  PLP1202    -0.2857
      6  C4        14.6520   30.1080    4.3150 C.ar  1202  PLP1202     0.0182
      7  C4A       14.0910   30.6940    5.5790 C.3   1202  PLP1202     0.0342
      8  C5        14.9850   30.9290    3.0440 C.ar  1202  PLP1202     0.0261
      9  C6        15.5100   30.3270    1.9040 C.ar  1202  PLP1202     0.0965
     10  C5A       14.7280   32.4590    3.0670 C.3   1202  PLP1202     0.1815
     11  O4P       15.9140   33.1920    3.0750 O.3   1202  PLP1202    -0.2653
     12  P         15.8120   34.8130    2.9510 P.3   1202  PLP1202     0.5329
     13  O1P       17.2070   35.2530    2.9970 O.3   1202  PLP1202    -0.1145
     14  O2P       14.9320   35.2810    4.1450 O.3   1202  PLP1202    -0.1145
     15  O3P       15.1410   35.0790    1.6540 O.2   1202  PLP1202    -0.2224
@<TRIPOS>BOND
     1    15    12    2
     2     9     1   ar
     3     9     8   ar
     4     1     2   ar
     5     3     2    1
     6    12    13    1
     7    12    11    1
     8    12    14    1
     9     2     4   ar
    10     8    10    1
    11     8     6   ar
    12    10    11    1
    13     4     6   ar
    14     4     5    1
    15     6     7    1
