@<TRIPOS>MOLECULE
1h1d_SAM_A_1.pdb
 27 29 0 0 0
SMALL
GASTEIGER

@<TRIPOS>ATOM
      1  N        -21.3610   65.6410   44.1670 N.3   301  SAM301     -0.1208
      2  CA       -22.4460   65.1860   43.2590 C.3   301  SAM301      0.1952
      3  C        -23.6350   66.1180   43.3920 C.2   301  SAM301      0.3819
      4  O        -23.5690   67.0380   44.2090 O.co2 301  SAM301     -0.2441
      5  OXT      -24.6290   65.8570   42.6320 O.co2 301  SAM301     -0.2441
      6  CB       -22.8910   63.7920   43.7010 C.3   301  SAM301      0.0414
      7  CG       -21.7480   62.8810   44.0280 C.3   301  SAM301      0.0503
      8  SD       -22.2170   61.2170   44.6120 S.3   301  SAM301     -0.1761
      9  CE       -22.8080   61.6630   46.2240 C.3   301  SAM301      0.0590
     10  C5'      -20.6280   60.5340   44.8930 C.3   301  SAM301      0.0806
     11  C4'      -19.9300   60.0180   43.6670 C.3   301  SAM301      0.1622
     12  O4'      -18.6370   59.6080   44.1520 O.3   301  SAM301     -0.3153
     13  C3'      -20.5030   58.6810   43.1480 C.3   301  SAM301      0.2168
     14  O3'      -21.1740   58.9930   41.8860 O.3   301  SAM301     -0.2175
     15  C2'      -19.2840   57.7940   42.8770 C.3   301  SAM301      0.2569
     16  O2'      -19.1840   57.0110   41.6920 O.3   301  SAM301     -0.2130
     17  C1'      -18.1100   58.7970   43.1940 C.3   301  SAM301      0.3185
     18  N9       -17.0940   57.7680   43.3740 N.pl3 301  SAM301     -0.1439
     19  C8       -16.9450   57.1290   44.5980 C.3   301  SAM301      0.3377
     20  N7       -15.7190   56.9800   45.0180 N.2   301  SAM301     -0.2095
     21  C5       -14.9610   57.5630   44.0280 C.2   301  SAM301      0.2526
     22  C6       -13.5460   57.7360   43.8640 C.2   301  SAM301      0.4393
     23  N6       -12.6510   57.2900   44.7700 N.pl3 301  SAM301      0.2180
     24  N1       -13.0740   58.3790   42.7400 N.2   301  SAM301      0.0021
     25  C2       -13.9770   58.8230   41.8290 C.3   301  SAM301      0.5254
     26  N3       -15.3280   58.7100   41.8780 N.2   301  SAM301     -0.0055
     27  C4       -15.7670   58.0620   43.0150 C.2   301  SAM301      0.3518
@<TRIPOS>BOND
     1    16    15    1
     2    25    26    1
     3    25    24    1
     4    26    27    2
     5    14    13    1
     6     5     3   ar
     7    24    22    2
     8    15    13    1
     9    15    17    1
    10    27    18    1
    11    27    21    1
    12    13    11    1
    13    17    18    1
    14    17    12    1
    15     2     3    1
    16     2     6    1
    17     2     1    1
    18    18    19    1
    19     3     4   ar
    20    11    12    1
    21    11    10    1
    22     6     7    1
    23    22    21    1
    24    22    23    1
    25     7     8    1
    26    21    20    2
    27    19    20    1
    28     8    10    1
    29     8     9    1
