@<TRIPOS>MOLECULE
1h1d_BIA_A_1.pdb
 31 33 0 0 0
SMALL
GASTEIGER

@<TRIPOS>ATOM
      1  N2       -32.1310   57.6560   52.8040 N.pl3 335  BIA335     -0.3047
      2  C3       -25.7800   61.5100   51.0180 C.ar  335  BIA335      0.0483
      3  C4       -34.1880   57.8240   51.3290 C.ar  335  BIA335      0.0145
      4  O5       -22.7390   62.1550   48.9900 O.3   335  BIA335     -0.2813
      5  C6       -26.7980   59.4820   52.0300 C.2   335  BIA335      0.1746
      6  C7       -24.7050   62.2170   50.2160 C.ar  335  BIA335      0.2360
      7  O8       -27.5510   60.1980   52.6860 O.2   335  BIA335     -0.2913
      8  O9       -24.7790   63.5510   50.0460 O.3   335  BIA335     -0.2831
      9  C10      -35.5750   57.6480   51.1830 C.ar  335  BIA335      0.0012
     10  C11      -25.7260   60.1160   51.2150 C.ar  335  BIA335      0.0398
     11  C12      -30.1400   56.8350   53.9690 C.3   335  BIA335      0.0938
     12  N14      -22.5790   59.1460   49.3440 N.pl3 335  BIA335      0.0610
     13  C16      -29.9440   58.3190   51.9970 C.3   335  BIA335      0.0938
     14  O17      -21.6640   59.6500   48.6720 O.2   335  BIA335     -0.1260
     15  O18      -22.6150   57.9540   49.5540 O.2   335  BIA335     -0.1260
     16  C19      -24.6590   59.3740   50.6480 C.ar  335  BIA335      0.0304
     17  C21      -31.3390   57.9780   51.5870 C.3   335  BIA335      0.1081
     18  C22      -26.9460   57.9630   52.0600 C.3   335  BIA335      0.0864
     19  N23      -29.2900   57.1890   52.7910 N.3   335  BIA335     -0.2694
     20  C24      -35.7170   56.8410   53.4710 C.ar  335  BIA335      0.0726
     21  C25      -31.5190   56.4950   53.5130 C.3   335  BIA335      0.1081
     22  C26      -34.3520   57.0130   53.6240 C.ar  335  BIA335      0.0184
     23  C27      -27.8900   57.5760   53.1910 C.3   335  BIA335      0.0804
     24  C28      -23.6500   60.0230   49.8960 C.ar  335  BIA335      0.1849
     25  C31      -33.5290   57.5030   52.5800 C.ar  335  BIA335      0.0479
     26  C32      -23.6520   61.4490   49.6740 C.ar  335  BIA335      0.2564
     27  C33      -36.4840   56.3070   54.6600 C.3   335  BIA335      0.4186
     28  F37      -37.3670   55.4090   54.1720 F     335  BIA335     -0.1659
     29  F38      -35.7480   55.6470   55.4770 F     335  BIA335     -0.1659
     30  F39      -37.1270   57.2500   55.1660 F     335  BIA335     -0.1659
     31  C37      -36.3660   57.1530   52.2470 C.ar  335  BIA335      0.0039
@<TRIPOS>BOND
     1    14    12    2
     2     4    26    1
     3    12    15    2
     4    12    24    1
     5    26    24   ar
     6    26     6   ar
     7    24    16   ar
     8     8     6    1
     9     6     2   ar
    10    16    10   ar
    11     2    10   ar
    12     9     3   ar
    13     9    31   ar
    14    10     5    1
    15     3    25   ar
    16    17    13    1
    17    17     1    1
    18    13    19    1
    19     5    18    1
    20     5     7    2
    21    18    23    1
    22    31    20   ar
    23    25     1    1
    24    25    22   ar
    25    19    23    1
    26    19    11    1
    27     1    21    1
    28    20    22   ar
    29    20    27    1
    30    21    11    1
    31    28    27    1
    32    27    30    1
    33    27    29    1
