@<TRIPOS>MOLECULE
1h1h_A2P_A_1.pdb
 27 29 0 0 0
SMALL
GASTEIGER

@<TRIPOS>ATOM
      1  P1        17.3840   45.0930   -1.9120 P.3   1134  A2P1134     0.5328
      2  O1P       16.5780   43.8740   -1.6950 O.2   1134  A2P1134    -0.2224
      3  O2P       18.5900   45.0320   -1.0490 O.3   1134  A2P1134    -0.1145
      4  O3P       16.5790   46.2910   -1.5680 O.3   1134  A2P1134    -0.1145
      5  P2        22.8280   47.7390   -2.0220 P.3   1134  A2P1134     0.5327
      6  O4P       22.2750   48.9570   -1.3680 O.3   1134  A2P1134    -0.1145
      7  O5P       23.0750   46.6610   -1.0500 O.3   1134  A2P1134    -0.1145
      8  O6P       24.0400   48.0830   -2.6690 O.2   1134  A2P1134    -0.2224
      9  O5'       21.9260   47.2180   -3.2650 O.3   1134  A2P1134    -0.2675
     10  C5'       21.2770   48.3480   -4.0130 C.3   1134  A2P1134     0.1860
     11  C4'       20.0390   47.8340   -4.7520 C.3   1134  A2P1134     0.1822
     12  O4'       20.4320   46.6240   -5.5320 O.3   1134  A2P1134    -0.3136
     13  C3'       18.8240   47.3950   -3.9140 C.3   1134  A2P1134     0.2157
     14  O3'       17.5770   47.7890   -4.4180 O.3   1134  A2P1134    -0.2175
     15  C2'       19.0460   45.8660   -3.8130 C.3   1134  A2P1134     0.2314
     16  O2'       17.8190   45.1750   -3.4900 O.3   1134  A2P1134    -0.2630
     17  C1'       19.5110   45.5250   -5.1880 C.3   1134  A2P1134     0.3158
     18  N9        20.2700   44.2190   -5.2680 N.pl3 1134  A2P1134    -0.1439
     19  C8        21.3070   43.7310   -4.4480 C.3   1134  A2P1134     0.3377
     20  N7        21.7300   42.5290   -4.8360 N.2   1134  A2P1134    -0.2095
     21  C5        20.9610   42.2280   -5.9220 C.2   1134  A2P1134     0.2526
     22  C6        20.9130   41.0590   -6.8180 C.2   1134  A2P1134     0.4393
     23  N6        21.6950   40.0100   -6.6900 N.pl3 1134  A2P1134     0.2180
     24  N1        19.9750   41.1250   -7.8340 N.2   1134  A2P1134     0.0021
     25  C2        19.1290   42.2090   -8.0110 C.3   1134  A2P1134     0.5254
     26  N3        19.1160   43.2950   -7.2410 N.2   1134  A2P1134    -0.0055
     27  C4        20.0330   43.2570   -6.2300 C.2   1134  A2P1134     0.3518
@<TRIPOS>BOND
     1    25    24    1
     2    25    26    1
     3    24    22    2
     4    26    27    2
     5    22    23    1
     6    22    21    1
     7    27    21    1
     8    27    18    1
     9    21    20    2
    10    12    17    1
    11    12    11    1
    12    18    17    1
    13    18    19    1
    14    17    15    1
    15    20    19    1
    16    11    10    1
    17    11    13    1
    18    14    13    1
    19    10     9    1
    20    13    15    1
    21    15    16    1
    22    16     1    1
    23     9     5    1
    24     8     5    2
    25     5     6    1
    26     5     7    1
    27     1     2    2
    28     1     4    1
    29     1     3    1
