@<TRIPOS>MOLECULE
1h1i_QUE_A_1.pdb
 22 24 0 0 0
SMALL
GASTEIGER

@<TRIPOS>ATOM
      1  C1        68.9900    8.4240   79.9320 C.ar  1358  QUE1358     0.0843
      2  C2        67.6190    8.4580   79.5770 C.ar  1358  QUE1358     0.2046
      3  C3        67.2200    8.7190   78.1680 C.ar  1358  QUE1358     0.1103
      4  C4        68.2850    8.9800   77.1840 C.ar  1358  QUE1358     0.1481
      5  C5        69.6050    8.9580   77.5940 C.ar  1358  QUE1358     0.0792
      6  C6        69.9470    8.6830   78.9330 C.ar  1358  QUE1358     0.2020
      7  C9        65.7950    8.7660   77.6640 C.2   1358  QUE1358     0.2132
      8  C10       65.5170    9.0400   76.2650 C.3   1358  QUE1358     0.2568
      9  C11       66.5500    9.2710   75.4210 C.3   1358  QUE1358     0.2259
     10  C14       66.4420    9.8510   74.0420 C.ar  1358  QUE1358     0.0236
     11  C15       67.6400   10.1640   73.3730 C.ar  1358  QUE1358     0.0028
     12  C16       67.6540   10.6990   72.0800 C.ar  1358  QUE1358     0.0452
     13  C17       66.4200   10.9420   71.4510 C.ar  1358  QUE1358     0.2342
     14  C18       65.1620   10.6170   72.1670 C.ar  1358  QUE1358     0.2341
     15  C19       65.2090   10.0920   73.4440 C.ar  1358  QUE1358     0.0447
     16  O12       67.9330    9.2280   75.8970 O.3   1358  QUE1358    -0.4713
     17  O13       64.8730    8.5730   78.4240 O.2   1358  QUE1358    -0.2883
     18  O23       63.9830   10.8640   71.5740 O.3   1358  QUE1358    -0.2832
     19  O24       66.3390   11.4490   70.2150 O.3   1358  QUE1358    -0.2831
     20  O27       64.2290    9.0220   75.8770 O.3   1358  QUE1358    -0.2104
     21  O29       71.2270    8.6500   79.2400 O.3   1358  QUE1358    -0.2864
     22  O30       66.6760    8.2240   80.4880 O.3   1358  QUE1358    -0.2863
@<TRIPOS>BOND
     1    19    13    1
     2    13    12   ar
     3    13    14   ar
     4    18    14    1
     5    12    11   ar
     6    14    15   ar
     7    11    10   ar
     8    15    10   ar
     9    10     9    1
    10     9    16    1
    11     9     8    1
    12    20     8    1
    13    16     4    1
    14     8     7    1
    15     4     5   ar
    16     4     3   ar
    17     5     6   ar
    18     7     3    1
    19     7    17    2
    20     3     2   ar
    21     6    21    1
    22     6     1   ar
    23     2     1   ar
    24     2    22    1
