@<TRIPOS>MOLECULE
1h1l_CLF_B_1.pdb
 15 36 0 0 0
SMALL
GASTEIGER

@<TRIPOS>ATOM
      1 FE1        29.3890   -2.6220   35.7430 Fe    1520  CLF1520     0.0000
      2 FE2        31.5000   -2.5100   34.2580 Fe    1520  CLF1520     0.0000
      3 FE3        31.1680   -0.5530   36.2480 Fe    1520  CLF1520     0.0000
      4 FE4        31.7460   -3.1360   36.7730 Fe    1520  CLF1520     0.0000
      5  S1        30.6240   -4.6580   35.1790 S.3   1520  CLF1520     0.0000
      6  S2A       29.8620   -0.8230   34.3400 S.3   1520  CLF1520     0.0000
      7  S4A       33.0980   -1.7200   35.6790 S.3   1520  CLF1520     0.0000
      8  S3A       30.0920   -1.8940   37.8430 S.3   1520  CLF1520     0.0000
      9 FE5        32.7880   -5.6210   35.8450 Fe    1520  CLF1520     0.0000
     10 FE6        31.0260   -7.0270   34.5760 Fe    1520  CLF1520     0.0000
     11 FE7        33.7780   -7.4290   33.8780 Fe    1520  CLF1520     0.0000
     12 FE8        32.2260   -5.1440   33.3960 Fe    1520  CLF1520     0.0000
     13  S2B       32.7240   -7.9700   35.8760 S.3   1520  CLF1520     0.0000
     14  S3B       31.8760   -7.2890   32.4090 S.3   1520  CLF1520     0.0000
     15  S4B       34.3820   -5.1990   34.1620 S.3   1520  CLF1520     0.0000
@<TRIPOS>BOND
     1    14    12    1
     2    14    11    1
     3    14    10    1
     4    12    11    1
     5    12    15    1
     6    12    10    1
     7    12     5    1
     8    12     9    1
     9    11    15    1
    10    11    10    1
    11    11     9    1
    12    11    13    1
    13    15     9    1
    14     2     6    1
    15     2     5    1
    16     2     7    1
    17     2     1    1
    18     2     3    1
    19     2     4    1
    20     6     1    1
    21     6     3    1
    22    10     5    1
    23    10     9    1
    24    10    13    1
    25     5     1    1
    26     5     9    1
    27     5     4    1
    28     7     3    1
    29     7     4    1
    30     1     3    1
    31     1     4    1
    32     1     8    1
    33     9    13    1
    34     3     4    1
    35     3     8    1
    36     4     8    1
