@<TRIPOS>MOLECULE
1h1l_CIT_C_1.pdb
 13 12 0 0 0
SMALL
GASTEIGER

@<TRIPOS>ATOM
      1  C1        96.2730  -20.4230   38.2640 C.2   1479  CIT1479     0.3680
      2  O1        96.8970  -19.3820   37.9400 O.co2 1479  CIT1479    -0.2455
      3  O2        96.7120  -21.5820   38.2730 O.co2 1479  CIT1479    -0.2455
      4  C2        94.8570  -20.2100   38.6880 C.3   1479  CIT1479     0.1560
      5  C3        93.9110  -21.4050   38.6940 C.3   1479  CIT1479     0.2402
      6  O7        94.6040  -22.6510   38.7990 O.3   1479  CIT1479    -0.2129
      7  C4        93.0390  -21.2970   37.4620 C.3   1479  CIT1479     0.1560
      8  C5        92.1490  -22.3620   36.9700 C.2   1479  CIT1479     0.3680
      9  O3        92.5990  -23.2230   36.1900 O.co2 1479  CIT1479    -0.2455
     10  O4        90.9500  -22.4190   37.2770 O.co2 1479  CIT1479    -0.2455
     11  C6        92.9250  -21.3080   39.8180 C.2   1479  CIT1479     0.3927
     12  O5        92.8100  -22.3330   40.5350 O.co2 1479  CIT1479    -0.2429
     13  O6        92.2960  -20.2460   39.9570 O.co2 1479  CIT1479    -0.2429
@<TRIPOS>BOND
     1     9     8   ar
     2     8    10   ar
     3     8     7    1
     4     7     5    1
     5     2     1   ar
     6     1     3   ar
     7     1     4    1
     8     4     5    1
     9     5     6    1
    10     5    11    1
    11    11    13   ar
    12    11    12   ar
