@<TRIPOS>MOLECULE
1h1l_CFM_A_1.pdb
 17 33 0 0 0
SMALL
GASTEIGER

@<TRIPOS>ATOM
      1 FE1        37.0700   15.2090   41.8180 Fe    1480  CFM1480     0.0000
      2 FE2        36.9160   12.9720   40.3670 Fe    1480  CFM1480     0.0000
      3 FE3        39.1830   13.5650   41.6100 Fe    1480  CFM1480     0.0000
      4 FE4        38.4080   14.9950   39.5310 Fe    1480  CFM1480     0.0000
      5 FE5        39.6450   13.3790   37.9210 Fe    1480  CFM1480     0.0000
      6 FE6        38.1730   11.4290   38.8190 Fe    1480  CFM1480     0.0000
      7 FE7        40.3860   11.9250   39.9950 Fe    1480  CFM1480     0.0000
      8 MO1        40.5010   10.8490   37.5830 Mo    1480  CFM1480     0.0000
      9  S1A       36.1280   15.0530   39.7540 S.3   1480  CFM1480     0.0000
     10  S4A       39.2300   15.7580   41.4960 S.3   1480  CFM1480     0.0000
     11  S3A       39.2020   15.5140   37.5630 S.3   1480  CFM1480     0.0000
     12  S2A       37.1660   13.0930   42.5790 S.3   1480  CFM1480     0.0000
     13  S1B       38.5590   11.8570   36.6950 S.3   1480  CFM1480     0.0000
     14  S2B       36.0360   11.1780   39.4800 S.3   1480  CFM1480     0.0000
     15  S3B       39.5990    9.9300   39.5510 S.3   1480  CFM1480     0.0000
     16  S4B       41.7440   12.6510   38.3460 S.3   1480  CFM1480     0.0000
     17  S5        41.0680   12.4330   42.0730 S.3   1480  CFM1480     0.0000
@<TRIPOS>BOND
     1    13     8    1
     2    13     5    1
     3    13     6    1
     4    11     5    1
     5    11     4    1
     6     8    16    1
     7     8    15    1
     8     5    16    1
     9     5     6    1
    10     5     4    1
    11     5     7    1
    12    16     7    1
    13     6    14    1
    14     6    15    1
    15     6     7    1
    16     6     2    1
    17    14     2    1
    18     4     9    1
    19     4     2    1
    20     4    10    1
    21     4     3    1
    22    15     7    1
    23     9     2    1
    24     9     1    1
    25     7     3    1
    26     7    17    1
    27     2     3    1
    28     2    12    1
    29    10     3    1
    30    10     1    1
    31     3    17    1
    32     3    12    1
    33     1    12    1
