@<TRIPOS>MOLECULE
1h1m_KMP_A_1.pdb
 21 23 0 0 0
SMALL
GASTEIGER

@<TRIPOS>ATOM
      1  C1        69.0130    8.4750   79.7870 C.ar  1360  KMP1360     0.0843
      2  C2        67.6330    8.4880   79.4490 C.ar  1360  KMP1360     0.2046
      3  C3        67.2560    8.6530   78.0270 C.ar  1360  KMP1360     0.1103
      4  C4        68.2990    8.8710   77.0160 C.ar  1360  KMP1360     0.1481
      5  C5        69.6120    8.8720   77.4300 C.ar  1360  KMP1360     0.0792
      6  C6        69.9700    8.6830   78.7700 C.ar  1360  KMP1360     0.2020
      7  C9        65.8460    8.6770   77.5570 C.2   1360  KMP1360     0.2132
      8  C10       65.5680    8.8820   76.1240 C.3   1360  KMP1360     0.2568
      9  C11       66.5980    9.0710   75.2360 C.3   1360  KMP1360     0.2258
     10  C14       66.4960    9.6720   73.8400 C.ar  1360  KMP1360     0.0204
     11  C15       67.6740   10.1370   73.2500 C.ar  1360  KMP1360     0.0026
     12  C16       67.7200   10.6930   71.9820 C.ar  1360  KMP1360     0.0418
     13  C17       66.4920   10.7860   71.3030 C.ar  1360  KMP1360     0.1957
     14  C18       65.3070   10.3100   71.8670 C.ar  1360  KMP1360     0.0418
     15  C19       65.2890    9.7670   73.1470 C.ar  1360  KMP1360     0.0026
     16  O12       67.9570    9.0330   75.7120 O.3   1360  KMP1360    -0.4713
     17  O13       64.9910    8.5370   78.4180 O.2   1360  KMP1360    -0.2883
     18  O24       66.4620   11.2960   70.0920 O.3   1360  KMP1360    -0.2866
     19  O27       64.2930    8.8500   75.7230 O.3   1360  KMP1360    -0.2104
     20  O29       71.2750    8.6930   79.0110 O.3   1360  KMP1360    -0.2864
     21  O30       66.6670    8.3080   80.3650 O.3   1360  KMP1360    -0.2863
@<TRIPOS>BOND
     1    18    13    1
     2    13    14   ar
     3    13    12   ar
     4    14    15   ar
     5    12    11   ar
     6    15    10   ar
     7    11    10   ar
     8    10     9    1
     9     9    16    1
    10     9     8    1
    11    16     4    1
    12    19     8    1
    13     8     7    1
    14     4     5   ar
    15     4     3   ar
    16     5     6   ar
    17     7     3    1
    18     7    17    2
    19     3     2   ar
    20     6    20    1
    21     6     1   ar
    22     2     1   ar
    23     2    21    1
