@<TRIPOS>MOLECULE
1h1o_HEM_A_1.pdb
 43 50 0 0 0
SMALL
GASTEIGER

@<TRIPOS>ATOM
      1 FE         15.2500   34.5320  -11.9220 Fe    1184  HEM1184     0.0000
      2  CHA       14.7140   34.4420  -15.2490 C.2   1184  HEM1184     0.0000
      3  CHB       11.9680   35.3680  -11.4380 C.2   1184  HEM1184     0.0000
      4  CHC       15.7630   34.5200   -8.5920 C.2   1184  HEM1184     0.0000
      5  CHD       18.4840   33.6560  -12.3950 C.2   1184  HEM1184     0.0000
      6  NA        13.6540   34.8550  -13.1120 N.2   1184  HEM1184     0.0000
      7  C1A       13.6130   34.7740  -14.4590 C.2   1184  HEM1184     0.0000
      8  C2A       12.2880   35.0660  -14.9610 C.2   1184  HEM1184     0.0000
      9  C3A       11.5020   35.3390  -13.8980 C.2   1184  HEM1184     0.0000
     10  C4A       12.3720   35.1960  -12.7330 C.2   1184  HEM1184     0.0000
     11  CMA       10.0470   35.7020  -13.8490 C.3   1184  HEM1184     0.0000
     12  CAA       11.9090   35.0460  -16.4010 C.3   1184  HEM1184     0.0000
     13  CBA       12.2020   36.3530  -17.1230 C.3   1184  HEM1184     0.0000
     14  CGA       11.6930   36.4230  -18.4120 C.2   1184  HEM1184     0.0000
     15  O1A       11.7830   37.5600  -18.9600 O.co2 1184  HEM1184     0.0000
     16  O2A       11.2030   35.4630  -19.0160 O.co2 1184  HEM1184     0.0000
     17  NB        14.1250   34.8740  -10.3670 N.ar  1184  HEM1184     0.0000
     18  C1B       12.7820   35.2090  -10.3330 C.ar  1184  HEM1184     0.0000
     19  C2B       12.3070   35.3560   -8.9820 C.ar  1184  HEM1184     0.0000
     20  C3B       13.3760   35.0820   -8.1890 C.ar  1184  HEM1184     0.0000
     21  C4B       14.4910   34.8170   -9.0480 C.ar  1184  HEM1184     0.0000
     22  CMB       10.8810   35.7100   -8.6250 C.3   1184  HEM1184     0.0000
     23  CAB       13.4800   35.0210   -6.7060 C.3   1184  HEM1184     0.0000
     24  CBB       12.4120   34.1000   -6.0370 C.3   1184  HEM1184     0.0000
     25  NC        16.8010   34.1830  -10.7460 N.2   1184  HEM1184     0.0000
     26  C1C       16.8360   34.2290   -9.3630 C.2   1184  HEM1184     0.0000
     27  C2C       18.1510   33.9100   -8.8640 C.2   1184  HEM1184     0.0000
     28  C3C       18.8940   33.6490   -9.9670 C.2   1184  HEM1184     0.0000
     29  C4C       18.0620   33.8320  -11.0980 C.2   1184  HEM1184     0.0000
     30  CMC       18.5030   33.8830   -7.3890 C.3   1184  HEM1184     0.0000
     31  CAC       20.3710   33.2130  -10.0930 C.3   1184  HEM1184     0.0000
     32  CBC       20.7260   31.9650   -9.2230 C.3   1184  HEM1184     0.0000
     33  ND        16.3630   34.1460  -13.5040 N.ar  1184  HEM1184     0.0000
     34  C1D       17.7020   33.7960  -13.5250 C.ar  1184  HEM1184     0.0000
     35  C2D       18.1920   33.5760  -14.8800 C.ar  1184  HEM1184     0.0000
     36  C3D       17.1390   33.7850  -15.6700 C.ar  1184  HEM1184     0.0000
     37  C4D       15.9950   34.1490  -14.8010 C.ar  1184  HEM1184     0.0000
     38  CMD       19.5970   33.1800  -15.2220 C.3   1184  HEM1184     0.0000
     39  CAD       17.0400   33.6790  -17.1720 C.3   1184  HEM1184     0.0000
     40  CBD       16.9210   32.1460  -17.5910 C.3   1184  HEM1184     0.0000
     41  CGD       17.1950   31.9170  -18.9600 C.2   1184  HEM1184     0.0000
     42  O1D       18.3910   32.0270  -19.4090 O.co2 1184  HEM1184     0.0000
     43  O2D       16.2680   31.5960  -19.7500 O.co2 1184  HEM1184     0.0000
@<TRIPOS>BOND
     1    43    41   ar
     2    42    41   ar
     3    16    14   ar
     4    41    40    1
     5    15    14   ar
     6    14    13    1
     7    40    39    1
     8    39    36    1
     9    13    12    1
    10    12     8    1
    11    36    35   ar
    12    36    37   ar
    13     2    37    2
    14     2     7    1
    15    38    35    1
    16     8     7    1
    17     8     9    2
    18    35    34   ar
    19    37    33   ar
    20     7     6    2
    21     9    11    1
    22     9    10    1
    23    34    33   ar
    24    34     5    2
    25    33     1    1
    26     6    10    1
    27     6     1    1
    28    10     3    2
    29     5    29    1
    30     1    25    1
    31     1    17    1
    32     3    18    1
    33    29    25    2
    34    29    28    1
    35    25    26    1
    36    17    18   ar
    37    17    21   ar
    38    18    19   ar
    39    31    28    1
    40    31    32    1
    41    28    27    2
    42    26    27    1
    43    26     4    2
    44    21     4    1
    45    21    20   ar
    46    19    22    1
    47    19    20   ar
    48    27    30    1
    49    20    23    1
    50    23    24    1
