@<TRIPOS>MOLECULE
1h1p_CMG_A_1.pdb
 18 20 0 0 0
SMALL
GASTEIGER

@<TRIPOS>ATOM
      1  N1        33.3860   45.1310   18.1090 N.2   1298  CMG1298    -0.2855
      2  C2        33.8910   44.4080   16.9780 C.1   1298  CMG1298     0.2533
      3  N3        34.6070   45.0840   16.1150 N.2   1298  CMG1298    -0.2693
      4  C4        34.8710   46.4680   16.3200 C.1   1298  CMG1298     0.1221
      5  C5        34.3380   47.0780   17.3880 C.2   1298  CMG1298     0.2195
      6  C6        33.5680   46.3310   18.3990 C.2   1298  CMG1298     0.3177
      7  O6        33.0800   46.9870   19.4520 O.2   1298  CMG1298    -0.4497
      8  C9        32.7960   46.3000   20.6500 C.3   1298  CMG1298     0.2081
      9  N7        34.7930   48.4110   17.2250 N.2   1298  CMG1298    -0.2273
     10  C8        35.5460   48.4800   16.1920 C.3   1298  CMG1298     0.2628
     11  N9        35.5840   47.3040   15.6090 N.2   1298  CMG1298    -0.1806
     12  N2        33.5970   43.1160   16.8860 N.pl3 1298  CMG1298    -0.0226
     13  C10       31.6720   46.9610   21.4760 C.3   1298  CMG1298     0.0438
     14  C11       31.8010   46.4090   22.9300 C.3   1298  CMG1298     0.0037
     15  C12       30.9550   47.1880   23.9640 C.3   1298  CMG1298     0.0001
     16  C13       31.0980   48.7030   23.8730 C.3   1298  CMG1298     0.0000
     17  C14       30.8100   49.2470   22.4270 C.3   1298  CMG1298     0.0001
     18  C15       31.6670   48.4870   21.3650 C.3   1298  CMG1298     0.0037
@<TRIPOS>BOND
     1    11    10    1
     2    11     4    2
     3     3     4    2
     4     3     2    2
     5    10     9    1
     6     4     5    1
     7    12     2    1
     8     2     1    2
     9     9     5    2
    10     5     6    1
    11     1     6    2
    12     6     7    1
    13     7     8    1
    14     8    13    1
    15    18    13    1
    16    18    17    1
    17    13    14    1
    18    17    16    1
    19    14    15    1
    20    16    15    1
