@<TRIPOS>MOLECULE
1h1q_2A6_A_1.pdb
 24 27 0 0 0
SMALL
GASTEIGER

@<TRIPOS>ATOM
      1  C2         7.8210   43.7020   49.3990 C.1   1298  2A61298     0.2364
      2  C8        10.7390   46.1550   51.6470 C.3   1298  2A61298     0.2628
      3  C10        5.1160   45.2740   51.6170 C.3   1298  2A61298     0.2081
      4  C11        4.1070   45.7240   52.7030 C.3   1298  2A61298     0.0438
      5  C12        2.7660   45.9860   51.9860 C.3   1298  2A61298     0.0037
      6  C13        1.5620   46.0860   52.9390 C.3   1298  2A61298     0.0001
      7  C14        1.4480   44.9690   53.9870 C.3   1298  2A61298     0.0000
      8  C15        2.7870   44.7400   54.7250 C.3   1298  2A61298     0.0001
      9  C16        4.0090   44.6090   53.7920 C.3   1298  2A61298     0.0037
     10  C19        4.6670   40.9170   47.4030 C.ar  1298  2A61298     0.0014
     11  C20        4.0590   40.6480   48.6330 C.ar  1298  2A61298     0.0001
     12  C21        4.6450   41.0930   49.8150 C.ar  1298  2A61298     0.0014
     13  C22        5.8520   41.7890   49.8080 C.ar  1298  2A61298     0.0174
     14  N1         6.8700   44.4890   50.1810 N.2   1298  2A61298    -0.2865
     15  C6         7.2370   45.3850   51.0370 C.2   1298  2A61298     0.3177
     16  O6         6.3200   46.0740   51.7360 O.2   1298  2A61298    -0.4497
     17  C5         8.6590   45.6250   51.1990 C.2   1298  2A61298     0.2195
     18  N7         9.5490   46.4520   51.9630 N.2   1298  2A61298    -0.2273
     19  N9        10.7730   45.2130   50.7360 N.2   1298  2A61298    -0.1806
     20  C4         9.5340   44.9120   50.4780 C.1   1298  2A61298     0.1221
     21  N3         9.0610   43.9200   49.5710 N.2   1298  2A61298    -0.2702
     22  N2         7.6000   42.7620   48.5320 N.pl3 1298  2A61298    -0.1248
     23  C17        6.4450   42.0610   48.5810 C.ar  1298  2A61298     0.0835
     24  C18        5.8550   41.6320   47.3960 C.ar  1298  2A61298     0.0174
@<TRIPOS>BOND
     1    24    10   ar
     2    24    23   ar
     3    10    11   ar
     4    22    23    1
     5    22     1    1
     6    23    13   ar
     7    11    12   ar
     8     1    21    2
     9     1    14    2
    10    21    20    2
    11    13    12   ar
    12    14    15    2
    13    20    19    2
    14    20    17    1
    15    19     2    1
    16    15    17    1
    17    15    16    1
    18    17    18    2
    19     3    16    1
    20     3     4    1
    21     2    18    1
    22     5     4    1
    23     5     6    1
    24     4     9    1
    25     6     7    1
    26     9     8    1
    27     7     8    1
