@<TRIPOS>MOLECULE
1h1r_6CP_A_1.pdb
 25 28 0 0 0
SMALL
GASTEIGER

@<TRIPOS>ATOM
      1  C2         8.2730   43.8540   49.7200 C.1   1298  6CP1298     0.2364
      2  C8        11.1310   46.4380   52.1100 C.3   1298  6CP1298     0.2628
      3  C10        5.5450   45.5290   51.8610 C.3   1298  6CP1298     0.2081
      4  C11        4.4980   45.9170   52.8940 C.3   1298  6CP1298     0.0438
      5  C12        4.6810   45.2640   54.2930 C.3   1298  6CP1298     0.0037
      6  C13        3.6190   45.5920   55.3380 C.3   1298  6CP1298     0.0001
      7  C14        2.1490   45.2400   54.7900 C.3   1298  6CP1298     0.0000
      8  C15        1.9870   45.9430   53.4450 C.3   1298  6CP1298     0.0001
      9  C16        3.0800   45.6370   52.3580 C.3   1298  6CP1298     0.0037
     10  N1         7.2960   44.5980   50.5040 N.2   1298  6CP1298    -0.2865
     11  C6         7.6880   45.5050   51.3510 C.2   1298  6CP1298     0.3177
     12  O6         6.8040   46.2010   52.0640 O.2   1298  6CP1298    -0.4497
     13  C5         9.0930   45.7840   51.5470 C.2   1298  6CP1298     0.2195
     14  N7         9.8900   46.6560   52.3640 N.2   1298  6CP1298    -0.2273
     15  N9        11.2310   45.5000   51.1730 N.2   1298  6CP1298    -0.1806
     16  C4        10.0070   45.0950   50.8360 C.1   1298  6CP1298     0.1221
     17  N3         9.5500   44.0970   49.9120 N.2   1298  6CP1298    -0.2702
     18  C19        5.0490   41.1710   47.4170 C.ar  1298  6CP1298     0.0590
     19  C20        4.3320   40.8230   48.5620 C.ar  1298  6CP1298     0.0115
     20  C21        4.7770   41.2120   49.8320 C.ar  1298  6CP1298     0.0022
     21  C22        5.9530   41.9530   49.9230 C.ar  1298  6CP1298     0.0174
     22  N2         7.8780   42.9620   48.8630 N.pl3 1298  6CP1298    -0.1248
     23  C17        6.6970   42.3100   48.8040 C.ar  1298  6CP1298     0.0844
     24  C18        6.2490   41.9030   47.5330 C.ar  1298  6CP1298     0.0288
     25 CL1         4.5030   40.6710   45.8250 Cl    1298  6CP1298    -0.0822
@<TRIPOS>BOND
     1    25    18    1
     2    18    24   ar
     3    18    19   ar
     4    24    23   ar
     5    19    20   ar
     6    23    22    1
     7    23    21   ar
     8    22     1    1
     9     1    17    2
    10     1    10    2
    11    20    21   ar
    12    17    16    2
    13    10    11    2
    14    16    15    2
    15    16    13    1
    16    15     2    1
    17    11    13    1
    18    11    12    1
    19    13    14    2
    20     3    12    1
    21     3     4    1
    22     2    14    1
    23     9     4    1
    24     9     8    1
    25     4     5    1
    26     8     7    1
    27     5     6    1
    28     7     6    1
