@<TRIPOS>MOLECULE
1h1s_4SP_A_1.pdb
 28 31 0 0 0
SMALL
GASTEIGER

@<TRIPOS>ATOM
      1  C2         7.6500   43.8340   49.7640 C.1   1298  4SP1298     0.2364
      2  C8        10.4750   46.4910   51.9330 C.3   1298  4SP1298     0.2628
      3  C10        4.8960   45.7490   51.7150 C.3   1298  4SP1298     0.2081
      4  C11        3.9390   46.1020   52.8920 C.3   1298  4SP1298     0.0438
      5  C12        4.2880   45.4670   54.2670 C.3   1298  4SP1298     0.0037
      6  C13        3.3970   45.8570   55.4410 C.3   1298  4SP1298     0.0001
      7  C14        1.8520   45.5580   55.1100 C.3   1298  4SP1298     0.0000
      8  C15        1.5320   46.2430   53.7850 C.3   1298  4SP1298     0.0001
      9  C16        2.4500   45.8720   52.5650 C.3   1298  4SP1298     0.0037
     10  C19        4.4350   40.8130   47.8880 C.ar  1298  4SP1298     0.0214
     11  C20        3.6020   40.7530   48.9770 C.ar  1298  4SP1298     0.1251
     12  C21        4.0230   41.4320   50.1800 C.ar  1298  4SP1298     0.0214
     13  C22        5.2240   42.1010   50.1750 C.ar  1298  4SP1298     0.0188
     14  N26        1.0630   40.4980   49.8460 N.3   1298  4SP1298     0.0392
     15  N1         6.6580   44.5200   50.5610 N.2   1298  4SP1298    -0.2865
     16  C6         7.0800   45.4670   51.3690 C.2   1298  4SP1298     0.3177
     17  O6         6.2540   46.2290   52.0730 O.2   1298  4SP1298    -0.4497
     18  C5         8.4650   45.7670   51.5400 C.2   1298  4SP1298     0.2195
     19  N7         9.2320   46.7290   52.2560 N.2   1298  4SP1298    -0.2273
     20  N9        10.5880   45.5050   51.0470 N.2   1298  4SP1298    -0.1806
     21  C4         9.3620   45.1110   50.8140 C.1   1298  4SP1298     0.1221
     22  N3         8.8790   44.0990   49.9700 N.2   1298  4SP1298    -0.2702
     23  N2         7.2860   42.8560   48.9780 N.pl3 1298  4SP1298    -0.1248
     24  C17        6.0650   42.2250   49.0670 C.ar  1298  4SP1298     0.0836
     25  C18        5.6110   41.5340   47.9220 C.ar  1298  4SP1298     0.0188
     26  S23        2.1470   39.7960   48.9300 S.O2  1298  4SP1298     0.0935
     27  O24        2.4550   38.5120   49.5420 O.2   1298  4SP1298    -0.1503
     28  O25        1.5530   39.7400   47.5990 O.2   1298  4SP1298    -0.1503
@<TRIPOS>BOND
     1    28    26    2
     2    10    25   ar
     3    10    11   ar
     4    25    24   ar
     5    26    11    1
     6    26    27    2
     7    26    14    1
     8    11    12   ar
     9    23    24    1
    10    23     1    1
    11    24    13   ar
    12     1    22    2
    13     1    15    2
    14    22    21    2
    15    13    12   ar
    16    15    16    2
    17    21    20    2
    18    21    18    1
    19    20     2    1
    20    16    18    1
    21    16    17    1
    22    18    19    2
    23     3    17    1
    24     3     4    1
    25     2    19    1
    26     9     4    1
    27     9     8    1
    28     4     5    1
    29     8     7    1
    30     5     6    1
    31     7     6    1
