@<TRIPOS>MOLECULE
1h1t_COA_A_1.pdb
 48 50 0 0 0
SMALL
GASTEIGER

@<TRIPOS>ATOM
      1  N1A       39.0780   37.9760   44.0280 N.2   1160  COA1160     0.0021
      2  C2A       38.1980   38.6930   43.2130 C.3   1160  COA1160     0.5254
      3  N3A       37.3080   39.6030   43.5820 N.2   1160  COA1160    -0.0055
      4  C4A       37.2970   39.8200   44.9510 C.2   1160  COA1160     0.3518
      5  C5A       38.1090   39.1880   45.8730 C.2   1160  COA1160     0.2526
      6  C6A       39.0490   38.2130   45.3940 C.2   1160  COA1160     0.4393
      7  N6A       39.8780   37.5430   46.1930 N.pl3 1160  COA1160     0.2180
      8  N7A       37.8440   39.6340   47.1400 N.2   1160  COA1160    -0.2095
      9  C8A       36.8670   40.5450   46.9650 C.3   1160  COA1160     0.3377
     10  N9A       36.4900   40.7050   45.6600 N.pl3 1160  COA1160    -0.1439
     11  C1B       35.4630   41.6040   45.0670 C.3   1160  COA1160     0.3185
     12  C2B       34.4110   40.8380   44.2300 C.3   1160  COA1160     0.2543
     13  O2B       34.1540   41.4820   43.1400 O.3   1160  COA1160    -0.2131
     14  C3B       33.2450   40.8600   45.2050 C.3   1160  COA1160     0.1928
     15  O3B       31.9320   40.8720   44.6040 O.3   1160  COA1160    -0.2673
     16  P3B       31.2680   39.8160   43.6980 P.3   1160  COA1160     0.5327
     17  O7A       31.4880   38.4030   44.1450 O.3   1160  COA1160    -0.1145
     18  O8A       29.8070   39.9590   43.5100 O.3   1160  COA1160    -0.1145
     19  O9A       31.7480   40.0580   42.2050 O.2   1160  COA1160    -0.2224
     20  C4B       33.4010   42.1420   46.0200 C.3   1160  COA1160     0.1795
     21  O4B       34.8600   42.3550   46.1240 O.3   1160  COA1160    -0.3136
     22  C5B       32.8000   42.0590   47.4130 C.3   1160  COA1160     0.1812
     23  O5B       33.7810   42.2940   48.4560 O.3   1160  COA1160    -0.3112
     24  P1A       34.1200   41.1190   49.5180 P.3   1160  COA1160     0.2189
     25  O1A       33.7700   39.8260   48.9100 O.2   1160  COA1160    -0.5170
     26  O2A       35.5540   41.1790   49.8950 O.3   1160  COA1160    -0.4371
     27  O3A       33.2790   41.5840   50.8390 O.3   1160  COA1160    -0.2703
     28  P2A       31.6930   41.7130   51.0480 P.3   1160  COA1160     0.2188
     29  O4A       30.9980   41.2790   49.8120 O.2   1160  COA1160    -0.5170
     30  O5A       31.4380   43.1530   51.3300 O.3   1160  COA1160    -0.4371
     31  O6A       31.2600   40.7810   52.1210 O.3   1160  COA1160    -0.3138
     32  CBP       31.8620   39.4250   54.1600 C.3   1160  COA1160     0.0645
     33  CCP       31.8110   40.8070   53.4470 C.3   1160  COA1160     0.1519
     34  CDP       32.4860   39.5310   55.6000 C.3   1160  COA1160     0.0056
     35  CEP       30.4320   38.8420   54.2740 C.3   1160  COA1160     0.0056
     36  CAP       32.7500   38.3910   53.3420 C.3   1160  COA1160     0.2312
     37  OAP       34.0580   38.9560   53.2140 O.3   1160  COA1160    -0.2131
     38  C9P       33.0350   37.0010   54.0520 C.2   1160  COA1160     0.2719
     39  O9P       31.9710   36.2920   54.1820 O.2   1160  COA1160    -0.2706
     40  N8P       34.3510   36.8450   54.3100 N.am  1160  COA1160    -0.2028
     41  C7P       34.8770   35.4920   54.7710 C.3   1160  COA1160     0.1248
     42  C6P       36.0040   35.6110   55.8290 C.3   1160  COA1160     0.1102
     43  C5P       35.6140   36.6300   56.8930 C.2   1160  COA1160     0.2432
     44  O5P       34.8830   36.1980   57.8190 O.2   1160  COA1160    -0.2733
     45  N4P       36.0250   37.9040   56.8200 N.am  1160  COA1160    -0.2044
     46  C3P       37.2130   38.2460   57.7150 C.3   1160  COA1160     0.1276
     47  C2P       36.9770   38.7480   59.1280 C.3   1160  COA1160     0.0920
     48  S1P       37.5820   40.4020   59.5540 S.3   1160  COA1160    -0.0802
@<TRIPOS>BOND
     1    19    16    2
     2    13    12    1
     3     2     3    1
     4     2     1    1
     5    18    16    1
     6     3     4    2
     7    16    17    1
     8    16    15    1
     9     1     6    2
    10    12    11    1
    11    12    14    1
    12    15    14    1
    13     4    10    1
    14     4     5    1
    15    11    10    1
    16    11    21    1
    17    14    20    1
    18     6     5    1
    19     6     7    1
    20    10     9    1
    21     5     8    2
    22    20    21    1
    23    20    22    1
    24     9     8    1
    25    22    23    1
    26    23    24    1
    27    25    24    2
    28    24    26    1
    29    24    27    1
    30    29    28    2
    31    27    28    1
    32    28    30    1
    33    28    31    1
    34    31    33    1
    35    37    36    1
    36    36    38    1
    37    36    32    1
    38    33    32    1
    39    38    39    2
    40    38    40   am
    41    32    35    1
    42    32    34    1
    43    40    41    1
    44    41    42    1
    45    42    43    1
    46    45    43   am
    47    45    46    1
    48    43    44    2
    49    46    47    1
    50    47    48    1
