@<TRIPOS>MOLECULE
1h1t_PNS_B_1.pdb
 22 21 0 0 0
SMALL
GASTEIGER

@<TRIPOS>ATOM
      1  O23       16.3290   21.5720   35.5480 O.3   1163  PNS1163    -0.1145
      2  P24       15.9540   22.2240   34.1670 P.3   1163  PNS1163     0.5326
      3  O25       17.1810   22.9100   33.5390 O.3   1163  PNS1163    -0.1145
      4  O26       15.3400   21.1470   33.2330 O.2   1163  PNS1163    -0.2224
      5  O27       14.8440   23.3160   34.6810 O.3   1163  PNS1163    -0.2702
      6  C28       14.2110   24.2280   33.7680 C.3   1163  PNS1163     0.1565
      7  C29       12.6790   24.3830   34.0920 C.3   1163  PNS1163     0.0647
      8  C30       12.0170   22.9710   33.9890 C.3   1163  PNS1163     0.0056
      9  C31       12.5360   24.9450   35.5580 C.3   1163  PNS1163     0.0056
     10  C32       12.0990   25.4080   33.0030 C.3   1163  PNS1163     0.2312
     11  O33       12.3690   24.9460   31.6610 O.3   1163  PNS1163    -0.2131
     12  C34       10.5360   25.7220   33.1430 C.2   1163  PNS1163     0.2719
     13  O35       10.1660   26.6130   33.9900 O.2   1163  PNS1163    -0.2706
     14  N36        9.6700   25.0190   32.3400 N.am  1163  PNS1163    -0.2028
     15  C37        8.1970   25.2070   32.3570 C.3   1163  PNS1163     0.1248
     16  C38        7.7760   26.0850   31.1420 C.3   1163  PNS1163     0.1102
     17  C39        8.0620   27.5600   31.4180 C.2   1163  PNS1163     0.2432
     18  O40        7.3550   28.2430   32.1850 O.2   1163  PNS1163    -0.2733
     19  N41        9.1130   28.0760   30.8030 N.am  1163  PNS1163    -0.2044
     20  C42        9.5750   29.5140   30.9480 C.3   1163  PNS1163     0.1276
     21  C43       10.5510   29.5380   32.0220 C.3   1163  PNS1163     0.0920
     22  S44       11.0550   31.1990   32.1700 S.3   1163  PNS1163    -0.0802
@<TRIPOS>BOND
     1    19    20    1
     2    19    17   am
     3    20    21    1
     4    16    17    1
     5    16    15    1
     6    17    18    2
     7    11    10    1
     8    21    22    1
     9    14    15    1
    10    14    12   am
    11    10    12    1
    12    10     7    1
    13    12    13    2
    14     4     2    2
    15     3     2    1
    16     6     7    1
    17     6     5    1
    18     8     7    1
    19     7     9    1
    20     2     5    1
    21     2     1    1
