@<TRIPOS>MOLECULE
1h1v_ATP_A_1.pdb
 31 33 0 0 0
SMALL
GASTEIGER

@<TRIPOS>ATOM
      1  PG        12.9240   39.0620   48.1860 P.3   1377  ATP1377     0.5373
      2  O1G       13.6880   39.8250   47.1630 O.2   1377  ATP1377    -0.2221
      3  O2G       12.9960   37.6380   47.6960 O.3   1377  ATP1377    -0.1143
      4  O3G       11.6230   39.7850   48.3990 O.3   1377  ATP1377    -0.1143
      5  PB        15.0540   38.3860   49.7860 P.3   1377  ATP1377     0.2277
      6  O1B       14.9940   37.0360   49.1080 O.2   1377  ATP1377    -0.5168
      7  O2B       16.1030   39.4210   49.4650 O.3   1377  ATP1377    -0.4368
      8  O3B       13.6490   39.1300   49.6130 O.3   1377  ATP1377    -0.2258
      9  PA        14.8480   36.8410   52.0370 P.3   1377  ATP1377     0.2189
     10  O1A       15.9580   35.8890   51.7090 O.2   1377  ATP1377    -0.5170
     11  O2A       13.4590   36.4190   51.7470 O.3   1377  ATP1377    -0.4371
     12  O3A       15.0850   38.2590   51.3630 O.3   1377  ATP1377    -0.2700
     13  O5'       14.8090   37.1490   53.5910 O.3   1377  ATP1377    -0.3112
     14  C5'       15.0280   38.5010   53.9400 C.3   1377  ATP1377     0.1813
     15  C4'       13.8070   39.0970   54.5930 C.3   1377  ATP1377     0.1821
     16  O4'       13.3520   38.1330   55.4990 O.3   1377  ATP1377    -0.3135
     17  C3'       14.1900   40.2880   55.4550 C.3   1377  ATP1377     0.2184
     18  O3'       13.3040   41.3720   55.3460 O.3   1377  ATP1377    -0.2174
     19  C2'       14.1180   39.7820   56.8690 C.3   1377  ATP1377     0.2570
     20  O2'       13.6360   40.7070   57.8150 O.3   1377  ATP1377    -0.2130
     21  C1'       13.0720   38.7470   56.7480 C.3   1377  ATP1377     0.3186
     22  N9        13.1800   37.8630   57.9150 N.pl3 1377  ATP1377    -0.1439
     23  C8        14.2260   37.0880   58.2150 C.3   1377  ATP1377     0.3377
     24  N7        14.0220   36.3930   59.3570 N.2   1377  ATP1377    -0.2095
     25  C5        12.8450   36.7560   59.8050 C.2   1377  ATP1377     0.2526
     26  C6        12.0180   36.3480   60.9630 C.2   1377  ATP1377     0.4393
     27  N6        12.3510   35.4750   61.9180 N.pl3 1377  ATP1377     0.2180
     28  N1        10.8980   37.0100   60.8640 N.2   1377  ATP1377     0.0021
     29  C2        10.2690   37.8950   60.1220 C.3   1377  ATP1377     0.5254
     30  N3        11.0070   38.2400   59.0370 N.2   1377  ATP1377    -0.0055
     31  C4        12.2500   37.7110   58.8430 C.2   1377  ATP1377     0.3518
@<TRIPOS>BOND
     1     2     1    2
     2     3     1    1
     3     1     4    1
     4     1     8    1
     5     6     5    2
     6     7     5    1
     7     8     5    1
     8     5    12    1
     9    12     9    1
    10    10     9    2
    11    11     9    1
    12     9    13    1
    13    13    14    1
    14    14    15    1
    15    15    17    1
    16    15    16    1
    17    18    17    1
    18    17    19    1
    19    16    21    1
    20    21    19    1
    21    21    22    1
    22    19    20    1
    23    22    23    1
    24    22    31    1
    25    23    24    1
    26    31    30    2
    27    31    25    1
    28    30    29    1
    29    24    25    2
    30    25    26    1
    31    29    28    1
    32    28    26    2
    33    26    27    1
