@<TRIPOS>MOLECULE
1h1w_ATP_A_1.pdb
 31 33 0 0 0
SMALL
GASTEIGER

@<TRIPOS>ATOM
      1  PG        46.4640   25.0530    3.6910 P.3   1373  ATP1373     0.5373
      2  O1G       47.4060   23.9110    3.7630 O.3   1373  ATP1373    -0.1143
      3  O2G       46.7940   26.1820    2.7840 O.2   1373  ATP1373    -0.2221
      4  O3G       46.2800   25.6580    5.1700 O.3   1373  ATP1373    -0.1143
      5  PB        44.5600   22.9690    3.6050 P.3   1373  ATP1373     0.2277
      6  O1B       43.0830   22.8980    3.6690 O.2   1373  ATP1373    -0.5168
      7  O2B       45.3450   22.4740    4.7660 O.3   1373  ATP1373    -0.4368
      8  O3B       44.9760   24.5130    3.3440 O.3   1373  ATP1373    -0.2258
      9  PA        45.0750   20.6130    2.1210 P.3   1373  ATP1373     0.2189
     10  O1A       45.5470   20.2910    0.7540 O.2   1373  ATP1373    -0.5170
     11  O2A       45.8070   20.0350    3.2700 O.3   1373  ATP1373    -0.4371
     12  O3A       45.0700   22.2310    2.2550 O.3   1373  ATP1373    -0.2700
     13  O5'       43.5160   20.2230    2.2450 O.3   1373  ATP1373    -0.3112
     14  C5'       42.5280   20.9250    1.4890 C.3   1373  ATP1373     0.1813
     15  C4'       41.1270   20.3790    1.7760 C.3   1373  ATP1373     0.1821
     16  O4'       40.9070   19.0240    1.2790 O.3   1373  ATP1373    -0.3135
     17  C3'       40.7770   20.3210    3.2510 C.3   1373  ATP1373     0.2184
     18  O3'       40.3600   21.6150    3.6970 O.3   1373  ATP1373    -0.2174
     19  C2'       39.6080   19.3740    3.2700 C.3   1373  ATP1373     0.2570
     20  O2'       38.4100   20.0760    2.9240 O.3   1373  ATP1373    -0.2130
     21  C1'       39.9390   18.3460    2.1730 C.3   1373  ATP1373     0.3186
     22  N9        40.6280   17.1560    2.7470 N.pl3 1373  ATP1373    -0.1439
     23  C8        41.8640   17.1260    3.2740 C.3   1373  ATP1373     0.3377
     24  N7        42.1430   15.8770    3.6670 N.2   1373  ATP1373    -0.2095
     25  C5        41.0880   15.1180    3.3900 C.2   1373  ATP1373     0.2526
     26  C6        40.8000   13.7680    3.5710 C.2   1373  ATP1373     0.4393
     27  N6        41.6980   12.9640    4.1270 N.pl3 1373  ATP1373     0.2180
     28  N1        39.5970   13.2830    3.1750 N.2   1373  ATP1373     0.0021
     29  C2        38.6790   14.0850    2.6150 C.3   1373  ATP1373     0.5254
     30  N3        38.9370   15.3890    2.4310 N.2   1373  ATP1373    -0.0055
     31  C4        40.1250   15.9250    2.8100 C.2   1373  ATP1373     0.3518
@<TRIPOS>BOND
     1    10     9    2
     2    16    15    1
     3    16    21    1
     4    14    15    1
     5    14    13    1
     6    15    17    1
     7     9    13    1
     8     9    12    1
     9     9    11    1
    10    21    22    1
    11    21    19    1
    12    12     5    1
    13    30    29    1
    14    30    31    2
    15    29    28    1
    16    22    31    1
    17    22    23    1
    18     3     1    2
    19    31    25    1
    20    20    19    1
    21    28    26    2
    22    17    19    1
    23    17    18    1
    24    23    24    1
    25     8     5    1
    26     8     1    1
    27    25    26    1
    28    25    24    2
    29    26    27    1
    30     5     6    2
    31     5     7    1
    32     1     2    1
    33     1     4    1
