@<TRIPOS>MOLECULE
1h1x_HEM_A_1.pdb
 43 50 0 0 0
SMALL
GASTEIGER

@<TRIPOS>ATOM
      1 FE         55.6830    4.1370   -2.9530 Fe    1154  HEM1154     0.0000
      2  CHA       52.9600    2.4750   -4.2310 C.2   1154  HEM1154     0.0000
      3  CHB       53.7390    5.3670   -0.4030 C.2   1154  HEM1154     0.0000
      4  CHC       58.3100    6.0380   -1.8580 C.2   1154  HEM1154     0.0000
      5  CHD       57.5950    3.0240   -5.5810 C.2   1154  HEM1154     0.0000
      6  NA        53.7460    3.9860   -2.4470 N.2   1154  HEM1154     0.0000
      7  C1A       52.7850    3.2450   -3.0930 C.2   1154  HEM1154     0.0000
      8  C2A       51.5410    3.3560   -2.3500 C.2   1154  HEM1154     0.0000
      9  C3A       51.7570    4.1330   -1.2960 C.2   1154  HEM1154     0.0000
     10  C4A       53.1280    4.5540   -1.3350 C.2   1154  HEM1154     0.0000
     11  CMA       50.7110    4.5810   -0.2690 C.3   1154  HEM1154     0.0000
     12  CAA       50.2250    2.6450   -2.7150 C.3   1154  HEM1154     0.0000
     13  NB        55.9780    5.4050   -1.4260 N.ar  1154  HEM1154     0.0000
     14  C1B       55.0460    5.7780   -0.4680 C.ar  1154  HEM1154     0.0000
     15  C2B       55.6620    6.6810    0.4920 C.ar  1154  HEM1154     0.0000
     16  C3B       56.9220    6.8840    0.0670 C.ar  1154  HEM1154     0.0000
     17  C4B       57.1470    6.0770   -1.1280 C.ar  1154  HEM1154     0.0000
     18  CMB       54.8940    7.2880    1.6620 C.3   1154  HEM1154     0.0000
     19  CAB       57.9920    7.7740    0.6420 C.2   1154  HEM1154     0.0000
     20  CBB       57.7290    8.9540    1.1760 C.2   1154  HEM1154     0.0000
     21  NC        57.6090    4.4160   -3.5530 N.2   1154  HEM1154     0.0000
     22  C1C       58.4900    5.3450   -3.0340 C.2   1154  HEM1154     0.0000
     23  C2C       59.6500    5.4240   -3.9000 C.2   1154  HEM1154     0.0000
     24  C3C       59.4580    4.5500   -4.9140 C.2   1154  HEM1154     0.0000
     25  C4C       58.1570    3.9470   -4.7400 C.2   1154  HEM1154     0.0000
     26  CMC       60.8780    6.3070   -3.5750 C.3   1154  HEM1154     0.0000
     27  CAC       60.2670    4.2800   -6.1790 C.2   1154  HEM1154     0.0000
     28  CBC       61.4220    4.8990   -6.4750 C.2   1154  HEM1154     0.0000
     29  ND        55.3570    2.9010   -4.5400 N.ar  1154  HEM1154     0.0000
     30  C1D       56.3020    2.5880   -5.5360 C.ar  1154  HEM1154     0.0000
     31  C2D       55.7100    1.7380   -6.5240 C.ar  1154  HEM1154     0.0000
     32  C3D       54.2930    1.6330   -6.1580 C.ar  1154  HEM1154     0.0000
     33  C4D       54.1340    2.3700   -4.9240 C.ar  1154  HEM1154     0.0000
     34  CMD       56.3960    1.1610   -7.7620 C.3   1154  HEM1154     0.0000
     35  CAD       53.1740    0.9470   -6.9270 C.3   1154  HEM1154     0.0000
     36  CBD       52.5400    2.0290   -7.8390 C.3   1154  HEM1154     0.0000
     37  CGD       51.3980    1.4890   -8.6430 C.2   1154  HEM1154     0.0000
     38  O1D       51.3670    1.6690   -9.8570 O.co2 1154  HEM1154     0.0000
     39  O2D       50.5140    0.8280   -8.1130 O.co2 1154  HEM1154     0.0000
     40  CBA       49.2620    3.4050   -3.5930 C.3   1154  HEM1154     0.0000
     41  CGA       48.0380    2.5480   -3.8680 C.2   1154  HEM1154     0.0000
     42  O1A       47.8460    2.1300   -5.0440 O.co2 1154  HEM1154     0.0000
     43  O2A       47.2670    2.2630   -2.9000 O.co2 1154  HEM1154     0.0000
@<TRIPOS>BOND
     1    38    37   ar
     2    37    39   ar
     3    37    36    1
     4    36    35    1
     5    34    31    1
     6    35    32    1
     7    31    32   ar
     8    31    30   ar
     9    28    27    2
    10    27    24    1
    11    32    33   ar
    12     5    30    2
    13     5    25    1
    14    30    29   ar
    15    42    41   ar
    16    33    29   ar
    17    33     2    2
    18    24    25    1
    19    24    23    2
    20    25    21    2
    21    29     1    1
    22     2     7    1
    23    23    26    1
    24    23    22    1
    25    41    40    1
    26    41    43   ar
    27    40    12    1
    28    21    22    1
    29    21     1    1
    30     7     6    2
    31     7     8    1
    32    22     4    2
    33     1     6    1
    34     1    13    1
    35    12     8    1
    36     6    10    1
    37     8     9    2
    38     4    17    1
    39    13    17   ar
    40    13    14   ar
    41    10     9    1
    42    10     3    2
    43     9    11    1
    44    17    16   ar
    45    14     3    1
    46    14    15   ar
    47    16    15   ar
    48    16    19    1
    49    15    18    1
    50    19    20    2
