@<TRIPOS>MOLECULE
1h21_HEC_A_1.pdb
 43 50 0 0 0
SMALL
GASTEIGER

@<TRIPOS>ATOM
      1 FE         79.7480   34.6300   54.5920 Fe    1248  HEC1248     0.0000
      2  CHA       79.6170   32.8490   57.4770 C.2   1248  HEC1248     0.0000
      3  CHB       76.4020   34.3290   54.1690 C.2   1248  HEC1248     0.0000
      4  CHC       79.9250   36.7100   51.8800 C.2   1248  HEC1248     0.0000
      5  CHD       83.1700   34.3720   54.6480 C.2   1248  HEC1248     0.0000
      6  NA        78.3420   33.7340   55.5810 N.ar  1248  HEC1248     0.0000
      7  C1A       78.4250   33.0920   56.7970 C.ar  1248  HEC1248     0.0000
      8  C2A       77.0950   32.6550   57.2500 C.ar  1248  HEC1248     0.0000
      9  C3A       76.1770   32.9670   56.2930 C.ar  1248  HEC1248     0.0000
     10  C4A       76.9570   33.6710   55.2640 C.ar  1248  HEC1248     0.0000
     11  CMA       74.6970   32.6050   56.2880 C.3   1248  HEC1248     0.0000
     12  CAA       76.8330   31.9620   58.5690 C.3   1248  HEC1248     0.0000
     13  CBA       76.1570   32.7300   59.6710 C.3   1248  HEC1248     0.0000
     14  CGA       76.9410   33.9380   60.1450 C.2   1248  HEC1248     0.0000
     15  O1A       77.1030   34.9210   59.4000 O.co2 1248  HEC1248     0.0000
     16  O2A       77.3400   33.9500   61.3180 O.co2 1248  HEC1248     0.0000
     17  NB        78.4700   35.4150   53.3080 N.2   1248  HEC1248     0.0000
     18  C1B       77.0990   35.1440   53.2590 C.2   1248  HEC1248     0.0000
     19  C2B       76.4450   35.7880   52.1240 C.2   1248  HEC1248     0.0000
     20  C3B       77.4040   36.6110   51.5190 C.2   1248  HEC1248     0.0000
     21  C4B       78.6810   36.2890   52.2500 C.2   1248  HEC1248     0.0000
     22  CMB       75.0380   35.4390   51.6400 C.3   1248  HEC1248     0.0000
     23  CAB       77.1660   37.6660   50.5700 C.3   1248  HEC1248     0.0000
     24  CBB       76.1520   38.7070   50.7220 C.3   1248  HEC1248     0.0000
     25  NC        81.2200   35.4920   53.5740 N.ar  1248  HEC1248     0.0000
     26  C1C       81.1210   36.3450   52.4830 C.ar  1248  HEC1248     0.0000
     27  C2C       82.4140   36.5500   51.8400 C.ar  1248  HEC1248     0.0000
     28  C3C       83.3270   35.8370   52.5880 C.ar  1248  HEC1248     0.0000
     29  C4C       82.5950   35.2000   53.6700 C.ar  1248  HEC1248     0.0000
     30  CMC       82.6410   37.2950   50.5000 C.3   1248  HEC1248     0.0000
     31  CAC       84.6840   35.6980   52.3730 C.3   1248  HEC1248     0.0000
     32  CBC       85.5450   36.8520   52.3370 C.3   1248  HEC1248     0.0000
     33  ND        81.0940   33.8270   55.8430 N.2   1248  HEC1248     0.0000
     34  C1D       82.4700   33.7450   55.6940 C.2   1248  HEC1248     0.0000
     35  C2D       83.0740   32.9800   56.8000 C.2   1248  HEC1248     0.0000
     36  C3D       82.0750   32.6570   57.6180 C.2   1248  HEC1248     0.0000
     37  C4D       80.8740   33.1710   57.0230 C.2   1248  HEC1248     0.0000
     38  CMD       84.5290   32.5380   56.9560 C.3   1248  HEC1248     0.0000
     39  CAD       82.1470   31.8360   58.9030 C.3   1248  HEC1248     0.0000
     40  CBD       82.8830   32.5170   60.0470 C.3   1248  HEC1248     0.0000
     41  CGD       82.2240   33.8170   60.4540 C.2   1248  HEC1248     0.0000
     42  O1D       82.6950   34.8890   60.0020 O.co2 1248  HEC1248     0.0000
     43  O2D       81.2420   33.7610   61.2310 O.co2 1248  HEC1248     0.0000
@<TRIPOS>BOND
     1    30    27    1
     2    23    24    1
     3    23    20    1
     4    20    19    2
     5    20    21    1
     6    22    19    1
     7    27    26   ar
     8    27    28   ar
     9     4    21    2
    10     4    26    1
    11    19    18    1
    12    21    17    1
    13    32    31    1
    14    31    28    1
    15    26    25   ar
    16    28    29   ar
    17    18    17    2
    18    18     3    1
    19    17     1    1
    20    25    29   ar
    21    25     1    1
    22    29     5    1
    23     3    10    2
    24     1     6    1
    25     1    33    1
    26     5    34    2
    27    10     6   ar
    28    10     9   ar
    29     6     7   ar
    30    34    33    1
    31    34    35    1
    32    33    37    2
    33    11     9    1
    34     9     8   ar
    35     7     8   ar
    36     7     2    2
    37    35    38    1
    38    35    36    2
    39    37     2    1
    40    37    36    1
    41     8    12    1
    42    36    39    1
    43    12    13    1
    44    39    40    1
    45    15    14   ar
    46    13    14    1
    47    42    41   ar
    48    40    41    1
    49    14    16   ar
    50    41    43   ar
