@<TRIPOS>MOLECULE
1h22_E10_A_1.pdb
 34 37 0 0 0
SMALL
GASTEIGER

@<TRIPOS>ATOM
      1  C1         4.6110   59.5350   71.3530 C.1   1536  E101536     0.2045
      2  N2         3.7670   58.4830   71.6150 N.2   1536  E101536    -0.3414
      3  C3         2.7900   58.4320   72.5350 C.2   1536  E101536     0.1046
      4  C4         2.5470   59.5350   73.3460 C.3   1536  E101536     0.0877
      5  C5         3.4020   60.7310   73.1820 C.2   1536  E101536    -0.0049
      6  C6         4.4030   60.7540   72.2300 C.2   1536  E101536     0.1024
      7  O7         5.4310   59.4610   70.4410 O.2   1536  E101536    -0.2093
      8  C9         2.0090   57.0990   72.6480 C.3   1536  E101536     0.0558
      9  C10        1.4540   59.5250   74.4340 C.3   1536  E101536     0.0831
     10  C13        0.7230   58.1450   74.5910 C.3   1536  E101536     0.0186
     11  C14        0.6170   57.3300   73.2570 C.3   1536  E101536     0.0086
     12  N17        0.4270   60.6230   74.0930 N.3   1536  E101536    -0.2187
     13  C24       -0.3570   60.4920   72.7930 C.3   1536  E101536     0.0887
     14  C29        0.9910   68.3680   60.8990 C.1   1536  E101536     0.1844
     15  N30        2.3790   68.3900   60.9720 N.2   1536  E101536    -0.3408
     16  C31        3.1540   68.3130   62.0900 C.2   1536  E101536     0.1186
     17  C32        2.5630   68.1880   63.3530 C.2   1536  E101536     0.0167
     18  C33        1.0760   68.1260   63.4100 C.2   1536  E101536    -0.0081
     19  C34        0.2890   68.2110   62.2470 C.3   1536  E101536     0.1605
     20  O35        0.4230   68.5620   59.8060 O.2   1536  E101536    -0.2138
     21  C36        4.6770   68.3630   61.8600 C.3   1536  E101536     0.0597
     22  C37        3.4630   68.1010   64.6320 C.3   1536  E101536     0.0968
     23  C38        4.9830   67.9090   64.3050 C.3   1536  E101536     0.0224
     24  C39        5.4440   68.7620   63.1480 C.3   1536  E101536     0.0092
     25  N40        3.1490   66.9030   65.5150 N.3   1536  E101536    -0.2150
     26  C41        4.1450   66.5400   66.6350 C.3   1536  E101536     0.0890
     27  C63       -0.8540   61.8630   72.3690 C.3   1536  E101536     0.0188
     28  C64        0.2800   62.8330   72.0220 C.3   1536  E101536     0.0015
     29  C65        1.0520   62.4120   70.8010 C.3   1536  E101536     0.0000
     30  C66        1.7930   63.5830   70.1510 C.3   1536  E101536     0.0000
     31  C67        3.2970   63.2790   70.1170 C.3   1536  E101536     0.0000
     32  C68        4.1290   63.8550   68.9560 C.3   1536  E101536     0.0000
     33  C69        4.2940   65.3940   68.9250 C.3   1536  E101536     0.0015
     34  C70        3.3800   66.0170   67.8370 C.3   1536  E101536     0.0188
@<TRIPOS>BOND
     1    20    14    2
     2    14    15    2
     3    14    19    1
     4    15    16    2
     5    21    16    1
     6    21    24    1
     7    16    17    1
     8    19    18    1
     9    24    23    1
    10    17    18    2
    11    17    22    1
    12    23    22    1
    13    22    25    1
    14    25    26    1
    15    26    34    1
    16    34    33    1
    17    33    32    1
    18    32    31    1
    19    31    30    1
    20    30    29    1
    21     7     1    2
    22    29    28    1
    23     1     2    2
    24     1     6    1
    25     2     3    2
    26    28    27    1
    27     6     5    2
    28    27    13    1
    29     3     8    1
    30     3     4    1
    31     8    11    1
    32    13    12    1
    33     5     4    1
    34    11    10    1
    35     4     9    1
    36    12     9    1
    37     9    10    1
