@<TRIPOS>MOLECULE
1h23_E12_A_1.pdb
 36 39 0 0 0
SMALL
GASTEIGER

@<TRIPOS>ATOM
      1  C1         4.5220   59.6020   71.6660 C.1   1536  E121536     0.2045
      2  N2         3.7000   58.5110   71.8970 N.2   1536  E121536    -0.3414
      3  O7         5.3310   59.6040   70.7170 O.2   1536  E121536    -0.2093
      4  C4         2.5050   59.4210   73.7420 C.3   1536  E121536     0.0877
      5  C5         3.3450   60.6450   73.5970 C.2   1536  E121536    -0.0049
      6  C14        0.6330   57.1930   73.6090 C.3   1536  E121536     0.0086
      7  N17        0.4280   60.3760   74.7650 N.3   1536  E121536    -0.2187
      8  C24       -0.4130   60.5350   73.4890 C.3   1536  E121536     0.0887
      9  C6         4.3040   60.7580   72.6160 C.2   1536  E121536     0.1024
     10  C9         2.0050   57.0360   72.9280 C.3   1536  E121536     0.0558
     11  C10        1.4770   59.2970   74.8870 C.3   1536  E121536     0.0831
     12  C13        0.7840   57.9110   74.9890 C.3   1536  E121536     0.0186
     13  C63       -0.7010   62.0450   73.3950 C.3   1536  E121536     0.0188
     14  C29        1.0830   68.6220   60.9810 C.1   1536  E121536     0.2045
     15  C3         2.7510   58.3750   72.8710 C.2   1536  E121536     0.1046
     16  N30        2.4730   68.5940   61.0220 N.2   1536  E121536    -0.3414
     17  C31        3.2580   68.5600   62.1370 C.2   1536  E121536     0.1046
     18  C32        2.6510   68.5270   63.3920 C.3   1536  E121536     0.0877
     19  C33        1.1680   68.5310   63.4560 C.2   1536  E121536    -0.0049
     20  C34        0.3990   68.5670   62.3320 C.2   1536  E121536     0.1024
     21  O35        0.4940   68.7720   59.9020 O.2   1536  E121536    -0.2093
     22  C36        4.7870   68.5540   61.9260 C.3   1536  E121536     0.0558
     23  C37        3.5080   68.5300   64.6550 C.3   1536  E121536     0.0831
     24  C38        5.0070   68.2500   64.4180 C.3   1536  E121536     0.0186
     25  C39        5.5200   69.0220   63.1970 C.3   1536  E121536     0.0086
     26  N40        3.0380   67.5970   65.7540 N.3   1536  E121536    -0.2187
     27  C41        3.1900   66.1310   65.5760 C.3   1536  E121536     0.0887
     28  C64       -0.4650   62.5560   71.9940 C.3   1536  E121536     0.0015
     29  C65        1.0260   62.5860   71.6890 C.3   1536  E121536     0.0000
     30  C66        1.2970   62.4980   70.2080 C.3   1536  E121536     0.0000
     31  C67        2.7810   62.5820   69.9290 C.3   1536  E121536     0.0000
     32  C68        3.3450   63.9720   70.1360 C.3   1536  E121536     0.0000
     33  C69        4.6020   64.2420   69.3260 C.3   1536  E121536     0.0000
     34  C70        4.8080   65.7340   69.1310 C.3   1536  E121536     0.0000
     35  C71        3.9550   66.3340   68.0170 C.3   1536  E121536     0.0015
     36  C72        4.1820   65.6650   66.6480 C.3   1536  E121536     0.0188
@<TRIPOS>BOND
     1    21    14    2
     2    14    16    2
     3    14    20    1
     4    16    17    2
     5    22    17    1
     6    22    25    1
     7    17    18    1
     8    20    19    2
     9    25    24    1
    10    18    19    1
    11    18    23    1
    12    24    23    1
    13    23    26    1
    14    27    26    1
    15    27    36    1
    16    36    35    1
    17    35    34    1
    18    34    33    1
    19    33    32    1
    20    31    32    1
    21    31    30    1
    22    30    29    1
    23     3     1    2
    24     1     2    2
    25     1     9    1
    26    29    28    1
    27     2    15    2
    28    28    13    1
    29     9     5    2
    30    15    10    1
    31    15     4    1
    32    10     6    1
    33    13     8    1
    34     8     7    1
    35     5     4    1
    36     6    12    1
    37     4    11    1
    38     7    11    1
    39    11    12    1
