@<TRIPOS>MOLECULE
1h27_III_E_1.pdb
 50 51 0 0 0
SMALL
GASTEIGER

@<TRIPOS>ATOM
      1  N          7.4690  149.7980   73.1510 N.3    30  ARG30      -0.1231
      2  CA         8.5040  150.8660   73.2540 C.3    30  ARG30       0.1694
      3  C          9.4110  150.9180   72.0200 C.2    30  ARG30       0.2592
      4  O          9.9920  149.9130   71.6190 O.2    30  ARG30      -0.2718
      5  CB         9.3560  150.6550   74.5060 C.3    30  ARG30       0.0321
      6  CG        10.7560  151.2450   74.3960 C.3    30  ARG30       0.0489
      7  CD        11.4320  151.4930   75.7310 C.3    30  ARG30       0.2205
      8  NE        11.4060  150.3140   76.5940 N.pl3  30  ARG30      -0.0865
      9  CZ        12.2870  149.3240   76.5390 C.cat  30  ARG30       0.5346
     10  NH1       13.2630  149.3480   75.6420 N.pl3  30  ARG30       0.1354
     11  NH2       12.1920  148.3030   77.3790 N.pl3  30  ARG30       0.1354
     12  N          9.4810  152.0870   71.3920 N.am   31  ASN31      -0.1960
     13  CA        10.4670  152.3540   70.3520 C.3    31  ASN31       0.1819
     14  C         11.8650  152.5520   70.9460 C.2    31  ASN31       0.2621
     15  O         12.0230  153.2010   71.9770 O.2    31  ASN31      -0.2715
     16  CB        10.0400  153.5960   69.5660 C.3    31  ASN31       0.1195
     17  CG        10.9770  153.9200   68.4250 C.2    31  ASN31       0.2630
     18  OD1       12.1340  154.2720   68.6400 O.2    31  ASN31      -0.2716
     19  ND2       10.4600  153.8680   67.2040 N.am   31  ASN31      -0.0877
     20  N         12.8740  151.9840   70.2900 N.am   32  LEU32      -0.1963
     21  CA        14.2420  152.0040   70.8060 C.3    32  LEU32       0.1728
     22  C         15.1150  153.1050   70.1940 C.2    32  LEU32       0.2616
     23  O         15.1410  154.2300   70.6880 O.2    32  LEU32      -0.2715
     24  CB        14.9100  150.6450   70.5850 C.3    32  LEU32       0.0311
     25  CG        14.3910  149.4770   71.4220 C.3    32  LEU32       0.0022
     26  CD1       15.2380  148.2480   71.1760 C.3    32  LEU32       0.0001
     27  CD2       14.3800  149.8310   72.8940 C.3    32  LEU32       0.0001
     28  N         15.8720  152.7600   69.1540 N.am   33  PHE33      -0.1960
     29  CA        16.8920  153.6560   68.6130 C.3    33  PHE33       0.1771
     30  C         16.3450  154.6470   67.5960 C.2    33  PHE33       0.2620
     31  O         17.0890  155.4730   67.0700 O.2    33  PHE33      -0.2715
     32  CB        18.0100  152.8480   67.9680 C.3    33  PHE33       0.0574
     33  CG        18.3470  151.6020   68.7130 C.ar   33  PHE33      -0.0200
     34  CD1       17.5800  150.4630   68.5590 C.ar   33  PHE33      -0.0042
     35  CD2       19.4080  151.5750   69.5980 C.ar   33  PHE33      -0.0042
     36  CE1       17.8770  149.3160   69.2590 C.ar   33  PHE33      -0.0003
     37  CE2       19.7120  150.4260   70.2950 C.ar   33  PHE33      -0.0003
     38  CZ        18.9460  149.2980   70.1270 C.ar   33  PHE33      -0.0000
     39  N         15.0550  154.5470   67.2950 N.am   34  GLY34      -0.1940
     40  CA        14.4070  155.4990   66.4100 C.3    34  GLY34       0.1999
     41  C         13.8980  156.7020   67.1830 C.2    34  GLY34       0.2481
     42  O         13.8200  156.6700   68.4140 O.2    34  GLY34      -0.2729
     43  N         13.5280  157.7610   66.4690 N.am   35  PRO35      -0.2699
     44  CA        13.0270  158.9800   67.1120 C.3    35  PRO35       0.1791
     45  C         11.8540  158.6850   68.0510 C.2    35  PRO35       0.3825
     46  O         11.9210  158.8810   69.2660 O.co2  35  PRO35      -0.2438
     47  CB        12.5800  159.8470   65.9230 C.3    35  PRO35       0.0332
     48  CG        12.4290  158.8880   64.7790 C.3    35  PRO35       0.0238
     49  CD        13.5030  157.8630   64.9980 C.3    35  PRO35       0.0940
     50  OXT       10.8060  158.1890   67.6400 O.co2  35  PRO35      -0.2438
@<TRIPOS>BOND
     1    48    49    1
     2    48    47    1
     3    49    43    1
     4    47    44    1
     5    40    41    1
     6    40    39    1
     7    43    44    1
     8    43    41   am
     9    31    30    2
    10    44    45    1
    11    41    42    2
    12    19    17   am
    13    39    30   am
    14    30    29    1
    15    50    45   ar
    16    32    29    1
    17    32    33    1
    18    45    46   ar
    19    17    18    2
    20    17    16    1
    21    34    33   ar
    22    34    36   ar
    23    29    28    1
    24    33    35   ar
    25    28    22   am
    26    36    38   ar
    27    16    13    1
    28    35    37   ar
    29    38    37   ar
    30    22    23    2
    31    22    21    1
    32    20    21    1
    33    20    14   am
    34    13    14    1
    35    13    12    1
    36    24    21    1
    37    24    25    1
    38    14    15    2
    39    26    25    1
    40    12     3   am
    41    25    27    1
    42     4     3    2
    43     3     2    1
    44     1     2    1
    45     2     5    1
    46     6     5    1
    47     6     7    1
    48    10     9    1
    49     7     8    1
    50     9     8    2
    51     9    11    1
