@<TRIPOS>MOLECULE
1h29_HEC_A_10.pdb
 43 50 0 0 0
SMALL
GASTEIGER

@<TRIPOS>ATOM
      1 FE         75.9020   96.4900   -5.3770 Fe    1110  HEC1110     0.0000
      2  CHA       73.7310   95.4420   -2.9490 C.2   1110  HEC1110     0.0000
      3  CHB       73.4900   95.9050   -7.7370 C.2   1110  HEC1110     0.0000
      4  CHC       77.8850   97.8860   -7.8150 C.2   1110  HEC1110     0.0000
      5  CHD       78.3590   97.0120   -3.0750 C.2   1110  HEC1110     0.0000
      6  NA        73.9660   95.8600   -5.3320 N.ar  1110  HEC1110     0.0000
      7  C1A       73.3020   95.3350   -4.2460 C.ar  1110  HEC1110     0.0000
      8  C2A       72.0820   94.6920   -4.7170 C.ar  1110  HEC1110     0.0000
      9  C3A       72.0310   94.8380   -6.0430 C.ar  1110  HEC1110     0.0000
     10  C4A       73.2010   95.5700   -6.4480 C.ar  1110  HEC1110     0.0000
     11  CMA       70.9490   94.3210   -7.0110 C.3   1110  HEC1110     0.0000
     12  CAA       71.0170   93.9630   -3.8530 C.3   1110  HEC1110     0.0000
     13  CBA       70.2980   94.9460   -2.9440 C.3   1110  HEC1110     0.0000
     14  CGA       69.8170   96.1170   -3.7580 C.2   1110  HEC1110     0.0000
     15  O1A       70.4650   97.1980   -3.7460 O.co2 1110  HEC1110     0.0000
     16  O2A       68.7790   95.9680   -4.4370 O.co2 1110  HEC1110     0.0000
     17  NB        75.7250   96.8340   -7.3730 N.2   1110  HEC1110     0.0000
     18  C1B       74.6350   96.5150   -8.1490 C.2   1110  HEC1110     0.0000
     19  C2B       74.8880   96.9300   -9.5040 C.2   1110  HEC1110     0.0000
     20  C3B       76.1000   97.4680   -9.5390 C.2   1110  HEC1110     0.0000
     21  C4B       76.6430   97.4300   -8.2030 C.2   1110  HEC1110     0.0000
     22  CMB       73.9080   96.7370  -10.6660 C.3   1110  HEC1110     0.0000
     23  CAB       76.7670   98.0650  -10.7910 C.2   1110  HEC1110     0.0000
     24  CBB       76.1170   99.0460  -11.4430 C.2   1110  HEC1110     0.0000
     25  NC        77.7690   97.2880   -5.4360 N.ar  1110  HEC1110     0.0000
     26  C1C       78.4190   97.7930   -6.5530 C.ar  1110  HEC1110     0.0000
     27  C2C       79.7430   98.2320   -6.1700 C.ar  1110  HEC1110     0.0000
     28  C3C       79.8800   97.9860   -4.8600 C.ar  1110  HEC1110     0.0000
     29  C4C       78.6360   97.3990   -4.3720 C.ar  1110  HEC1110     0.0000
     30  CMC       80.8050   98.8540   -7.1240 C.3   1110  HEC1110     0.0000
     31  CAC       81.1420   98.2760   -4.0180 C.2   1110  HEC1110     0.0000
     32  CBC       81.7410   99.4780   -4.0950 C.2   1110  HEC1110     0.0000
     33  ND        76.0070   96.2850   -3.3280 N.2   1110  HEC1110     0.0000
     34  C1D       77.1610   96.5250   -2.5800 C.2   1110  HEC1110     0.0000
     35  C2D       76.9120   96.1770   -1.1960 C.2   1110  HEC1110     0.0000
     36  C3D       75.4600   95.6890   -1.1590 C.2   1110  HEC1110     0.0000
     37  C4D       74.9940   95.7900   -2.5270 C.2   1110  HEC1110     0.0000
     38  CMD       77.9300   96.2930   -0.0400 C.3   1110  HEC1110     0.0000
     39  CAD       74.6140   95.1770    0.0280 C.3   1110  HEC1110     0.0000
     40  CBD       74.0400   96.3380    0.8300 C.3   1110  HEC1110     0.0000
     41  CGD       73.3990   95.8340    2.1130 C.2   1110  HEC1110     0.0000
     42  O1D       72.4210   96.4950    2.5750 O.co2 1110  HEC1110     0.0000
     43  O2D       73.8490   94.7850    2.6790 O.co2 1110  HEC1110     0.0000
@<TRIPOS>BOND
     1    24    23    2
     2    23    20    1
     3    22    19    1
     4    20    19    2
     5    20    21    1
     6    19    18    1
     7    21     4    2
     8    21    17    1
     9    18     3    1
    10    18    17    2
    11     4    26    1
    12     3    10    2
    13    17     1    1
    14    30    27    1
    15    11     9    1
    16    26    27   ar
    17    26    25   ar
    18    10     9   ar
    19    10     6   ar
    20    27    28   ar
    21     9     8   ar
    22    25     1    1
    23    25    29   ar
    24     1     6    1
    25     1    33    1
    26     6     7   ar
    27    28    29   ar
    28    28    31    1
    29     8     7   ar
    30     8    12    1
    31    16    14   ar
    32    29     5    1
    33     7     2    2
    34    32    31    2
    35    12    13    1
    36    14    15   ar
    37    14    13    1
    38    33    34    1
    39    33    37    2
    40     5    34    2
    41     2    37    1
    42    34    35    1
    43    37    36    1
    44    35    36    2
    45    35    38    1
    46    36    39    1
    47    39    40    1
    48    40    41    1
    49    41    42   ar
    50    41    43   ar
