@<TRIPOS>MOLECULE
1h2b_OCA_A_1.pdb
 10 9 0 0 0
SMALL
GASTEIGER

@<TRIPOS>ATOM
      1  C1        80.9550   -3.4630   -4.2470 C.2   1360  OCA1360     0.3649
      2  C2        82.1120   -4.2400   -4.8700 C.3   1360  OCA1360     0.1141
      3  C3        82.3920   -5.5110   -4.0610 C.3   1360  OCA1360     0.0118
      4  C4        83.1300   -6.5810   -4.8600 C.3   1360  OCA1360     0.0006
      5  C5        83.4630   -7.7430   -3.9200 C.3   1360  OCA1360     0.0000
      6  C6        84.6780   -8.5250   -4.3970 C.3   1360  OCA1360     0.0000
      7  C7        84.8230   -9.8120   -3.5660 C.3   1360  OCA1360     0.0000
      8  C8        86.2560  -10.3100   -3.4690 C.3   1360  OCA1360     0.0000
      9  O1        80.4030   -2.5370   -4.9400 O.co2 1360  OCA1360    -0.2457
     10  O2        80.5350   -3.7930   -3.1120 O.co2 1360  OCA1360    -0.2457
@<TRIPOS>BOND
     1     9     1   ar
     2     2     1    1
     3     2     3    1
     4     4     3    1
     5     4     5    1
     6     6     5    1
     7     6     7    1
     8     1    10   ar
     9     7     8    1
