@<TRIPOS>MOLECULE
1h2b_NAJ_A_1.pdb
 44 48 0 0 0
SMALL
GASTEIGER

@<TRIPOS>ATOM
      1  PA        79.5440    7.1650   -8.5380 P.3   1361  NAJ1361     0.2189
      2  O1A       79.2050    6.9970  -10.0190 O.2   1361  NAJ1361    -0.5170
      3  O2A       78.4140    7.5500   -7.5950 O.3   1361  NAJ1361    -0.4371
      4  O5B       80.6290    8.2670   -8.3070 O.3   1361  NAJ1361    -0.3112
      5  C5B       81.7630    8.4650   -9.1560 C.3   1361  NAJ1361     0.1813
      6  C4B       82.1600    9.9240   -8.9720 C.3   1361  NAJ1361     0.1821
      7  O4B       83.3410   10.1390   -9.7080 O.3   1361  NAJ1361    -0.3135
      8  C3B       81.1240   10.9260   -9.5480 C.3   1361  NAJ1361     0.2184
      9  O3B       80.7730   11.8980   -8.5810 O.3   1361  NAJ1361    -0.2174
     10  C2B       81.8100   11.4330  -10.7990 C.3   1361  NAJ1361     0.2570
     11  O2B       81.3800   12.7010  -11.2800 O.3   1361  NAJ1361    -0.2130
     12  C1B       83.2620   11.4090  -10.3630 C.3   1361  NAJ1361     0.3186
     13  N9A       84.1940   11.4200  -11.4780 N.pl3 1361  NAJ1361    -0.1439
     14  C8A       84.0770   10.8700  -12.7440 C.3   1361  NAJ1361     0.3377
     15  N7A       85.2290   11.1110  -13.4030 N.2   1361  NAJ1361    -0.2095
     16  C5A       86.0780   11.8110  -12.5800 C.2   1361  NAJ1361     0.2526
     17  C6A       87.3470   12.3460  -12.7350 C.2   1361  NAJ1361     0.4393
     18  N6A       88.0470   12.2440  -13.8790 N.pl3 1361  NAJ1361     0.2180
     19  N1A       87.9550   13.0120  -11.6810 N.2   1361  NAJ1361     0.0021
     20  C2A       87.2260   13.1810  -10.4980 C.3   1361  NAJ1361     0.5254
     21  N3A       85.9870   12.6820  -10.3380 N.2   1361  NAJ1361    -0.0055
     22  C4A       85.4120   11.9950  -11.3720 C.2   1361  NAJ1361     0.3518
     23  O3        80.2190    5.7710   -8.1330 O.3   1361  NAJ1361    -0.2703
     24  PN        80.1990    5.0260   -6.7040 P.3   1361  NAJ1361     0.2189
     25  O1N       79.0020    4.1780   -6.6320 O.2   1361  NAJ1361    -0.5170
     26  O2N       80.5420    6.0300   -5.6680 O.3   1361  NAJ1361    -0.4371
     27  O5D       81.4510    4.0550   -6.9160 O.3   1361  NAJ1361    -0.3112
     28  C5D       82.7540    4.6180   -7.0180 C.3   1361  NAJ1361     0.1813
     29  C4D       83.7790    3.5660   -7.4820 C.3   1361  NAJ1361     0.1799
     30  O4D       83.9570    2.6310   -6.3920 O.3   1361  NAJ1361    -0.3327
     31  C3D       83.2670    2.6820   -8.6310 C.3   1361  NAJ1361     0.2158
     32  O3D       84.3850    2.2990   -9.4070 O.3   1361  NAJ1361    -0.2175
     33  C2D       82.6430    1.4940   -7.9430 C.3   1361  NAJ1361     0.2309
     34  O2D       82.5070    0.3510   -8.7490 O.3   1361  NAJ1361    -0.2158
     35  C1D       83.6810    1.3110   -6.8450 C.3   1361  NAJ1361     0.2263
     36  N1N       83.2950    0.4730   -5.6930 N.pl3 1361  NAJ1361    -0.2787
     37  C2N       84.3540   -0.0740   -4.9970 C.3   1361  NAJ1361     0.1244
     38  C3N       84.0980   -0.7750   -3.8370 C.2   1361  NAJ1361     0.0544
     39  C7N       85.2680   -1.4260   -3.1430 C.2   1361  NAJ1361     0.2818
     40  O7N       84.9520   -2.1760   -2.1000 O.2   1361  NAJ1361    -0.2670
     41  N7N       86.5190   -1.2720   -3.5380 N.am  1361  NAJ1361    -0.0839
     42  C4N       82.7870   -0.9080   -3.2900 C.2   1361  NAJ1361     0.0033
     43  C5N       81.7540   -0.1930   -3.9410 C.2   1361  NAJ1361     0.0157
     44  C6N       82.0410    0.4990   -5.1080 C.2   1361  NAJ1361     0.0633
@<TRIPOS>BOND
     1    18    17    1
     2    15    14    1
     3    15    16    2
     4    14    13    1
     5    17    16    1
     6    17    19    2
     7    16    22    1
     8    19    20    1
     9    13    22    1
    10    13    12    1
    11    22    21    2
    12    11    10    1
    13    10    12    1
    14    10     8    1
    15    20    21    1
    16    12     7    1
    17     2     1    2
    18     7     6    1
    19     8     6    1
    20     8     9    1
    21    32    31    1
    22     5     6    1
    23     5     4    1
    24    34    33    1
    25    31    33    1
    26    31    29    1
    27     1     4    1
    28     1    23    1
    29     1     3    1
    30    23    24    1
    31    33    35    1
    32    29    28    1
    33    29    30    1
    34    28    27    1
    35    27    24    1
    36    35    30    1
    37    35    36    1
    38    24    25    2
    39    24    26    1
    40    36    44    1
    41    36    37    1
    42    44    43    2
    43    37    38    1
    44    43    42    1
    45    38    42    2
    46    38    39    1
    47    41    39   am
    48    39    40    2
