@<TRIPOS>MOLECULE
1h2f_VA3_A_1.pdb
 11 10 0 0 0
SMALL
GASTEIGER

@<TRIPOS>ATOM
      1  V1        58.1570  -29.6240  -12.1990 V     1209  VA31209     0.0000
      2  O0        57.7240  -31.2430  -11.7820 O.3   1209  VA31209     0.0000
      3  V2        56.8590  -28.5200   -9.6300 V     1209  VA31209     0.0000
      4  O2        56.3760  -26.8990   -9.2020 O.3   1209  VA31209     0.0000
      5  O3        57.2890  -28.4150  -11.3210 O.3   1209  VA31209     0.0000
      6  O4        55.5190  -29.6010   -9.4040 O.3   1209  VA31209     0.0000
      7  V3        59.1660  -30.3970   -8.5070 V     1209  VA31209     0.0000
      8  O6        58.1960  -28.9290   -8.5350 O.3   1209  VA31209     0.0000
      9  O7        60.7430  -29.8790   -8.0140 O.3   1209  VA31209     0.0000
     10  O9        59.8770  -29.3490  -12.1420 O.3   1209  VA31209     0.0000
     11  O8        58.5580  -31.4820   -7.3060 O.3   1209  VA31209     0.0000
@<TRIPOS>BOND
     1     1    10    1
     2     1     2    1
     3     1     5    1
     4     5     3    1
     5     3     6    1
     6     3     4    1
     7     3     8    1
     8     8     7    1
     9     7     9    1
    10     7    11    1
