@<TRIPOS>MOLECULE
1h2h_NAD_A_1.pdb
 44 48 0 0 0
SMALL
GASTEIGER

@<TRIPOS>ATOM
      1  PA        40.2570  -11.1280  101.2040 P.3   1242  NAD1242     0.2189
      2  O1A       39.3790  -11.4200  100.0420 O.2   1242  NAD1242    -0.5170
      3  O2A       39.6340  -10.9950  102.5430 O.3   1242  NAD1242    -0.4371
      4  O5B       41.4400  -12.2470  101.2540 O.3   1242  NAD1242    -0.3112
      5  C5B       42.0750  -12.6230  102.4890 C.3   1242  NAD1242     0.1813
      6  C4B       42.4030  -14.1190  102.4560 C.3   1242  NAD1242     0.1821
      7  O4B       43.5320  -14.4170  103.3640 O.3   1242  NAD1242    -0.3135
      8  C3B       41.2130  -14.9380  102.9200 C.3   1242  NAD1242     0.2184
      9  O3B       40.9130  -15.9840  101.9710 O.3   1242  NAD1242    -0.2174
     10  C2B       41.6130  -15.5410  104.2460 C.3   1242  NAD1242     0.2570
     11  O2B       41.1070  -16.8860  104.3730 O.3   1242  NAD1242    -0.2130
     12  C1B       43.1340  -15.5100  104.2630 C.3   1242  NAD1242     0.3186
     13  N9A       43.7060  -15.3280  105.6440 N.pl3 1242  NAD1242    -0.1439
     14  C8A       43.2590  -14.4750  106.6390 C.3   1242  NAD1242     0.3377
     15  N7A       44.0710  -14.6000  107.7180 N.2   1242  NAD1242    -0.2095
     16  C5A       44.9550  -15.4940  107.3610 C.2   1242  NAD1242     0.2526
     17  C6A       45.9720  -15.9000  108.2070 C.2   1242  NAD1242     0.4393
     18  N6A       46.0990  -15.4110  109.4420 N.pl3 1242  NAD1242     0.2180
     19  N1A       46.8390  -16.8420  107.7220 N.2   1242  NAD1242     0.0021
     20  C2A       46.6760  -17.3410  106.4510 C.3   1242  NAD1242     0.5254
     21  N3A       45.6480  -16.9040  105.6530 N.2   1242  NAD1242    -0.0055
     22  C4A       44.7760  -15.9630  106.1240 C.2   1242  NAD1242     0.3518
     23  O3        41.0710   -9.7770  100.8810 O.3   1242  NAD1242    -0.2703
     24  PN        42.2290   -9.3060   99.8450 P.3   1242  NAD1242     0.2189
     25  O1N       41.7460   -8.0960   99.1420 O.3   1242  NAD1242    -0.4371
     26  O2N       42.6750  -10.4730   99.0450 O.2   1242  NAD1242    -0.5170
     27  O5D       43.4120   -8.8850  100.8370 O.3   1242  NAD1242    -0.3112
     28  C5D       43.0530   -8.2320  102.0460 C.3   1242  NAD1242     0.1813
     29  C4D       44.2550   -7.7370  102.7880 C.3   1242  NAD1242     0.1799
     30  O4D       45.0380   -6.8580  101.9040 O.3   1242  NAD1242    -0.3327
     31  C3D       43.7910   -6.9340  103.9690 C.3   1242  NAD1242     0.2158
     32  O3D       44.3760   -7.4280  105.1840 O.3   1242  NAD1242    -0.2175
     33  C2D       44.2160   -5.5160  103.7070 C.3   1242  NAD1242     0.2309
     34  O2D       44.7620   -4.9280  104.9010 O.3   1242  NAD1242    -0.2158
     35  C1D       45.2540   -5.5940  102.6040 C.3   1242  NAD1242     0.2263
     36  N1N       45.1680   -4.4160  101.6740 N.pl3 1242  NAD1242    -0.2787
     37  C2N       46.2180   -3.4550  101.6970 C.3   1242  NAD1242     0.1244
     38  C3N       46.1610   -2.3240  100.8580 C.2   1242  NAD1242     0.0544
     39  C7N       47.3040   -1.2720  100.8730 C.2   1242  NAD1242     0.2818
     40  O7N       47.2510   -0.2730  100.1570 O.2   1242  NAD1242    -0.2670
     41  N7N       48.3140   -1.5200  101.7120 N.am  1242  NAD1242    -0.0839
     42  C4N       45.0470   -2.1580   99.9870 C.2   1242  NAD1242     0.0033
     43  C5N       43.9970   -3.1090   99.9500 C.2   1242  NAD1242     0.0157
     44  C6N       44.0480   -4.2360  100.7860 C.2   1242  NAD1242     0.0633
@<TRIPOS>BOND
     1    26    24    2
     2    25    24    1
     3    24    27    1
     4    24    23    1
     5    43    42    1
     6    43    44    2
     7    42    38    2
     8     2     1    2
     9    40    39    2
    10    44    36    1
    11    27    28    1
    12    38    39    1
    13    38    37    1
    14    39    41   am
    15    23     1    1
    16     1     4    1
    17     1     3    1
    18     4     5    1
    19    36    37    1
    20    36    35    1
    21    30    35    1
    22    30    29    1
    23     9     8    1
    24    28    29    1
    25     6     5    1
    26     6     8    1
    27     6     7    1
    28    35    33    1
    29    29    31    1
    30     8    10    1
    31     7    12    1
    32    33    31    1
    33    33    34    1
    34    31    32    1
    35    10    12    1
    36    10    11    1
    37    12    13    1
    38    13    22    1
    39    13    14    1
    40    21    22    2
    41    21    20    1
    42    22    16    1
    43    20    19    1
    44    14    15    1
    45    16    15    2
    46    16    17    1
    47    19    17    2
    48    17    18    1
