@<TRIPOS>MOLECULE
1h2j_DCB_A_1.pdb
 35 37 0 0 0
SMALL
GASTEIGER

@<TRIPOS>ATOM
      1  C1A       61.2130   41.5130   36.1900 C.3   1304  DCB1304     0.3242
      2  C2A       60.1620   41.9960   35.1870 C.3   1304  DCB1304     0.2629
      3  C3A       60.4200   43.4390   34.7530 C.3   1304  DCB1304     0.2201
      4  C4A       61.0100   44.1700   35.9470 C.3   1304  DCB1304     0.1807
      5  C5A       62.4440   43.6610   36.1230 C.3   1304  DCB1304     0.1814
      6  C6A       63.0930   44.1370   37.4180 C.3   1304  DCB1304     0.2141
      7  O1A       60.5980   41.5550   37.5070 O.3   1304  DCB1304    -0.4486
      8  F2A       60.1730   41.1980   34.0610 F     1304  DCB1304    -0.2276
      9  O3A       59.1630   43.9460   34.3910 O.3   1304  DCB1304    -0.2172
     10  O4A       61.0960   45.5570   35.6730 O.3   1304  DCB1304    -0.3257
     11  O5A       62.4770   42.2170   36.1160 O.3   1304  DCB1304    -0.3156
     12  O6A       62.2890   43.7750   38.5570 O.3   1304  DCB1304    -0.2176
     13  C1B       60.6910   46.3660   36.7680 C.3   1304  DCB1304     0.2695
     14  C2B       61.0320   47.7830   36.3870 C.3   1304  DCB1304     0.2406
     15  C3B       60.4270   48.7470   37.4070 C.3   1304  DCB1304     0.2198
     16  C4B       58.9260   48.4810   37.5160 C.3   1304  DCB1304     0.2144
     17  C5B       58.6860   47.0130   37.8750 C.3   1304  DCB1304     0.1835
     18  C6B       57.2370   46.5890   37.9700 C.3   1304  DCB1304     0.2142
     19  O2B       62.4350   47.9370   36.3180 O.3   1304  DCB1304    -0.2149
     20  O3B       60.6520   50.1010   37.0150 O.3   1304  DCB1304    -0.2174
     21  O4B       58.3250   49.3210   38.5230 O.3   1304  DCB1304    -0.2176
     22  O5B       59.2840   46.2290   36.8230 O.3   1304  DCB1304    -0.3256
     23  O6B       56.6150   46.8540   36.7080 O.3   1304  DCB1304    -0.2176
     24  C1        61.1470   40.7440   38.4740 C.ar  1304  DCB1304     0.1638
     25  C2        62.2080   39.8360   38.2810 C.ar  1304  DCB1304     0.0404
     26  C3        62.6750   39.0320   39.3260 C.ar  1304  DCB1304     0.0273
     27  C4        62.1320   39.0780   40.5950 C.ar  1304  DCB1304     0.1447
     28  C5        61.0740   39.9920   40.8360 C.ar  1304  DCB1304     0.0513
     29  C6        60.5700   40.8270   39.8180 C.ar  1304  DCB1304     0.1783
     30  N4        62.6370   38.2100   41.6000 N.pl3 1304  DCB1304     0.0577
     31  N6        59.5540   41.7130   40.1020 N.pl3 1304  DCB1304     0.0607
     32  O41       63.3740   37.3250   41.2150 O.2   1304  DCB1304    -0.1261
     33  O42       62.3690   38.1710   42.7380 O.2   1304  DCB1304    -0.1261
     34  O61       59.2040   42.6070   39.3520 O.2   1304  DCB1304    -0.1260
     35  O62       59.1370   41.6320   41.2750 O.2   1304  DCB1304    -0.1260
@<TRIPOS>BOND
     1     8     2    1
     2     9     3    1
     3     3     2    1
     4     3     4    1
     5     2     1    1
     6    10     4    1
     7    10    13    1
     8     4     5    1
     9    11     5    1
    10    11     1    1
    11     5     6    1
    12     1     7    1
    13    19    14    1
    14    14    13    1
    15    14    15    1
    16    23    18    1
    17    13    22    1
    18    22    17    1
    19    20    15    1
    20    15    16    1
    21     6    12    1
    22     7    24    1
    23    16    17    1
    24    16    21    1
    25    17    18    1
    26    25    24   ar
    27    25    26   ar
    28    24    29   ar
    29    26    27   ar
    30    34    31    2
    31    29    31    1
    32    29    28   ar
    33    31    35    2
    34    27    28   ar
    35    27    30    1
    36    32    30    2
    37    30    33    2
