@<TRIPOS>MOLECULE
1h2k_OGA_A_1.pdb
 10 9 0 0 0
SMALL
GASTEIGER

@<TRIPOS>ATOM
      1  C1        22.0910   25.1730   27.5940 C.2   1351  OGA1351     0.4419
      2  C2        21.0660   25.8290   28.2020 C.2   1351  OGA1351     0.3455
      3  C4        18.7560   25.7140   29.0040 C.3   1351  OGA1351     0.2290
      4  C5        17.4150   25.2410   28.4950 C.2   1351  OGA1351     0.3866
      5  O1        21.9090   24.0610   27.0900 O.co2 1351  OGA1351    -0.2354
      6  O2        23.2190   25.6580   27.5310 O.co2 1351  OGA1351    -0.2354
      7  O2'       21.1920   26.9590   28.7110 O.2   1351  OGA1351    -0.2611
      8  O3        16.4160   25.6620   29.0550 O.co2 1351  OGA1351    -0.2437
      9  N1        19.8860   25.2030   28.2280 N.am  1351  OGA1351    -0.1838
     10  O4        17.3320   24.4750   27.5370 O.co2 1351  OGA1351    -0.2437
@<TRIPOS>BOND
     1     5     1   ar
     2     6     1   ar
     3    10     4   ar
     4     1     2    1
     5     2     9   am
     6     2     7    2
     7     9     3    1
     8     4     3    1
     9     4     8   ar
