@<TRIPOS>MOLECULE
1h2l_AKG_A_1.pdb
 10 9 0 0 0
SMALL
GASTEIGER

@<TRIPOS>ATOM
      1  C1        22.3550   25.3150   27.7470 C.2   1351  AKG1351     0.4219
      2  O1        23.4490   25.8800   27.7560 O.co2 1351  AKG1351    -0.2373
      3  O2        22.1720   24.1030   27.1970 O.co2 1351  AKG1351    -0.2373
      4  C2        21.1280   25.9990   28.3650 C.2   1351  AKG1351     0.2526
      5  O5        21.2110   27.1170   28.8540 O.2   1351  AKG1351    -0.2843
      6  C3        19.8290   25.2310   28.2800 C.3   1351  AKG1351     0.0881
      7  C4        18.7170   25.9670   29.0080 C.3   1351  AKG1351     0.1224
      8  C5        17.3510   25.4350   28.6490 C.2   1351  AKG1351     0.3653
      9  O3        17.1360   24.6740   27.7060 O.co2 1351  AKG1351    -0.2456
     10  O4        16.3530   25.8440   29.4060 O.co2 1351  AKG1351    -0.2456
@<TRIPOS>BOND
     1     3     1   ar
     2     9     8   ar
     3     1     2   ar
     4     1     4    1
     5     6     4    1
     6     6     7    1
     7     4     5    2
     8     8     7    1
     9     8    10   ar
