@<TRIPOS>MOLECULE
1h2m_OGA_A_1.pdb
 10 9 0 0 0
SMALL
GASTEIGER

@<TRIPOS>ATOM
      1  C1        22.2620   25.3080   27.8910 C.2   1351  OGA1351     0.4419
      2  C2        21.2090   25.9400   28.4870 C.2   1351  OGA1351     0.3455
      3  C4        18.8820   25.7300   29.2530 C.3   1351  OGA1351     0.2290
      4  C5        17.5430   25.2510   28.7350 C.2   1351  OGA1351     0.3866
      5  O1        22.0910   24.2070   27.3990 O.co2 1351  OGA1351    -0.2354
      6  O2        23.4040   25.8170   27.8130 O.co2 1351  OGA1351    -0.2354
      7  O2'       21.2990   27.0770   29.0040 O.2   1351  OGA1351    -0.2611
      8  O3        17.4300   24.4760   27.7950 O.co2 1351  OGA1351    -0.2437
      9  N1        20.0670   25.2710   28.5200 N.am  1351  OGA1351    -0.1838
     10  O4        16.5510   25.6410   29.3070 O.co2 1351  OGA1351    -0.2437
@<TRIPOS>BOND
     1     5     1   ar
     2     8     4   ar
     3     6     1   ar
     4     1     2    1
     5     2     9   am
     6     2     7    2
     7     9     3    1
     8     4     3    1
     9     4    10   ar
