@<TRIPOS>MOLECULE
1h2n_AKG_A_1.pdb
 10 9 0 0 0
SMALL
GASTEIGER

@<TRIPOS>ATOM
      1  C1        22.5230   25.4120   27.7920 C.2   1351  AKG1351     0.4219
      2  O1        23.5350   26.0920   27.9140 O.co2 1351  AKG1351    -0.2373
      3  O2        22.5570   24.2160   27.2260 O.co2 1351  AKG1351    -0.2373
      4  C2        21.1860   25.9640   28.2970 C.2   1351  AKG1351     0.2526
      5  O5        21.1750   27.0630   28.8070 O.2   1351  AKG1351    -0.2843
      6  C3        19.9370   25.1390   28.1670 C.3   1351  AKG1351     0.0881
      7  C4        18.8480   25.7380   29.0550 C.3   1351  AKG1351     0.1224
      8  C5        17.4640   25.3310   28.6320 C.2   1351  AKG1351     0.3653
      9  O3        17.2760   24.6270   27.6560 O.co2 1351  AKG1351    -0.2456
     10  O4        16.4320   25.7710   29.3380 O.co2 1351  AKG1351    -0.2456
@<TRIPOS>BOND
     1     3     1   ar
     2     9     8   ar
     3     1     2   ar
     4     1     4    1
     5     6     4    1
     6     6     7    1
     7     4     5    2
     8     8     7    1
     9     8    10   ar
