@<TRIPOS>MOLECULE
1h2s_RET_A_1.pdb
 20 20 0 0 0
SMALL
GASTEIGER

@<TRIPOS>ATOM
      1  C1        23.2530   23.1640   27.3170 C.3   302  RET302      0.0183
      2  C2        23.6880   24.2230   28.3290 C.3   302  RET302      0.0044
      3  C3        24.5790   25.2920   27.7660 C.3   302  RET302      0.0047
      4  C4        23.9560   26.0000   26.5810 C.3   302  RET302      0.0217
      5  C5        23.3000   25.0700   25.5560 C.2   302  RET302     -0.0479
      6  C6        23.0460   23.7290   25.8500 C.2   302  RET302     -0.0307
      7  C7        22.6110   22.9120   24.7260 C.2   302  RET302     -0.0052
      8  C8        22.3070   21.5650   24.6500 C.2   302  RET302     -0.0049
      9  C9        21.8950   20.8330   23.4480 C.2   302  RET302     -0.0261
     10  C10       21.6910   19.4850   23.6720 C.2   302  RET302     -0.0300
     11  C11       21.2530   18.5780   22.5970 C.3   302  RET302      0.0300
     12  C12       21.1440   17.2650   23.0170 C.3   302  RET302      0.0264
     13  C13       20.7530   16.1940   22.1110 C.2   302  RET302     -0.0478
     14  C14       20.7310   14.9740   22.7600 C.2   302  RET302     -0.0342
     15  C15       20.1820   13.7460   22.1990 C.3   302  RET302      0.0300
     16  C16       24.3610   22.0420   27.3150 C.3   302  RET302      0.0043
     17  C17       21.9070   22.5920   27.9510 C.3   302  RET302      0.0043
     18  C18       23.1350   25.8200   24.2660 C.3   302  RET302      0.0260
     19  C19       21.7240   21.5230   22.1310 C.3   302  RET302      0.0307
     20  C20       20.4460   16.4610   20.6740 C.3   302  RET302      0.0260
@<TRIPOS>BOND
     1    20    13    1
     2    13    14    2
     3    13    12    1
     4    19     9    1
     5    15    14    1
     6    11    12    1
     7    11    10    1
     8     9    10    2
     9     9     8    1
    10    18     5    1
    11     8     7    2
    12     7     6    1
    13     5     6    2
    14     5     4    1
    15     6     1    1
    16     4     3    1
    17    16     1    1
    18     1    17    1
    19     1     2    1
    20     3     2    1
