@<TRIPOS>MOLECULE
1h2t_GDP_Z_1.pdb
 28 30 0 0 0
SMALL
GASTEIGER

@<TRIPOS>ATOM
      1  PB       -16.6240   27.7060   76.5890 P.3   1151  GDP1151     0.5373
      2  O1B      -16.0280   28.9730   76.0280 O.3   1151  GDP1151    -0.1143
      3  O2B      -15.8950   26.9580   77.6730 O.3   1151  GDP1151    -0.1143
      4  O3B      -16.8810   26.6810   75.3750 O.2   1151  GDP1151    -0.2221
      5  O3A      -18.0760   28.0470   77.2030 O.3   1151  GDP1151    -0.2261
      6  PA       -19.2350   29.1180   76.8790 P.3   1151  GDP1151     0.2231
      7  O1A      -19.8580   28.7870   75.5400 O.2   1151  GDP1151    -0.5169
      8  O2A      -18.7020   30.5080   77.1250 O.3   1151  GDP1151    -0.4370
      9  O5'      -20.2960   28.7870   78.0250 O.3   1151  GDP1151    -0.3111
     10  C5'      -21.6330   29.3440   77.9700 C.3   1151  GDP1151     0.1813
     11  C4'      -22.4790   28.8590   79.1360 C.3   1151  GDP1151     0.1799
     12  O4'      -23.8240   29.4020   78.9740 O.3   1151  GDP1151    -0.3326
     13  C3'      -22.6380   27.3420   79.2510 C.3   1151  GDP1151     0.2158
     14  O3'      -22.6700   26.9620   80.6260 O.3   1151  GDP1151    -0.2175
     15  C2'      -23.9870   27.0730   78.5830 C.3   1151  GDP1151     0.2310
     16  O2'      -24.6510   25.9270   79.0800 O.3   1151  GDP1151    -0.2158
     17  C1'      -24.7670   28.3480   78.9060 C.3   1151  GDP1151     0.2293
     18  N9       -25.7650   28.6810   77.8900 N.pl3 1151  GDP1151    -0.2354
     19  C8       -27.1310   28.6940   78.0550 C.3   1151  GDP1151     0.2246
     20  N7       -27.7760   29.0270   76.9710 N.2   1151  GDP1151    -0.2322
     21  C5       -26.7800   29.2510   76.0290 C.2   1151  GDP1151     0.2182
     22  C6       -26.8740   29.6450   74.6680 C.1   1151  GDP1151     0.2372
     23  O6       -27.8900   29.8790   73.9990 O.2   1151  GDP1151    -0.2069
     24  N1       -25.6190   29.7600   74.0820 N.2   1151  GDP1151    -0.2485
     25  C2       -24.4230   29.5290   74.7180 C.1   1151  GDP1151     0.2531
     26  N2       -23.3130   29.6980   73.9800 N.pl3 1151  GDP1151    -0.0226
     27  N3       -24.3210   29.1600   75.9850 N.2   1151  GDP1151    -0.3074
     28  C4       -25.5310   29.0420   76.5770 C.2   1151  GDP1151     0.2300
@<TRIPOS>BOND
     1    26    25    1
     2    23    22    2
     3    24    22    2
     4    24    25    2
     5    22    21    1
     6    25    27    2
     7     4     1    2
     8     7     6    2
     9    27    28    2
    10     2     1    1
    11    21    28    1
    12    21    20    2
    13    28    18    1
    14     1     5    1
    15     1     3    1
    16     6     8    1
    17     6     5    1
    18     6     9    1
    19    20    19    1
    20    18    19    1
    21    18    17    1
    22    10     9    1
    23    10    11    1
    24    15    17    1
    25    15    16    1
    26    15    13    1
    27    17    12    1
    28    12    11    1
    29    11    13    1
    30    13    14    1
