@<TRIPOS>MOLECULE
1h2t_7MG_Z_1.pdb
 24 26 0 0 0
SMALL
GASTEIGER

@<TRIPOS>ATOM
      1  P        -16.0510   26.2810   74.0480 P.3   1152  7MG1152     0.3942
      2  OP1      -16.1060   27.4340   73.0640 O.3   1152  7MG1152    -0.1425
      3  OP2      -16.5120   24.9100   73.6040 O.3   1152  7MG1152    -0.1425
      4  O5'      -14.5560   26.1540   74.5870 O.3   1152  7MG1152    -0.2926
      5  C5'      -13.4880   25.6920   73.7300 C.3   1152  7MG1152     0.1830
      6  C4'      -12.2080   26.4460   74.0350 C.3   1152  7MG1152     0.1800
      7  O4'      -12.2930   27.7890   73.4900 O.3   1152  7MG1152    -0.3326
      8  C3'      -11.8820   26.6010   75.5170 C.3   1152  7MG1152     0.2158
      9  O3'      -10.4760   26.5090   75.7150 O.3   1152  7MG1152    -0.2175
     10  C2'      -12.3610   28.0160   75.8360 C.3   1152  7MG1152     0.2310
     11  O2'      -11.6720   28.6250   76.9150 O.3   1152  7MG1152    -0.2158
     12  C1'      -12.0880   28.7390   74.5190 C.3   1152  7MG1152     0.2287
     13  N9       -12.9590   29.8840   74.2640 N.pl3 1152  7MG1152    -0.2454
     14  C8       -14.2470   29.8520   73.7890 C.3   1152  7MG1152     0.1735
     15  N7       -14.7870   31.0970   73.6380 N.3   1152  7MG1152    -0.2343
     16  C5       -13.7560   31.9380   74.0470 C.3   1152  7MG1152     0.2475
     17  C6       -13.7190   33.3540   74.1120 C.1   1152  7MG1152     0.2145
     18  O6       -14.5960   34.1620   73.7920 O.2   1152  7MG1152    -0.2115
     19  N1       -12.5010   33.8140   74.6020 N.2   1152  7MG1152    -0.2526
     20  C2       -11.4450   33.0180   74.9730 C.1   1152  7MG1152     0.2525
     21  N2       -10.3540   33.6600   75.4290 N.pl3 1152  7MG1152    -0.0226
     22  N3       -11.4580   31.6940   74.9060 N.2   1152  7MG1152    -0.3118
     23  C4       -12.6360   31.2210   74.4410 C.2   1152  7MG1152     0.2086
     24  CM7      -16.1160   31.4360   73.1630 C.3   1152  7MG1152     0.0924
@<TRIPOS>BOND
     1     2     1    1
     2    24    15    1
     3     7     6    1
     4     7    12    1
     5     3     1    1
     6    15    14    1
     7    15    16    1
     8     5     6    1
     9     5     4    1
    10    14    13    1
    11    18    17    2
    12     6     8    1
    13    16    17    1
    14    16    23    1
    15     1     4    1
    16    17    19    2
    17    13    23    1
    18    13    12    1
    19    23    22    2
    20    12    10    1
    21    19    20    2
    22    22    20    2
    23    20    21    1
    24     8     9    1
    25     8    10    1
    26    10    11    1
