@<TRIPOS>MOLECULE
1h2u_7MG_X_1.pdb
 24 26 0 0 0
SMALL
GASTEIGER

@<TRIPOS>ATOM
      1  P         86.5730  -17.2850   25.8070 P.3   1154  7MG1154     0.3942
      2  OP1       86.3290  -16.4160   27.0190 O.3   1154  7MG1154    -0.1425
      3  OP2       86.0020  -16.8720   24.4710 O.3   1154  7MG1154    -0.1425
      4  O5'       88.1350  -17.5610   25.6560 O.3   1154  7MG1154    -0.2926
      5  C5'       89.0340  -16.5610   25.1330 C.3   1154  7MG1154     0.1830
      6  C4'       90.3740  -16.6680   25.8200 C.3   1154  7MG1154     0.1800
      7  O4'       90.2620  -16.1350   27.1690 O.3   1154  7MG1154    -0.3326
      8  C3'       90.9050  -18.0910   25.9590 C.3   1154  7MG1154     0.2158
      9  O3'       92.3210  -18.0870   25.8240 O.3   1154  7MG1154    -0.2175
     10  C2'       90.5200  -18.4650   27.3900 C.3   1154  7MG1154     0.2310
     11  O2'       91.3620  -19.4430   27.9730 O.3   1154  7MG1154    -0.2158
     12  C1'       90.6530  -17.1210   28.1030 C.3   1154  7MG1154     0.2287
     13  N9        89.8290  -16.9790   29.3000 N.pl3 1154  7MG1154    -0.2454
     14  C8        88.4930  -16.6760   29.3560 C.3   1154  7MG1154     0.1735
     15  N7        88.0280  -16.5820   30.6370 N.3   1154  7MG1154    -0.2343
     16  C5        89.1580  -16.8590   31.4030 C.3   1154  7MG1154     0.2475
     17  C6        89.3090  -16.9050   32.8140 C.1   1154  7MG1154     0.2145
     18  O6        88.4550  -16.7140   33.6830 O.2   1154  7MG1154    -0.2115
     19  N1        90.6180  -17.2050   33.1830 N.2   1154  7MG1154    -0.2526
     20  C2        91.6520  -17.4350   32.3060 C.1   1154  7MG1154     0.2525
     21  N2        92.8530  -17.6950   32.8540 N.pl3 1154  7MG1154    -0.0226
     22  N3        91.5240  -17.4060   30.9900 N.2   1154  7MG1154    -0.3118
     23  C4        90.2630  -17.1090   30.6080 C.2   1154  7MG1154     0.2086
     24  CM7       86.6920  -16.2190   31.0670 C.3   1154  7MG1154     0.0924
@<TRIPOS>BOND
     1     3     1    1
     2     5     4    1
     3     5     6    1
     4     4     1    1
     5     1     2    1
     6     6     8    1
     7     6     7    1
     8     9     8    1
     9     8    10    1
    10     7    12    1
    11    10    11    1
    12    10    12    1
    13    12    13    1
    14    13    14    1
    15    13    23    1
    16    14    15    1
    17    23    22    2
    18    23    16    1
    19    15    24    1
    20    15    16    1
    21    22    20    2
    22    16    17    1
    23    20    21    1
    24    20    19    2
    25    17    19    2
    26    17    18    2
