@<TRIPOS>MOLECULE
1h2u_GDP_X_1.pdb
 28 30 0 0 0
SMALL
GASTEIGER

@<TRIPOS>ATOM
      1  PB        86.2900  -19.7710   27.3960 P.3   1153  GDP1153     0.5373
      2  O1B       87.0970  -19.0700   28.4590 O.3   1153  GDP1153    -0.1143
      3  O2B       86.7190  -21.1340   26.9210 O.3   1153  GDP1153    -0.1143
      4  O3B       86.1230  -18.8010   26.1190 O.2   1153  GDP1153    -0.2221
      5  O3A       84.7410  -19.8240   27.8360 O.3   1153  GDP1153    -0.2261
      6  PA        83.9750  -19.7620   29.2490 P.3   1153  GDP1153     0.2231
      7  O1A       83.1860  -18.4840   29.3150 O.2   1153  GDP1153    -0.5169
      8  O2A       84.9520  -20.0970   30.3460 O.3   1153  GDP1153    -0.4370
      9  O5'       82.9480  -20.9710   29.1270 O.3   1153  GDP1153    -0.3111
     10  C5'       83.4230  -22.3160   28.9190 C.3   1153  GDP1153     0.1813
     11  C4'       82.3200  -23.3170   29.1850 C.3   1153  GDP1153     0.1799
     12  O4'       82.0020  -23.3190   30.6060 O.3   1153  GDP1153    -0.3326
     13  C3'       81.0060  -23.0900   28.4330 C.3   1153  GDP1153     0.2158
     14  O3'       80.4560  -24.3320   28.0010 O.3   1153  GDP1153    -0.2175
     15  C2'       80.1000  -22.4710   29.4950 C.3   1153  GDP1153     0.2310
     16  O2'       78.7310  -22.7610   29.2930 O.3   1153  GDP1153    -0.2158
     17  C1'       80.6130  -23.1330   30.7770 C.3   1153  GDP1153     0.2293
     18  N9        80.3780  -22.3670   32.0030 N.pl3 1153  GDP1153    -0.2354
     19  C8        80.0580  -21.0310   32.1110 C.3   1153  GDP1153     0.2246
     20  N7        79.8480  -20.6500   33.3440 N.2   1153  GDP1153    -0.2322
     21  C5        80.0530  -21.7980   34.0980 C.2   1153  GDP1153     0.2182
     22  C6        79.9540  -22.0080   35.5050 C.1   1153  GDP1153     0.2372
     23  O6        79.6420  -21.1950   36.3890 O.2   1153  GDP1153    -0.2069
     24  N1        80.2530  -23.3240   35.8490 N.2   1153  GDP1153    -0.2485
     25  C2        80.5990  -24.3150   34.9620 C.1   1153  GDP1153     0.2531
     26  N2        80.8610  -25.5210   35.4940 N.pl3 1153  GDP1153    -0.0226
     27  N3        80.6830  -24.1370   33.6500 N.2   1153  GDP1153    -0.3074
     28  C4        80.3990  -22.8650   33.2920 C.2   1153  GDP1153     0.2300
@<TRIPOS>BOND
     1     4     1    2
     2     3     1    1
     3     1     5    1
     4     1     2    1
     5     5     6    1
     6    14    13    1
     7    13    11    1
     8    13    15    1
     9    10     9    1
    10    10    11    1
    11     9     6    1
    12    11    12    1
    13     6     7    2
    14     6     8    1
    15    16    15    1
    16    15    17    1
    17    12    17    1
    18    17    18    1
    19    18    19    1
    20    18    28    1
    21    19    20    1
    22    28    27    2
    23    28    21    1
    24    20    21    2
    25    27    25    2
    26    21    22    1
    27    25    26    1
    28    25    24    2
    29    22    24    2
    30    22    23    2
