@<TRIPOS>MOLECULE
1h2y_ZPR_A_1.pdb
 24 26 0 0 0
SMALL
GASTEIGER

@<TRIPOS>ATOM
      1  C1        36.9550   39.0850   81.6100 C.3   791  ZPR791      0.2017
      2  O2        36.0240   38.0730   82.0190 O.3   791  ZPR791     -0.2186
      3  C3        38.3410   38.4590   81.2990 C.3   791  ZPR791      0.1083
      4  C4        38.3000   37.5300   80.0810 C.3   791  ZPR791      0.0243
      5  C5        37.9850   36.1970   80.6480 C.3   791  ZPR791      0.0233
      6  C6        38.6270   36.1520   82.0220 C.3   791  ZPR791      0.0935
      7  N7        38.7580   37.5780   82.3850 N.am  791  ZPR791     -0.2772
      8  C8        39.2140   38.0950   83.5390 C.2   791  ZPR791      0.2439
      9  O9        39.3280   39.3190   83.7260 O.2   791  ZPR791     -0.2731
     10  C10       39.6190   37.1030   84.6160 C.3   791  ZPR791      0.1550
     11  C11       38.4210   36.6930   85.4610 C.3   791  ZPR791      0.0311
     12  C12       38.3260   37.8070   86.4300 C.3   791  ZPR791      0.0238
     13  C13       39.7730   37.9780   86.8590 C.3   791  ZPR791      0.0972
     14  N14       40.5050   37.7160   85.6040 N.am  791  ZPR791     -0.2392
     15  C15       41.8250   37.8740   85.4030 C.2   791  ZPR791      0.4055
     16  O16       42.3550   37.6040   84.3180 O.2   791  ZPR791     -0.2262
     17  O17       42.5230   38.3220   86.4330 O.3   791  ZPR791     -0.4295
     18  C18       43.9230   38.4610   86.2130 C.3   791  ZPR791      0.2367
     19  C19       44.6530   37.3720   86.9620 C.ar  791  ZPR791      0.0213
     20  C20       44.7140   36.0800   86.4480 C.ar  791  ZPR791     -0.0007
     21  C21       45.3640   35.0570   87.1500 C.ar  791  ZPR791     -0.0002
     22  C22       45.9540   35.3270   88.3750 C.ar  791  ZPR791     -0.0000
     23  C23       45.9030   36.6160   88.8980 C.ar  791  ZPR791     -0.0002
     24  C24       45.2540   37.6310   88.1900 C.ar  791  ZPR791     -0.0007
@<TRIPOS>BOND
     1     4     5    1
     2     4     3    1
     3     5     6    1
     4     3     1    1
     5     3     7    1
     6     1     2    1
     7     6     7    1
     8     7     8   am
     9     8     9    2
    10     8    10    1
    11    16    15    2
    12    10    11    1
    13    10    14    1
    14    15    14   am
    15    15    17    1
    16    11    12    1
    17    14    13    1
    18    18    17    1
    19    18    19    1
    20    12    13    1
    21    20    19   ar
    22    20    21   ar
    23    19    24   ar
    24    21    22   ar
    25    24    23   ar
    26    22    23   ar
