@<TRIPOS>MOLECULE
1h31_HEC_A_1.pdb
 43 50 0 0 0
SMALL
GASTEIGER

@<TRIPOS>ATOM
      1 FE         -7.6940    1.2670   40.3220 Fe    1262  HEC1262     0.0000
      2  CHA       -6.2590    2.5990   37.5850 C.2   1262  HEC1262     0.0000
      3  CHB       -6.3650    3.7270   42.2540 C.2   1262  HEC1262     0.0000
      4  CHC       -9.2520   -0.1190   43.0220 C.2   1262  HEC1262     0.0000
      5  CHD       -8.9680   -1.2680   38.3580 C.2   1262  HEC1262     0.0000
      6  NA        -6.5280    2.8450   39.9820 N.2   1262  HEC1262     0.0000
      7  C1A       -6.0200    3.2440   38.7760 C.2   1262  HEC1262     0.0000
      8  C2A       -5.2010    4.3950   38.8930 C.2   1262  HEC1262     0.0000
      9  C3A       -5.2060    4.7480   40.2220 C.2   1262  HEC1262     0.0000
     10  C4A       -6.0600    3.7590   40.8950 C.2   1262  HEC1262     0.0000
     11  CMA       -4.4980    5.8920   40.8920 C.3   1262  HEC1262     0.0000
     12  CAA       -4.4730    5.0580   37.7100 C.3   1262  HEC1262     0.0000
     13  CBA       -2.9470    4.7690   37.7250 C.3   1262  HEC1262     0.0000
     14  CGA       -2.3640    4.2940   36.5530 C.2   1262  HEC1262     0.0000
     15  O1A       -2.3660    5.1120   35.5250 O.co2 1262  HEC1262     0.0000
     16  O2A       -1.8290    3.1740   36.4870 O.co2 1262  HEC1262     0.0000
     17  NB        -7.7940    1.7190   42.2350 N.ar  1262  HEC1262     0.0000
     18  C1B       -7.1870    2.7730   42.8810 C.ar  1262  HEC1262     0.0000
     19  C2B       -7.5120    2.7680   44.3060 C.ar  1262  HEC1262     0.0000
     20  C3B       -8.3410    1.6950   44.5160 C.ar  1262  HEC1262     0.0000
     21  C4B       -8.4970    1.0430   43.2330 C.ar  1262  HEC1262     0.0000
     22  CMB       -6.9990    3.7910   45.3080 C.3   1262  HEC1262     0.0000
     23  CAB       -8.9950    1.2240   45.8060 C.3   1262  HEC1262     0.0000
     24  CBB       -9.9850    2.1990   46.3800 C.3   1262  HEC1262     0.0000
     25  NC        -8.8440   -0.3440   40.6300 N.2   1262  HEC1262     0.0000
     26  C1C       -9.4100   -0.7730   41.8220 C.2   1262  HEC1262     0.0000
     27  C2C      -10.1730   -2.0140   41.6250 C.2   1262  HEC1262     0.0000
     28  C3C      -10.0530   -2.3260   40.3180 C.2   1262  HEC1262     0.0000
     29  C4C       -9.2690   -1.3000   39.7060 C.2   1262  HEC1262     0.0000
     30  CMC      -10.9020   -2.7480   42.7170 C.3   1262  HEC1262     0.0000
     31  CAC      -10.5950   -3.5210   39.5510 C.3   1262  HEC1262     0.0000
     32  CBC      -12.0830   -3.7930   39.6900 C.3   1262  HEC1262     0.0000
     33  ND        -7.6240    0.7960   38.3640 N.ar  1262  HEC1262     0.0000
     34  C1D       -8.2140   -0.2840   37.7190 C.ar  1262  HEC1262     0.0000
     35  C2D       -7.9600   -0.2510   36.2640 C.ar  1262  HEC1262     0.0000
     36  C3D       -7.2180    0.8480   36.0750 C.ar  1262  HEC1262     0.0000
     37  C4D       -7.0040    1.4660   37.3940 C.ar  1262  HEC1262     0.0000
     38  CMD       -8.4750   -1.2560   35.2730 C.3   1262  HEC1262     0.0000
     39  CAD       -6.6590    1.4600   34.8000 C.3   1262  HEC1262     0.0000
     40  CBD       -7.6990    2.6180   34.3510 C.3   1262  HEC1262     0.0000
     41  CGD       -7.4440    3.2660   33.1070 C.2   1262  HEC1262     0.0000
     42  O1D       -8.2600    4.1910   32.7140 O.co2 1262  HEC1262     0.0000
     43  O2D       -6.4440    2.9660   32.3780 O.co2 1262  HEC1262     0.0000
@<TRIPOS>BOND
     1    43    41   ar
     2    42    41   ar
     3    41    40    1
     4    40    39    1
     5    39    36    1
     6    38    35    1
     7    15    14   ar
     8    36    35   ar
     9    36    37   ar
    10    35    34   ar
    11    16    14   ar
    12    14    13    1
    13    37     2    2
    14    37    33   ar
    15     2     7    1
    16    12    13    1
    17    12     8    1
    18    34     5    2
    19    34    33   ar
    20     5    29    1
    21    33     1    1
    22     7     8    1
    23     7     6    2
    24     8     9    2
    25    31    32    1
    26    31    28    1
    27    29    28    1
    28    29    25    2
    29     6     1    1
    30     6    10    1
    31     9    11    1
    32     9    10    1
    33    28    27    2
    34     1    25    1
    35     1    17    1
    36    25    26    1
    37    10     3    2
    38    27    26    1
    39    27    30    1
    40    26     4    2
    41    17    18   ar
    42    17    21   ar
    43     3    18    1
    44    18    19   ar
    45     4    21    1
    46    21    20   ar
    47    19    20   ar
    48    19    22    1
    49    20    23    1
    50    23    24    1
