@<TRIPOS>MOLECULE
1h32_HEC_A_1.pdb
 43 50 0 0 0
SMALL
GASTEIGER

@<TRIPOS>ATOM
      1 FE         17.3000   89.3640   46.2410 Fe    1263  HEC1263     0.0000
      2  CHA       15.3100   90.6870   43.8460 C.2   1263  HEC1263     0.0000
      3  CHB       17.2200   86.3300   44.6610 C.2   1263  HEC1263     0.0000
      4  CHC       19.3280   88.0320   48.6900 C.2   1263  HEC1263     0.0000
      5  CHD       17.2010   92.3130   47.9780 C.2   1263  HEC1263     0.0000
      6  NA        16.4370   88.6480   44.5730 N.ar  1263  HEC1263     0.0000
      7  C1A       15.6360   89.3390   43.7030 C.ar  1263  HEC1263     0.0000
      8  C2A       15.1450   88.4900   42.6490 C.ar  1263  HEC1263     0.0000
      9  C3A       15.6980   87.2530   42.8660 C.ar  1263  HEC1263     0.0000
     10  C4A       16.5040   87.3670   44.0740 C.ar  1263  HEC1263     0.0000
     11  CMA       15.5300   85.9720   42.0870 C.3   1263  HEC1263     0.0000
     12  CAA       14.1560   88.9490   41.5550 C.3   1263  HEC1263     0.0000
     13  CBA       12.7250   89.0590   42.2540 C.3   1263  HEC1263     0.0000
     14  CGA       11.5440   89.4300   41.5390 C.2   1263  HEC1263     0.0000
     15  O1A       11.5890   89.4500   40.2670 O.co2 1263  HEC1263     0.0000
     16  O2A       10.4770   89.7330   42.1180 O.co2 1263  HEC1263     0.0000
     17  NB        18.1190   87.5820   46.5840 N.2   1263  HEC1263     0.0000
     18  C1B       17.9800   86.4230   45.8210 C.2   1263  HEC1263     0.0000
     19  C2B       18.7220   85.3180   46.4050 C.2   1263  HEC1263     0.0000
     20  C3B       19.3420   85.7880   47.5060 C.2   1263  HEC1263     0.0000
     21  C4B       18.9430   87.1980   47.6340 C.2   1263  HEC1263     0.0000
     22  CMB       18.7610   83.9120   45.8540 C.3   1263  HEC1263     0.0000
     23  CAB       20.2430   85.0250   48.4460 C.3   1263  HEC1263     0.0000
     24  CBB       21.5480   84.5550   47.7300 C.3   1263  HEC1263     0.0000
     25  NC        18.0800   90.0380   47.9520 N.ar  1263  HEC1263     0.0000
     26  C1C       18.9030   89.3440   48.8490 C.ar  1263  HEC1263     0.0000
     27  C2C       19.2250   90.1660   49.9940 C.ar  1263  HEC1263     0.0000
     28  C3C       18.5950   91.3420   49.8090 C.ar  1263  HEC1263     0.0000
     29  C4C       17.9260   91.2850   48.5440 C.ar  1263  HEC1263     0.0000
     30  CMC       20.0640   89.7160   51.1550 C.3   1263  HEC1263     0.0000
     31  CAC       18.5390   92.5360   50.7490 C.3   1263  HEC1263     0.0000
     32  CBC       19.8800   93.0710   51.1930 C.3   1263  HEC1263     0.0000
     33  ND        16.4510   91.1560   45.9300 N.2   1263  HEC1263     0.0000
     34  C1D       16.5170   92.2700   46.7390 C.2   1263  HEC1263     0.0000
     35  C2D       15.7880   93.3900   46.1480 C.2   1263  HEC1263     0.0000
     36  C3D       15.2810   92.9390   45.0000 C.2   1263  HEC1263     0.0000
     37  C4D       15.6900   91.5240   44.8870 C.2   1263  HEC1263     0.0000
     38  CMD       15.6820   94.7440   46.7870 C.3   1263  HEC1263     0.0000
     39  CAD       14.4210   93.6290   43.9390 C.3   1263  HEC1263     0.0000
     40  CBD       12.8590   93.5230   44.2630 C.3   1263  HEC1263     0.0000
     41  CGD       11.9790   94.1210   43.3100 C.2   1263  HEC1263     0.0000
     42  O1D       12.4110   94.8270   42.3490 O.co2 1263  HEC1263     0.0000
     43  O2D       10.7360   93.9640   43.4150 O.co2 1263  HEC1263     0.0000
@<TRIPOS>BOND
     1    15    14   ar
     2    14    16   ar
     3    14    13    1
     4    12    13    1
     5    12     8    1
     6    11     9    1
     7    42    41   ar
     8     8     9   ar
     9     8     7   ar
    10     9    10   ar
    11    41    43   ar
    12    41    40    1
    13     7     2    2
    14     7     6   ar
    15     2    37    1
    16    39    40    1
    17    39    36    1
    18    10     6   ar
    19    10     3    2
    20     6     1    1
    21     3    18    1
    22    37    36    1
    23    37    33    2
    24    36    35    2
    25    18    19    1
    26    18    17    2
    27    22    19    1
    28    33     1    1
    29    33    34    1
    30    35    34    1
    31    35    38    1
    32     1    17    1
    33     1    25    1
    34    19    20    2
    35    17    21    1
    36    34     5    2
    37    20    21    1
    38    20    23    1
    39    21     4    2
    40    24    23    1
    41    25    29   ar
    42    25    26   ar
    43     5    29    1
    44    29    28   ar
    45     4    26    1
    46    26    27   ar
    47    28    27   ar
    48    28    31    1
    49    27    30    1
    50    31    32    1
