@<TRIPOS>MOLECULE
1h33_HEC_A_1.pdb
 43 50 0 0 0
SMALL
GASTEIGER

@<TRIPOS>ATOM
      1 FE         15.7040   -2.2760   46.4460 Fe    1262  HEC1262     0.0000
      2  CHA       17.6780   -3.6470   44.0110 C.2   1262  HEC1262     0.0000
      3  CHB       15.8510    0.7230   44.8370 C.2   1262  HEC1262     0.0000
      4  CHC       13.6360   -0.9000   48.8620 C.2   1262  HEC1262     0.0000
      5  CHD       15.7620   -5.2300   48.1400 C.2   1262  HEC1262     0.0000
      6  NA        16.5670   -1.6090   44.8030 N.ar  1262  HEC1262     0.0000
      7  C1A       17.3670   -2.3130   43.8950 C.ar  1262  HEC1262     0.0000
      8  C2A       17.8370   -1.5070   42.8640 C.ar  1262  HEC1262     0.0000
      9  C3A       17.3430   -0.2770   43.0660 C.ar  1262  HEC1262     0.0000
     10  C4A       16.5290   -0.3460   44.2930 C.ar  1262  HEC1262     0.0000
     11  CMA       17.5550    0.9890   42.2440 C.3   1262  HEC1262     0.0000
     12  CAA       18.7960   -1.9860   41.7340 C.3   1262  HEC1262     0.0000
     13  CBA       20.2460   -1.9600   42.3550 C.3   1262  HEC1262     0.0000
     14  CGA       21.4120   -2.3530   41.6120 C.2   1262  HEC1262     0.0000
     15  O1A       21.3740   -2.3020   40.3250 O.co2 1262  HEC1262     0.0000
     16  O2A       22.4830   -2.7000   42.1840 O.co2 1262  HEC1262     0.0000
     17  NB        14.8900   -0.4880   46.7820 N.2   1262  HEC1262     0.0000
     18  C1B       15.0620    0.6750   46.0020 C.2   1262  HEC1262     0.0000
     19  C2B       14.3360    1.8170   46.5620 C.2   1262  HEC1262     0.0000
     20  C3B       13.6800    1.3560   47.6580 C.2   1262  HEC1262     0.0000
     21  C4B       14.0500   -0.0680   47.8110 C.2   1262  HEC1262     0.0000
     22  CMB       14.3440    3.2250   46.0090 C.3   1262  HEC1262     0.0000
     23  CAB       12.7800    2.1300   48.5570 C.3   1262  HEC1262     0.0000
     24  CBB       11.4810    2.6590   47.7960 C.3   1262  HEC1262     0.0000
     25  NC        14.8780   -2.9490   48.1600 N.ar  1262  HEC1262     0.0000
     26  C1C       14.0480   -2.2370   49.0380 C.ar  1262  HEC1262     0.0000
     27  C2C       13.6950   -3.0410   50.1970 C.ar  1262  HEC1262     0.0000
     28  C3C       14.3300   -4.2320   50.0350 C.ar  1262  HEC1262     0.0000
     29  C4C       15.0170   -4.1740   48.7360 C.ar  1262  HEC1262     0.0000
     30  CMC       12.8380   -2.5130   51.3220 C.3   1262  HEC1262     0.0000
     31  CAC       14.3950   -5.4360   50.9870 C.3   1262  HEC1262     0.0000
     32  CBC       13.0760   -5.9610   51.5100 C.3   1262  HEC1262     0.0000
     33  ND        16.5250   -4.0620   46.0990 N.2   1262  HEC1262     0.0000
     34  C1D       16.4390   -5.1900   46.9080 C.2   1262  HEC1262     0.0000
     35  C2D       17.1590   -6.3500   46.2920 C.2   1262  HEC1262     0.0000
     36  C3D       17.6650   -5.8870   45.1340 C.2   1262  HEC1262     0.0000
     37  C4D       17.2830   -4.4600   45.0530 C.2   1262  HEC1262     0.0000
     38  CMD       17.2210   -7.7280   46.9370 C.3   1262  HEC1262     0.0000
     39  CAD       18.4960   -6.5520   43.9920 C.3   1262  HEC1262     0.0000
     40  CBD       17.4710   -7.0730   42.8190 C.3   1262  HEC1262     0.0000
     41  CGD       17.9320   -7.2650   41.4280 C.2   1262  HEC1262     0.0000
     42  O1D       17.1000   -7.7870   40.5590 O.co2 1262  HEC1262     0.0000
     43  O2D       19.1210   -6.9240   41.0170 O.co2 1262  HEC1262     0.0000
@<TRIPOS>BOND
     1    15    14   ar
     2    42    41   ar
     3    43    41   ar
     4    41    40    1
     5    14    16   ar
     6    14    13    1
     7    12    13    1
     8    12     8    1
     9    11     9    1
    10    40    39    1
    11     8     9   ar
    12     8     7   ar
    13     9    10   ar
    14     7     2    2
    15     7     6   ar
    16    39    36    1
    17     2    37    1
    18    10     6   ar
    19    10     3    2
    20     6     1    1
    21     3    18    1
    22    37    36    1
    23    37    33    2
    24    36    35    2
    25    18    19    1
    26    18    17    2
    27    22    19    1
    28    33     1    1
    29    33    34    1
    30    35    34    1
    31    35    38    1
    32     1    17    1
    33     1    25    1
    34    19    20    2
    35    17    21    1
    36    34     5    2
    37    20    21    1
    38    20    23    1
    39    24    23    1
    40    21     4    2
    41     5    29    1
    42    25    29   ar
    43    25    26   ar
    44    29    28   ar
    45     4    26    1
    46    26    27   ar
    47    28    27   ar
    48    28    31    1
    49    27    30    1
    50    31    32    1
