@<TRIPOS>MOLECULE
1h35_R01_A_1.pdb
 27 29 0 0 0
SMALL
GASTEIGER

@<TRIPOS>ATOM
      1  C1G       67.4490   71.1630   70.9360 C.ar  800  R01800      0.0390
      2  C1        66.5780   70.0460   70.3620 C.2   800  R01800      0.1955
      3  O2        66.4190   69.0270   71.0200 O.2   800  R01800     -0.2866
      4  C4A       65.8960   70.1440   69.0030 C.ar  800  R01800      0.0390
      5  C3A       64.5250   69.7740   68.8620 C.ar  800  R01800      0.0032
      6  C2A       63.8770   69.8650   67.5980 C.ar  800  R01800      0.0001
      7  C1A       64.5890   70.3250   66.4560 C.ar  800  R01800      0.0000
      8  C2B       63.5420   71.7120   64.6510 C.ar  800  R01800     -0.0003
      9  C3B       62.8590   71.8560   63.4100 C.ar  800  R01800     -0.0029
     10  C4B       62.5050   70.7140   62.6290 C.ar  800  R01800     -0.0061
     11  C1C       61.7350   70.8680   61.2710 C.3   800  R01800      0.0994
     12  C5B       62.8550   69.4160   63.1280 C.ar  800  R01800     -0.0029
     13  C6B       63.5430   69.2720   64.3790 C.ar  800  R01800     -0.0003
     14  N1D       62.5430   71.1380   60.0200 N.3   800  R01800     -0.2639
     15  C1F       63.2870   72.4380   60.0480 C.3   800  R01800      0.0902
     16  C1E       63.4810   70.0030   59.7300 C.3   800  R01800      0.0992
     17  C2E       62.9880   69.1310   58.5930 C.2   800  R01800     -0.0088
     18  C3E       63.6470   68.0450   58.1640 C.2   800  R01800     -0.0035
     19  C6A       65.9640   70.6960   66.5900 C.ar  800  R01800      0.0001
     20  C5A       66.6080   70.6030   67.8560 C.ar  800  R01800      0.0032
     21  C2G       68.7040   70.8500   71.5490 C.ar  800  R01800      0.0037
     22  C3G       69.5220   71.8900   72.0850 C.ar  800  R01800      0.0068
     23  C4G       69.0860   73.2470   72.0090 C.ar  800  R01800      0.0346
     24  C1B       63.8870   70.4280   65.1430 C.ar  800  R01800     -0.0000
     25 BR27       70.1350   74.6120   72.6950 Br    800  R01800     -0.0490
     26  C5G       67.8400   73.5580   71.4020 C.ar  800  R01800      0.0068
     27  C6G       67.0280   72.5250   70.8710 C.ar  800  R01800      0.0037
@<TRIPOS>BOND
     1    18    17    2
     2    17    16    1
     3    16    14    1
     4    14    15    1
     5    14    11    1
     6    11    10    1
     7    10    12   ar
     8    10     9   ar
     9    12    13   ar
    10     9     8   ar
    11    13    24   ar
    12     8    24   ar
    13    24     7    1
    14     7    19   ar
    15     7     6   ar
    16    19    20   ar
    17     6     5   ar
    18    20     4   ar
    19     5     4   ar
    20     4     2    1
    21     2     1    1
    22     2     3    2
    23    27     1   ar
    24    27    26   ar
    25     1    21   ar
    26    26    23   ar
    27    21    22   ar
    28    23    22   ar
    29    23    25    1
