@<TRIPOS>MOLECULE
1h35_C8E_A_1.pdb
 21 20 0 0 0
SMALL
GASTEIGER

@<TRIPOS>ATOM
      1  C1        49.4170   92.5460   72.9240 C.3   700  C8E700      0.0000
      2  C2        49.4810   93.5170   71.8110 C.3   700  C8E700      0.0000
      3  C3        49.0860   92.8600   70.5530 C.3   700  C8E700      0.0000
      4  C4        50.0240   93.3260   69.5320 C.3   700  C8E700      0.0000
      5  C5        50.9280   92.1880   69.2140 C.3   700  C8E700      0.0001
      6  C6        51.3820   92.2480   67.8360 C.3   700  C8E700      0.0026
      7  C7        52.8130   92.4180   67.9600 C.3   700  C8E700      0.0321
      8  C8        53.5690   92.1000   66.6900 C.3   700  C8E700      0.1423
      9  O9        54.3940   90.8940   66.8110 O.3   700  C8E700     -0.3498
     10  C10       55.7160   91.1930   67.2530 C.3   700  C8E700      0.1893
     11  C11       56.4010   89.9400   67.6910 C.3   700  C8E700      0.2376
     12  O12       56.0570   89.4400   69.0060 O.2   700  C8E700     -0.4666
     13  C13       55.4100   88.1170   68.9600 C.2   700  C8E700      0.2124
     14  C14       53.9150   88.0980   69.2850 C.2   700  C8E700      0.2124
     15  O15       52.9380   87.0420   69.2210 O.2   700  C8E700     -0.4666
     16  C16       52.9870   86.4350   70.5190 C.3   700  C8E700      0.2376
     17  C17       51.9170   86.5460   71.5110 C.3   700  C8E700      0.1894
     18  O18       51.8720   87.8550   72.2060 O.3   700  C8E700     -0.3470
     19  C19       50.4780   88.0370   72.3870 C.3   700  C8E700      0.1778
     20  C20       49.6370   89.0080   71.4860 C.3   700  C8E700      0.2140
     21  O21       50.2150   89.1780   70.1990 O.3   700  C8E700     -0.2176
@<TRIPOS>BOND
     1     8     9    1
     2     8     7    1
     3     9    10    1
     4    10    11    1
     5    11    12    1
     6     6     7    1
     7     6     5    1
     8    13    12    1
     9    13    14    2
    10     5     4    1
    11    15    14    1
    12    15    16    1
    13     4     3    1
    14    21    20    1
    15    16    17    1
    16     3     2    1
    17    20    19    1
    18    17    18    1
    19     2     1    1
    20    18    19    1
