@<TRIPOS>MOLECULE
1h36_C8E_A_1.pdb
 21 20 0 0 0
SMALL
GASTEIGER

@<TRIPOS>ATOM
      1  C1        49.3990   92.9050   73.3640 C.3   700  C8E700      0.0000
      2  C2        49.5700   93.9290   72.3030 C.3   700  C8E700      0.0000
      3  C3        48.9300   93.4810   71.0510 C.3   700  C8E700      0.0000
      4  C4        49.9560   93.5570   70.0040 C.3   700  C8E700      0.0000
      5  C5        50.1060   92.2010   69.4190 C.3   700  C8E700      0.0001
      6  C6        50.5270   92.2810   68.0290 C.3   700  C8E700      0.0026
      7  C7        51.5550   91.2760   67.9080 C.3   700  C8E700      0.0321
      8  C8        52.8550   91.8230   67.3800 C.3   700  C8E700      0.1423
      9  O9        53.8360   90.7800   67.1170 O.3   700  C8E700     -0.3498
     10  C10       54.9840   90.9130   67.9410 C.3   700  C8E700      0.1893
     11  C11       55.8500   89.7040   67.8010 C.3   700  C8E700      0.2376
     12  O12       56.0960   88.9490   69.0100 O.2   700  C8E700     -0.4666
     13  C13       55.3190   87.6990   69.0840 C.2   700  C8E700      0.2124
     14  C14       54.0980   87.7280   70.0010 C.2   700  C8E700      0.2124
     15  O15       52.9670   86.8480   70.1060 O.2   700  C8E700     -0.4666
     16  C16       52.9770   86.4450   71.4790 C.3   700  C8E700      0.2376
     17  C17       51.9430   86.8250   72.4450 C.3   700  C8E700      0.1894
     18  O18       51.9370   88.2690   72.7960 O.3   700  C8E700     -0.3470
     19  C19       50.5470   88.5470   72.8800 C.3   700  C8E700      0.1778
     20  C20       49.7510   89.2180   71.7030 C.3   700  C8E700      0.2140
     21  O21       50.4050   89.0480   70.4510 O.3   700  C8E700     -0.2176
@<TRIPOS>BOND
     1     9     8    1
     2     9    10    1
     3     8     7    1
     4    11    10    1
     5    11    12    1
     6     7     6    1
     7     6     5    1
     8    12    13    1
     9    13    14    2
    10     5     4    1
    11    14    15    1
    12     4     3    1
    13    15    16    1
    14    21    20    1
    15     3     2    1
    16    16    17    1
    17    20    19    1
    18     2     1    1
    19    17    18    1
    20    18    19    1
