@<TRIPOS>MOLECULE
1h36_R88_A_1.pdb
 25 27 0 0 0
SMALL
GASTEIGER

@<TRIPOS>ATOM
      1  C1A       67.2630   70.5720   71.4220 C.ar  800  R88800      0.0390
      2  C1        66.1310   69.8080   70.7610 C.2   800  R88800      0.1955
      3  O2        65.4110   69.1320   71.4890 O.2   800  R88800     -0.2866
      4  C1B       65.8410   69.8230   69.2550 C.ar  800  R88800      0.0391
      5  C6B       64.6280   69.2380   68.7750 C.ar  800  R88800      0.0063
      6  C5B       64.3280   69.2280   67.3910 C.ar  800  R88800      0.0370
      7  C4B       65.2400   69.8080   66.4560 C.ar  800  R88800      0.1391
      8  C2C       63.7110   70.3820   64.6920 C.3   800  R88800      0.2315
      9  C3C       63.7110   70.4470   63.1970 C.2   800  R88800      0.0175
     10  C4C       63.9390   71.5740   62.5280 C.2   800  R88800     -0.0097
     11  C5C       63.9510   71.6640   61.0140 C.3   800  R88800      0.0987
     12  N1D       62.6080   71.9170   60.3700 N.3   800  R88800     -0.2691
     13  C1F       61.8180   72.9720   61.0740 C.3   800  R88800      0.0899
     14  C1E       61.8950   70.6160   60.1200 C.3   800  R88800      0.0579
     15  C2E       62.5720   69.3970   59.4290 C.3   800  R88800      0.0173
     16  C3B       66.4490   70.3940   66.9220 C.ar  800  R88800      0.0370
     17  C2B       66.7490   70.4020   68.3110 C.ar  800  R88800      0.0063
     18  C6A       67.3440   71.9970   71.3580 C.ar  800  R88800      0.0037
     19  C5A       68.4120   72.6780   71.9980 C.ar  800  R88800      0.0068
     20  C4A       69.4010   71.9400   72.7060 C.ar  800  R88800      0.0346
     21  O1C       64.9670   69.8030   65.0830 O.3   800  R88800     -0.4707
     22  C3E       61.5770   70.2770   58.6450 C.3   800  R88800      0.0173
     23 BR23       70.7830   72.8210   73.5480 Br    800  R88800     -0.0490
     24  C3A       69.3250   70.5240   72.7720 C.ar  800  R88800      0.0068
     25  C2A       68.2590   69.8430   72.1320 C.ar  800  R88800      0.0037
@<TRIPOS>BOND
     1    22    15    1
     2    22    14    1
     3    15    14    1
     4    14    12    1
     5    12    11    1
     6    12    13    1
     7    11    10    1
     8    10     9    2
     9     9     8    1
    10     8    21    1
    11    21     7    1
    12     7    16   ar
    13     7     6   ar
    14    16    17   ar
    15     6     5   ar
    16    17     4   ar
    17     5     4   ar
    18     4     2    1
    19     2     1    1
    20     2     3    2
    21    18     1   ar
    22    18    19   ar
    23     1    25   ar
    24    19    20   ar
    25    25    24   ar
    26    20    24   ar
    27    20    23    1
