@<TRIPOS>MOLECULE
1h37_C8E_A_1.pdb
 21 20 0 0 0
SMALL
GASTEIGER

@<TRIPOS>ATOM
      1  C1        49.4210   92.8600   73.2990 C.3   700  C8E700      0.0000
      2  C2        49.5790   94.0070   72.3700 C.3   700  C8E700      0.0000
      3  C3        49.0810   93.6370   71.0370 C.3   700  C8E700      0.0000
      4  C4        50.2340   93.7170   70.1430 C.3   700  C8E700      0.0000
      5  C5        50.4160   92.3680   69.5550 C.3   700  C8E700      0.0001
      6  C6        50.4320   92.4320   68.1000 C.3   700  C8E700      0.0026
      7  C7        51.5420   91.5830   67.7190 C.3   700  C8E700      0.0321
      8  C8        52.8760   92.3060   67.6730 C.3   700  C8E700      0.1423
      9  O9        53.9620   91.4670   67.1690 O.3   700  C8E700     -0.3511
     10  C10       54.7960   90.9910   68.2170 C.3   700  C8E700      0.1741
     11  C11       55.4340   89.7070   67.8110 C.3   700  C8E700      0.1742
     12  O12       55.9540   88.8920   68.8830 O.3   700  C8E700     -0.3484
     13  C13       55.2690   87.6000   69.0140 C.3   700  C8E700      0.1742
     14  C14       54.1360   87.5550   70.0260 C.3   700  C8E700      0.1742
     15  O15       52.9340   86.7890   70.0480 O.3   700  C8E700     -0.3484
     16  C16       52.8850   86.2810   71.3770 C.3   700  C8E700      0.1742
     17  C17       51.8970   86.7100   72.3630 C.3   700  C8E700      0.1742
     18  O18       51.9180   88.1640   72.6440 O.3   700  C8E700     -0.3483
     19  C19       50.5390   88.4530   72.7740 C.3   700  C8E700      0.1777
     20  C20       49.7620   89.2960   71.7080 C.3   700  C8E700      0.2140
     21  O21       50.4860   89.4120   70.4970 O.3   700  C8E700     -0.2176
@<TRIPOS>BOND
     1     9     8    1
     2     9    10    1
     3     8     7    1
     4     7     6    1
     5    11    10    1
     6    11    12    1
     7     6     5    1
     8    12    13    1
     9    13    14    1
    10     5     4    1
    11    14    15    1
    12    15    16    1
    13     4     3    1
    14    21    20    1
    15     3     2    1
    16    16    17    1
    17    20    19    1
    18    17    18    1
    19     2     1    1
    20    18    19    1
