@<TRIPOS>MOLECULE
1h37_R02_A_1.pdb
 28 31 0 0 0
SMALL
GASTEIGER

@<TRIPOS>ATOM
      1  C1G       68.3100   72.0150   71.8920 C.ar  800  R02800      0.0390
      2  C1        67.5870   70.7240   71.5000 C.2   800  R02800      0.1955
      3  O2        67.7490   69.7390   72.2130 O.2   800  R02800     -0.2866
      4  C1A       66.6880   70.5810   70.2600 C.ar  800  R02800      0.0391
      5  C2A       66.8070   71.4690   69.1550 C.ar  800  R02800      0.0063
      6  C3A       65.9860   71.3330   68.0120 C.ar  800  R02800      0.0370
      7  C4A       65.0190   70.2970   67.9370 C.ar  800  R02800      0.1386
      8  O1B       64.1910   70.1580   66.7900 O.3   800  R02800     -0.4755
      9  C2B       64.8250   70.2910   65.4800 C.3   800  R02800      0.2053
     10  C3B       63.7840   69.8340   64.4140 C.3   800  R02800      0.0451
     11  C5B       62.4360   70.5930   64.4980 C.3   800  R02800      0.0053
     12  C2F       62.5220   73.6180   60.4650 C.3   800  R02800      0.0173
     13  C1F       63.3520   72.4470   61.0210 C.3   800  R02800      0.0579
     14  N1D       62.8540   71.0640   60.7390 N.3   800  R02800     -0.2703
     15  C1C       62.9110   70.1750   61.9550 C.3   800  R02800      0.0724
     16  C1E       63.6140   70.5060   59.5980 C.3   800  R02800      0.0988
     17  C2E       62.9420   69.3440   58.8940 C.2   800  R02800     -0.0088
     18  C3E       63.6450   68.3260   58.3880 C.2   800  R02800     -0.0035
     19  C5A       64.8850   69.3960   69.0420 C.ar  800  R02800      0.0370
     20  C6A       65.7150   69.5370   70.1960 C.ar  800  R02800      0.0063
     21  C6G       67.6610   73.2840   71.7950 C.ar  800  R02800      0.0037
     22  C5G       68.3380   74.4690   72.1530 C.ar  800  R02800      0.0068
     23  C4G       69.6770   74.4130   72.6190 C.ar  800  R02800      0.0346
     24 BR25       70.5440   75.9910   73.0740 Br    800  R02800     -0.0490
     25  C3G       70.3410   73.1500   72.7280 C.ar  800  R02800      0.0068
     26  C4B       63.3650   70.8300   63.2970 C.3   800  R02800      0.0197
     27  C3F       63.9100   73.3290   59.8700 C.3   800  R02800      0.0173
     28  C2G       69.6590   71.9580   72.3660 C.ar  800  R02800      0.0037
@<TRIPOS>BOND
     1    18    17    2
     2    17    16    1
     3    16    14    1
     4    27    12    1
     5    27    13    1
     6    12    13    1
     7    14    13    1
     8    14    15    1
     9    15    26    1
    10    26    10    1
    11    26    11    1
    12    10    11    1
    13    10     9    1
    14     9     8    1
    15     8     7    1
    16     7     6   ar
    17     7    19   ar
    18     6     5   ar
    19    19    20   ar
    20     5     4   ar
    21    20     4   ar
    22     4     2    1
    23     2     1    1
    24     2     3    2
    25    21     1   ar
    26    21    22   ar
    27     1    28   ar
    28    22    23   ar
    29    28    25   ar
    30    23    25   ar
    31    23    24    1
