@<TRIPOS>MOLECULE
1h39_R03_A_1.pdb
 29 31 0 0 0
SMALL
GASTEIGER

@<TRIPOS>ATOM
      1  C3A       62.8900   69.3740   58.5870 C.2   800  R03800     -0.0035
      2  C2A       61.9930   69.4620   59.5790 C.2   800  R03800     -0.0088
      3  C1A       61.5190   70.7790   60.1670 C.3   800  R03800      0.0989
      4  N1        62.5280   71.4070   61.0700 N.3   800  R03800     -0.2678
      5  C1B       62.3000   71.0920   62.5110 C.3   800  R03800      0.0724
      6  C2B       63.1560   69.9230   63.0730 C.3   800  R03800      0.0173
      7  C3B       63.9750   70.3640   64.3160 C.3   800  R03800      0.0016
      8  C4B       63.2170   70.0490   65.6410 C.3   800  R03800      0.0039
      9  C5B       63.9320   68.9460   66.4700 C.3   800  R03800      0.0473
     10  C6B       65.1380   69.5080   67.2640 C.3   800  R03800      0.2054
     11  O         64.6590   70.0380   68.5190 O.3   800  R03800     -0.4754
     12  C6C       65.6330   70.6750   69.3060 C.ar  800  R03800      0.1400
     13  C7C       66.4590   69.9060   70.1890 C.ar  800  R03800      0.0557
     14  C7P       67.4360   70.5990   70.9720 C.ar  800  R03800      0.0824
     15  N1C       68.3120   70.1010   71.8580 N.ar  800  R03800     -0.2487
     16  N2C       68.9630   71.0580   72.2970 N.ar  800  R03800     -0.1692
     17  C3C       68.6080   72.2360   71.7760 C.ar  800  R03800      0.1023
     18  C3P       67.5760   71.9970   70.8720 C.ar  800  R03800      0.0368
     19  C4C       66.7640   72.7810   70.0020 C.ar  800  R03800      0.0062
     20  C5C       65.7880   72.0950   69.2190 C.ar  800  R03800      0.0370
     21  C1D       69.2490   73.5680   72.1390 C.ar  800  R03800      0.0194
     22  C6D       70.5660   73.8800   71.6870 C.ar  800  R03800      0.0021
     23  C5D       71.1800   75.1220   72.0260 C.ar  800  R03800      0.0067
     24  C4D       70.4800   76.0690   72.8270 C.ar  800  R03800      0.0346
     25  C3D       69.1580   75.7640   73.2820 C.ar  800  R03800      0.0067
     26  C2D       68.5450   74.5180   72.9390 C.ar  800  R03800      0.0021
     27 BR27       71.2900   77.6870   73.2790 Br    800  R03800     -0.0490
     28  C1E       68.4780   68.6970   72.2410 C.3   800  R03800      0.1537
     29  C1F       62.5310   72.8870   60.8850 C.3   800  R03800      0.0899
@<TRIPOS>BOND
     1     1     2    2
     2     2     3    1
     3     3     4    1
     4    29     4    1
     5     4     5    1
     6     5     6    1
     7     6     7    1
     8     7     8    1
     9     8     9    1
    10     9    10    1
    11    10    11    1
    12    11    12    1
    13    20    12   ar
    14    20    19   ar
    15    12    13   ar
    16    19    18   ar
    17    13    14   ar
    18    18    14   ar
    19    18    17   ar
    20    14    15   ar
    21    22    23   ar
    22    22    21   ar
    23    17    21    1
    24    17    16   ar
    25    15    28    1
    26    15    16   ar
    27    23    24   ar
    28    21    26   ar
    29    24    27    1
    30    24    25   ar
    31    26    25   ar
