@<TRIPOS>MOLECULE
1h39_C8E_A_1.pdb
 21 20 0 0 0
SMALL
GASTEIGER

@<TRIPOS>ATOM
      1  C1        49.3920   92.5260   73.1190 C.3   700  C8E700      0.0000
      2  C2        49.4970   93.3300   71.8850 C.3   700  C8E700      0.0000
      3  C3        48.9320   92.5720   70.7570 C.3   700  C8E700      0.0000
      4  C4        49.5110   93.1380   69.5370 C.3   700  C8E700      0.0000
      5  C5        50.5790   92.2040   69.0740 C.3   700  C8E700      0.0001
      6  C6        50.2330   91.5740   67.8000 C.3   700  C8E700      0.0026
      7  C7        51.0280   92.2830   66.8110 C.3   700  C8E700      0.0321
      8  C8        52.3720   91.6430   66.5250 C.3   700  C8E700      0.1423
      9  O9        53.4470   92.1630   67.3820 O.3   700  C8E700     -0.3511
     10  C10       54.7310   91.9600   66.7970 C.3   700  C8E700      0.1741
     11  C11       55.5110   90.9320   67.5650 C.3   700  C8E700      0.1742
     12  O12       54.7780   90.1160   68.5200 O.3   700  C8E700     -0.3484
     13  C13       54.5690   88.7300   68.0560 C.3   700  C8E700      0.1742
     14  C14       54.5520   87.6510   69.1400 C.3   700  C8E700      0.1742
     15  O15       53.5910   86.6230   69.4340 O.3   700  C8E700     -0.3484
     16  C16       53.6750   86.4620   70.8540 C.3   700  C8E700      0.1742
     17  C17       52.5090   86.4490   71.7410 C.3   700  C8E700      0.1742
     18  O18       52.3350   87.6910   72.5340 O.3   700  C8E700     -0.3483
     19  C19       50.9290   87.8810   72.4780 C.3   700  C8E700      0.1777
     20  C20       50.2720   89.0270   71.6280 C.3   700  C8E700      0.2140
     21  O21       50.7940   89.0800   70.3050 O.3   700  C8E700     -0.2176
@<TRIPOS>BOND
     1     8     7    1
     2     8     9    1
     3    10     9    1
     4    10    11    1
     5     7     6    1
     6    11    12    1
     7     6     5    1
     8    13    12    1
     9    13    14    1
    10     5     4    1
    11    14    15    1
    12    15    16    1
    13     4     3    1
    14    21    20    1
    15     3     2    1
    16    16    17    1
    17    20    19    1
    18    17    18    1
    19     2     1    1
    20    19    18    1
