@<TRIPOS>MOLECULE
1h3a_R04_A_1.pdb
 28 30 0 0 0
SMALL
GASTEIGER

@<TRIPOS>ATOM
      1  C3A       63.1990   69.3230   57.6810 C.2   800  R04800     -0.0035
      2  C2A       62.3130   69.2220   58.6800 C.2   800  R04800     -0.0088
      3  C1A       61.7620   70.4210   59.4260 C.3   800  R04800      0.0992
      4  N1        62.8440   71.3720   59.8170 N.3   800  R04800     -0.2640
      5  C1B       63.6060   70.9250   61.0380 C.3   800  R04800      0.0989
      6  C2B       62.8450   70.9730   62.3540 C.2   800  R04800     -0.0097
      7  C3B       62.7170   69.9070   63.1650 C.2   800  R04800      0.0175
      8  C4B       61.9670   69.9620   64.4810 C.3   800  R04800      0.2316
      9  O         62.5860   69.0430   65.4160 O.3   800  R04800     -0.4683
     10  C6C       63.5370   69.5900   66.3400 C.ar  800  R04800      0.1678
     11  C7C       63.9490   70.9650   66.2660 C.ar  800  R04800      0.0580
     12  C7P       64.8930   71.4390   67.2010 C.ar  800  R04800      0.0826
     13  N1C       65.4050   72.6690   67.3070 N.ar  800  R04800     -0.2487
     14  N2C       66.1870   72.6720   68.2410 N.ar  800  R04800     -0.1692
     15  C3C       66.2800   71.4860   68.8450 C.ar  800  R04800      0.1024
     16  C3P       65.4230   70.5940   68.1900 C.ar  800  R04800      0.0391
     17  C4C       65.0300   69.2140   68.2950 C.ar  800  R04800      0.0358
     18  C5C       64.0740   68.7300   67.3470 C.ar  800  R04800      0.1740
     19  C1D       67.2010   71.2800   70.0320 C.ar  800  R04800      0.0194
     20  C6D       67.6540   69.9860   70.4470 C.ar  800  R04800      0.0021
     21  C5D       68.5200   69.8510   71.5710 C.ar  800  R04800      0.0067
     22  C4D       68.9380   71.0120   72.2840 C.ar  800  R04800      0.0346
     23  C3D       68.4880   72.2990   71.8690 C.ar  800  R04800      0.0067
     24  C2D       67.6280   72.4250   70.7540 C.ar  800  R04800      0.0021
     25  F         63.6830   67.4580   67.4060 F     800  R04800     -0.2010
     26 BR27       70.0640   70.8500   73.7520 Br    800  R04800     -0.0490
     27  C1E       65.1030   73.8280   66.4620 C.3   800  R04800      0.1537
     28  C1F       62.3000   72.7590   59.9970 C.3   800  R04800      0.0902
@<TRIPOS>BOND
     1     1     2    2
     2     2     3    1
     3     3     4    1
     4     4    28    1
     5     4     5    1
     6     5     6    1
     7     6     7    2
     8     7     8    1
     9     8     9    1
    10     9    10    1
    11    11    10   ar
    12    11    12   ar
    13    10    18   ar
    14    27    13    1
    15    12    13   ar
    16    12    16   ar
    17    13    14   ar
    18    18    25    1
    19    18    17   ar
    20    16    17   ar
    21    16    15   ar
    22    14    15   ar
    23    15    19    1
    24    19    20   ar
    25    19    24   ar
    26    20    21   ar
    27    24    23   ar
    28    21    22   ar
    29    23    22   ar
    30    22    26    1
