@<TRIPOS>MOLECULE
1h3a_C8E_A_1.pdb
 21 20 0 0 0
SMALL
GASTEIGER

@<TRIPOS>ATOM
      1  C1        48.7690   92.9730   73.5550 C.3   700  C8E700      0.0000
      2  C2        49.0370   94.0420   72.5670 C.3   700  C8E700      0.0000
      3  C3        48.5640   93.6330   71.2350 C.3   700  C8E700      0.0000
      4  C4        49.6640   93.9040   70.3090 C.3   700  C8E700      0.0000
      5  C5        49.9040   92.6540   69.5480 C.3   700  C8E700      0.0001
      6  C6        50.5290   92.9440   68.2740 C.3   700  C8E700      0.0026
      7  C7        51.4990   91.8860   68.1200 C.3   700  C8E700      0.0321
      8  C8        52.6830   92.2970   67.2850 C.3   700  C8E700      0.1423
      9  O9        53.5610   91.1770   66.9590 O.3   700  C8E700     -0.3511
     10  C10       54.9230   91.5810   66.9150 C.3   700  C8E700      0.1741
     11  C11       55.8070   90.3910   67.0880 C.3   700  C8E700      0.1742
     12  O12       55.6720   89.6710   68.3360 O.3   700  C8E700     -0.3484
     13  C13       55.0600   88.3410   68.1670 C.3   700  C8E700      0.1742
     14  C14       54.2230   87.8370   69.3430 C.3   700  C8E700      0.1742
     15  O15       52.8910   87.2950   69.3990 O.3   700  C8E700     -0.3484
     16  C16       52.8850   86.5130   70.6000 C.3   700  C8E700      0.1742
     17  C17       51.8590   86.6290   71.6390 C.3   700  C8E700      0.1742
     18  O18       51.8070   87.9570   72.2980 O.3   700  C8E700     -0.3483
     19  C19       50.4090   88.1830   72.3890 C.3   700  C8E700      0.1777
     20  C20       49.6850   89.2980   71.5540 C.3   700  C8E700      0.2140
     21  O21       50.1420   89.3440   70.2060 O.3   700  C8E700     -0.2176
@<TRIPOS>BOND
     1    10     9    1
     2    10    11    1
     3     9     8    1
     4    11    12    1
     5     8     7    1
     6     7     6    1
     7    13    12    1
     8    13    14    1
     9     6     5    1
    10    14    15    1
    11    15    16    1
    12     5     4    1
    13    21    20    1
    14     4     3    1
    15    16    17    1
    16     3     2    1
    17    20    19    1
    18    17    18    1
    19    18    19    1
    20     2     1    1
