@<TRIPOS>MOLECULE
1h3b_C8E_A_1.pdb
 21 20 0 0 0
SMALL
GASTEIGER

@<TRIPOS>ATOM
      1  C1        49.1840   93.2480   72.0180 C.3   700  C8E700      0.0000
      2  C2        49.6920   93.6750   70.6970 C.3   700  C8E700      0.0000
      3  C3        48.9920   92.9240   69.6340 C.3   700  C8E700      0.0000
      4  C4        49.6260   93.2860   68.3600 C.3   700  C8E700      0.0000
      5  C5        50.4270   92.1150   67.9010 C.3   700  C8E700      0.0001
      6  C6        51.3900   92.5190   66.8900 C.3   700  C8E700      0.0026
      7  C7        52.6690   92.4160   67.5600 C.3   700  C8E700      0.0321
      8  C8        53.7920   92.0570   66.6210 C.3   700  C8E700      0.1423
      9  O9        54.3110   90.7130   66.8670 O.3   700  C8E700     -0.3498
     10  C10       55.6340   90.7580   67.3870 C.3   700  C8E700      0.1893
     11  C11       56.1780   89.3770   67.5100 C.3   700  C8E700      0.2376
     12  O12       56.1540   88.7970   68.8330 O.2   700  C8E700     -0.4666
     13  C13       55.4370   87.5130   68.8710 C.2   700  C8E700      0.2124
     14  C14       53.9570   87.5940   69.2340 C.2   700  C8E700      0.2124
     15  O15       52.9350   86.5910   69.2510 O.2   700  C8E700     -0.4666
     16  C16       52.9710   86.0760   70.5860 C.3   700  C8E700      0.2376
     17  C17       51.9280   86.3400   71.5710 C.3   700  C8E700      0.1894
     18  O18       51.6970   87.7770   71.8190 O.3   700  C8E700     -0.3470
     19  C19       50.2880   87.8630   71.7170 C.3   700  C8E700      0.1778
     20  C20       49.5530   89.2370   71.5710 C.3   700  C8E700      0.2140
     21  O21       50.1440   90.0470   70.5690 O.3   700  C8E700     -0.2176
@<TRIPOS>BOND
     1     8     9    1
     2     8     7    1
     3     9    10    1
     4     6     7    1
     5     6     5    1
     6    10    11    1
     7    11    12    1
     8     5     4    1
     9     4     3    1
    10    12    13    1
    11    13    14    2
    12    14    15    1
    13    15    16    1
    14     3     2    1
    15    21    20    1
    16    16    17    1
    17     2     1    1
    18    17    18    1
    19    20    19    1
    20    19    18    1
