@<TRIPOS>MOLECULE
1h3b_R46_A_1.pdb
 28 30 0 0 0
SMALL
GASTEIGER

@<TRIPOS>ATOM
      1  C3A       63.5350   67.5640   58.0500 C.2   800  R46800     -0.0035
      2  C2A       63.3640   68.8740   58.2570 C.2   800  R46800     -0.0088
      3  C1A       62.0090   69.5080   58.4530 C.3   800  R46800      0.0989
      4  N1        62.0400   70.6380   59.4220 N.3   800  R46800     -0.2678
      5  C1B       62.2070   70.2270   60.8510 C.3   800  R46800      0.0724
      6  C2B       62.2050   71.3570   61.9130 C.3   800  R46800      0.0173
      7  C3B       63.4780   71.3250   62.8160 C.3   800  R46800      0.0016
      8  C4B       63.6480   70.0070   63.6460 C.3   800  R46800      0.0039
      9  C5B       62.3510   69.5920   64.4220 C.3   800  R46800      0.0473
     10  C6B       62.4860   69.7140   65.9620 C.3   800  R46800      0.2054
     11  O         63.7090   69.0920   66.3980 O.3   800  R46800     -0.4755
     12  C1C       64.5150   69.6940   67.3780 C.ar  800  R46800      0.1386
     13  C2C       65.1610   70.9130   67.0510 C.ar  800  R46800      0.0369
     14  C3C       65.9900   71.5690   68.0040 C.ar  800  R46800      0.0046
     15  N2D       66.9900   73.1300   70.4060 N.ar  800  R46800     -0.2092
     16  C3D       67.0920   71.7810   70.2660 C.ar  800  R46800      0.0896
     17  C4C       66.1920   71.0230   69.3050 C.ar  800  R46800      0.0185
     18  C5C       65.5370   69.7880   69.6420 C.ar  800  R46800      0.0046
     19  C6C       64.7060   69.1260   68.6910 C.ar  800  R46800      0.0369
     20  C3P       68.0700   71.2510   71.0680 C.ar  800  R46800      0.0257
     21  C4D       68.4940   69.9050   71.2230 C.ar  800  R46800      0.0026
     22  C5D       69.5250   69.6210   72.1180 C.ar  800  R46800      0.0068
     23  S1D       67.9640   73.8700   71.4260 S.2   800  R46800      0.0130
     24  C6D       70.1370   70.6600   72.8580 C.ar  800  R46800      0.0351
     25  C7D       69.7270   72.0000   72.7140 C.ar  800  R46800      0.0147
     26  C7P       68.6840   72.3020   71.8120 C.ar  800  R46800      0.0494
     27 BR28       71.4810   70.2380   74.0180 Br    800  R46800     -0.0490
     28  C1E       60.8420   71.4920   59.2250 C.3   800  R46800      0.0899
@<TRIPOS>BOND
     1     1     2    2
     2     2     3    1
     3     3     4    1
     4    28     4    1
     5     4     5    1
     6     5     6    1
     7     6     7    1
     8     7     8    1
     9     8     9    1
    10     9    10    1
    11    10    11    1
    12    11    12    1
    13    13    12   ar
    14    13    14   ar
    15    12    19   ar
    16    14    17   ar
    17    19    18   ar
    18    17    18   ar
    19    17    16    1
    20    16    15   ar
    21    16    20   ar
    22    15    23   ar
    23    20    21   ar
    24    20    26   ar
    25    21    22   ar
    26    23    26   ar
    27    26    25   ar
    28    22    24   ar
    29    25    24   ar
    30    24    27    1
