@<TRIPOS>MOLECULE
1h3c_R79_A_1.pdb
 28 30 0 0 0
SMALL
GASTEIGER

@<TRIPOS>ATOM
      1  C3A       63.1060   69.2390   59.0870 C.2   800  R79800     -0.0035
      2  C2A       62.0440   69.9890   58.7510 C.2   800  R79800     -0.0088
      3  C1A       61.3890   71.0240   59.6580 C.3   800  R79800      0.0989
      4  N1        62.2950   71.5670   60.7140 N.3   800  R79800     -0.2678
      5  C1B       61.9190   71.1130   62.0840 C.3   800  R79800      0.0724
      6  C2B       62.8840   70.0620   62.7100 C.3   800  R79800      0.0173
      7  C3B       63.7150   70.6710   63.8690 C.3   800  R79800      0.0016
      8  C4B       63.1200   70.2760   65.2450 C.3   800  R79800      0.0039
      9  C5B       63.9080   69.1070   65.8830 C.3   800  R79800      0.0473
     10  C6B       65.0700   69.6280   66.7630 C.3   800  R79800      0.2054
     11  O         64.5380   70.1560   67.9960 O.3   800  R79800     -0.4754
     12  C6C       65.4980   70.6120   68.8960 C.ar  800  R79800      0.1391
     13  C7C       66.2660   69.6930   69.7000 C.ar  800  R79800      0.0449
     14  C7P       67.2230   70.2420   70.5810 C.ar  800  R79800      0.0519
     15  S1C       68.3130   69.3950   71.6850 S.2   800  R79800      0.0131
     16  N2C       68.8950   70.8010   72.1360 N.ar  800  R79800     -0.2092
     17  C3C       68.4070   71.9460   71.5910 C.ar  800  R79800      0.0896
     18  C3P       67.4130   71.6710   70.6650 C.ar  800  R79800      0.0259
     19  C4C       66.6430   72.5380   69.8700 C.ar  800  R79800      0.0052
     20  C5C       65.6960   71.9940   68.9960 C.ar  800  R79800      0.0370
     21  C1D       68.9810   73.2910   72.0370 C.ar  800  R79800      0.0183
     22  C6D       70.3450   73.5470   71.7720 C.ar  800  R79800      0.0020
     23  C5D       70.9500   74.7870   72.1750 C.ar  800  R79800      0.0067
     24  C4D       70.1960   75.7880   72.8500 C.ar  800  R79800      0.0346
     25  C3D       68.8170   75.5480   73.1260 C.ar  800  R79800      0.0067
     26  C2D       68.1990   74.2990   72.7230 C.ar  800  R79800      0.0020
     27 BR27       71.0330   77.3680   73.3660 Br    800  R79800     -0.0490
     28  C1E       62.3040   73.0610   60.6840 C.3   800  R79800      0.0899
@<TRIPOS>BOND
     1     2     1    2
     2     2     3    1
     3     3     4    1
     4    28     4    1
     5     4     5    1
     6     5     6    1
     7     6     7    1
     8     7     8    1
     9     8     9    1
    10     9    10    1
    11    10    11    1
    12    11    12    1
    13    12    20   ar
    14    12    13   ar
    15    20    19   ar
    16    13    14   ar
    17    19    18   ar
    18    14    18   ar
    19    14    15   ar
    20    18    17   ar
    21    17    21    1
    22    17    16   ar
    23    15    16   ar
    24    22    21   ar
    25    22    23   ar
    26    21    26   ar
    27    23    24   ar
    28    26    25   ar
    29    24    25   ar
    30    24    27    1
