@<TRIPOS>MOLECULE
1h3c_C8E_A_1.pdb
 21 20 0 0 0
SMALL
GASTEIGER

@<TRIPOS>ATOM
      1  C1        49.5630   93.0760   72.1680 C.3   700  C8E700      0.0000
      2  C2        49.0980   93.5690   70.8520 C.3   700  C8E700      0.0000
      3  C3        48.6870   92.4350   70.0010 C.3   700  C8E700      0.0000
      4  C4        49.3100   92.6510   68.6890 C.3   700  C8E700      0.0000
      5  C5        50.3210   91.5720   68.4970 C.3   700  C8E700      0.0001
      6  C6        51.4160   92.0260   67.6530 C.3   700  C8E700      0.0026
      7  C7        52.5470   92.0980   68.5540 C.3   700  C8E700      0.0321
      8  C8        53.8540   92.3300   67.8410 C.3   700  C8E700      0.1423
      9  O9        54.5140   91.0810   67.4680 O.3   700  C8E700     -0.3498
     10  C10       55.9140   91.1420   67.6930 C.3   700  C8E700      0.1893
     11  C11       56.4840   89.7670   67.6550 C.3   700  C8E700      0.2376
     12  O12       56.5180   89.0550   68.9100 O.2   700  C8E700     -0.4666
     13  C13       55.7460   87.8040   68.8650 C.2   700  C8E700      0.2124
     14  C14       54.3290   87.8730   69.4350 C.2   700  C8E700      0.2124
     15  O15       53.2280   86.9550   69.3440 O.2   700  C8E700     -0.4666
     16  C16       53.2100   86.3040   70.6200 C.3   700  C8E700      0.2376
     17  C17       52.0590   86.3270   71.5230 C.3   700  C8E700      0.1894
     18  O18       52.1740   87.3030   72.6320 O.3   700  C8E700     -0.3470
     19  C19       50.8800   87.8850   72.6450 C.3   700  C8E700      0.1778
     20  C20       50.5920   89.3040   72.0340 C.3   700  C8E700      0.2140
     21  O21       49.7930   89.2280   70.8570 O.3   700  C8E700     -0.2176
@<TRIPOS>BOND
     1     9    10    1
     2     9     8    1
     3     6     5    1
     4     6     7    1
     5    11    10    1
     6    11    12    1
     7     8     7    1
     8     5     4    1
     9     4     3    1
    10    13    12    1
    11    13    14    2
    12    15    14    1
    13    15    16    1
    14     3     2    1
    15    16    17    1
    16     2     1    1
    17    21    20    1
    18    17    18    1
    19    20    19    1
    20    18    19    1
