@<TRIPOS>MOLECULE
1h3d_AMP_A_1.pdb
 23 25 0 0 0
SMALL
GASTEIGER

@<TRIPOS>ATOM
      1  P         50.1390   52.3440   45.2620 P.3   400  AMP400      0.5327
      2  O1P       49.4230   53.3280   46.2020 O.3   400  AMP400     -0.1145
      3  O2P       51.4210   51.9580   45.9000 O.3   400  AMP400     -0.1145
      4  O3P       50.3530   53.0320   43.8870 O.2   400  AMP400     -0.2224
      5  O5'       49.3270   50.9860   45.0290 O.3   400  AMP400     -0.2675
      6  C5'       48.0340   51.0360   44.4960 C.3   400  AMP400      0.1860
      7  C4'       47.8230   50.2530   43.1980 C.3   400  AMP400      0.1823
      8  O4'       47.9450   48.8380   43.3320 O.3   400  AMP400     -0.3135
      9  C3'       46.3650   50.4580   42.8880 C.3   400  AMP400      0.2184
     10  O3'       46.1240   50.4380   41.5080 O.3   400  AMP400     -0.2174
     11  C2'       45.6970   49.3100   43.6080 C.3   400  AMP400      0.2570
     12  O2'       44.5980   48.9510   42.8670 O.3   400  AMP400     -0.2130
     13  C1'       46.7270   48.1970   43.6770 C.3   400  AMP400      0.3186
     14  N9        46.8840   47.7790   45.0740 N.pl3 400  AMP400     -0.1439
     15  C8        47.5040   48.5600   46.0150 C.3   400  AMP400      0.3377
     16  N7        47.5080   47.9350   47.2100 N.2   400  AMP400     -0.2095
     17  C5        46.9110   46.7550   47.0470 C.2   400  AMP400      0.2526
     18  C6        46.6930   45.7630   47.9730 C.2   400  AMP400      0.4393
     19  N6        47.1120   45.9830   49.2120 N.pl3 400  AMP400      0.2180
     20  N1        46.0460   44.6040   47.5770 N.2   400  AMP400      0.0021
     21  C2        45.6370   44.4780   46.2520 C.3   400  AMP400      0.5254
     22  N3        45.8680   45.4910   45.3260 N.2   400  AMP400     -0.0055
     23  C4        46.5040   46.6230   45.7160 C.2   400  AMP400      0.3518
@<TRIPOS>BOND
     1    10     9    1
     2    12    11    1
     3     9     7    1
     4     9    11    1
     5     7     8    1
     6     7     6    1
     7     8    13    1
     8    11    13    1
     9    13    14    1
    10     4     1    2
    11     6     5    1
    12     5     1    1
    13    14    23    1
    14    14    15    1
    15     1     3    1
    16     1     2    1
    17    22    23    2
    18    22    21    1
    19    23    17    1
    20    15    16    1
    21    21    20    1
    22    17    16    2
    23    17    18    1
    24    20    18    2
    25    18    19    1
