@<TRIPOS>MOLECULE
1h3e_ATP_A_1.pdb
 31 33 0 0 0
SMALL
GASTEIGER

@<TRIPOS>ATOM
      1  PG       129.5640   47.1050   48.1710 P.3   1433  ATP1433     0.5373
      2  O1G      129.3370   48.4350   47.4840 O.3   1433  ATP1433    -0.1143
      3  O2G      130.4230   46.0870   47.4370 O.2   1433  ATP1433    -0.2221
      4  O3G      128.4170   46.5620   48.9880 O.3   1433  ATP1433    -0.1143
      5  PB       131.6680   46.5680   50.0270 P.3   1433  ATP1433     0.2277
      6  O1B      130.9930   45.7200   51.0830 O.3   1433  ATP1433    -0.4368
      7  O2B      132.3730   45.8940   48.8690 O.2   1433  ATP1433    -0.5168
      8  O3B      130.5750   47.5040   49.3420 O.3   1433  ATP1433    -0.2258
      9  PA       132.5670   49.1650   51.2010 P.3   1433  ATP1433     0.2189
     10  O1A      133.8970   49.5360   51.7940 O.3   1433  ATP1433    -0.4371
     11  O2A      132.0340   49.9500   50.0400 O.2   1433  ATP1433    -0.5170
     12  O3A      132.6630   47.6210   50.7450 O.3   1433  ATP1433    -0.2700
     13  O5'      131.4850   49.2220   52.3590 O.3   1433  ATP1433    -0.3112
     14  C5'      131.6670   50.0620   53.5060 C.3   1433  ATP1433     0.1813
     15  C4'      130.7960   49.5660   54.6310 C.3   1433  ATP1433     0.1821
     16  O4'      129.4080   49.7770   54.2910 O.3   1433  ATP1433    -0.3135
     17  C3'      130.9140   48.0690   54.8500 C.3   1433  ATP1433     0.2184
     18  O3'      131.9500   47.8080   55.7950 O.3   1433  ATP1433    -0.2174
     19  C2'      129.5680   47.6820   55.4320 C.3   1433  ATP1433     0.2570
     20  O2'      129.5890   47.8680   56.8280 O.3   1433  ATP1433    -0.2130
     21  C1'      128.6330   48.6950   54.7650 C.3   1433  ATP1433     0.3186
     22  N9       127.8150   48.2000   53.6610 N.pl3 1433  ATP1433    -0.1439
     23  C8       128.1770   48.0070   52.3520 C.3   1433  ATP1433     0.3377
     24  N7       127.2020   47.5640   51.5960 N.2   1433  ATP1433    -0.2095
     25  C5       126.1260   47.4570   52.4680 C.2   1433  ATP1433     0.2526
     26  C6       124.7930   47.0330   52.2890 C.2   1433  ATP1433     0.4393
     27  N6       124.2840   46.6430   51.1160 N.pl3 1433  ATP1433     0.2180
     28  N1       123.9870   47.0260   53.3690 N.2   1433  ATP1433     0.0021
     29  C2       124.4850   47.4360   54.5400 C.3   1433  ATP1433     0.5254
     30  N3       125.7100   47.8680   54.8320 N.2   1433  ATP1433    -0.0055
     31  C4       126.4910   47.8470   53.7420 C.2   1433  ATP1433     0.3518
@<TRIPOS>BOND
     1     3     1    2
     2     2     1    1
     3     1     4    1
     4     1     8    1
     5     7     5    2
     6     8     5    1
     7     5    12    1
     8     5     6    1
     9    11     9    2
    10    12     9    1
    11    27    26    1
    12     9    10    1
    13     9    13    1
    14    24    23    1
    15    24    25    2
    16    26    25    1
    17    26    28    2
    18    23    22    1
    19    13    14    1
    20    25    31    1
    21    28    29    1
    22    14    15    1
    23    22    31    1
    24    22    21    1
    25    31    30    2
    26    16    15    1
    27    16    21    1
    28    29    30    1
    29    15    17    1
    30    21    19    1
    31    17    19    1
    32    17    18    1
    33    19    20    1
