@<TRIPOS>MOLECULE
1h3e_TYE_A_1.pdb
 12 12 0 0 0
SMALL
GASTEIGER

@<TRIPOS>ATOM
      1  N        137.1520   46.6650   54.5580 N.3   1434  TYE1434    -0.1241
      2  CA       135.8440   47.3710   54.6840 C.3   1434  TYE1434     0.1605
      3  C        134.9960   47.0510   53.4600 C.2   1434  TYE1434     0.2264
      4  O        135.4430   47.4140   52.3490 O.2   1434  TYE1434    -0.2867
      5  CB       136.0570   48.8810   54.7610 C.3   1434  TYE1434     0.0534
      6  CG       137.0900   49.3130   55.7720 C.ar  1434  TYE1434    -0.0201
      7  CD1      136.8900   49.1040   57.1310 C.ar  1434  TYE1434    -0.0009
      8  CD2      138.2720   49.9300   55.3680 C.ar  1434  TYE1434    -0.0009
      9  CE1      137.8450   49.4990   58.0700 C.ar  1434  TYE1434     0.0417
     10  CE2      139.2300   50.3250   56.2950 C.ar  1434  TYE1434     0.0417
     11  CZ       139.0110   50.1060   57.6450 C.ar  1434  TYE1434     0.1957
     12  OH       139.9630   50.4780   58.5710 O.3   1434  TYE1434    -0.2866
@<TRIPOS>BOND
     1     4     3    2
     2     3     2    1
     3     1     2    1
     4     2     5    1
     5     5     6    1
     6     8     6   ar
     7     8    10   ar
     8     6     7   ar
     9    10    11   ar
    10     7     9   ar
    11    11     9   ar
    12    11    12    1
