@<TRIPOS>MOLECULE
1h3f_TYE_A_1.pdb
 12 12 0 0 0
SMALL
GASTEIGER

@<TRIPOS>ATOM
      1  N          2.1490   50.5170   14.0020 N.3   1433  TYE1433    -0.1241
      2  CA         2.7320   51.4220   15.0280 C.3   1433  TYE1433     0.1605
      3  C          3.4460   52.6120   14.3810 C.2   1433  TYE1433     0.2264
      4  O          3.7530   53.5660   15.1420 O.2   1433  TYE1433    -0.2867
      5  CB         3.7120   50.6430   15.9150 C.3   1433  TYE1433     0.0534
      6  CG         4.8220   49.9500   15.1570 C.ar  1433  TYE1433    -0.0201
      7  CD1        5.8320   50.6860   14.5290 C.ar  1433  TYE1433    -0.0009
      8  CD2        4.8490   48.5550   15.0390 C.ar  1433  TYE1433    -0.0009
      9  CE1        6.8390   50.0540   13.8010 C.ar  1433  TYE1433     0.0417
     10  CE2        5.8540   47.9110   14.3100 C.ar  1433  TYE1433     0.0417
     11  CZ         6.8430   48.6670   13.6920 C.ar  1433  TYE1433     0.1957
     12  OH         7.8190   48.0420   12.9540 O.3   1433  TYE1433    -0.2866
@<TRIPOS>BOND
     1    12    11    1
     2    11     9   ar
     3    11    10   ar
     4     9     7   ar
     5     1     2    1
     6    10     8   ar
     7     3     2    1
     8     3     4    2
     9     7     6   ar
    10     2     5    1
    11     8     6   ar
    12     6     5    1
