@<TRIPOS>MOLECULE
1h3j_BMA_A_1.pdb
 11 11 0 0 0
SMALL
GASTEIGER

@<TRIPOS>ATOM
      1  C1        36.4450    0.2240   71.1680 C.3   1349  BMA1349     0.1777
      2  C2        35.2710    1.0940   71.3140 C.3   1349  BMA1349     0.2141
      3  C3        35.9210    2.4390   71.1500 C.3   1349  BMA1349     0.2173
      4  C4        36.9380    2.5120   72.3870 C.3   1349  BMA1349     0.2142
      5  C5        37.8250    1.2470   72.7490 C.3   1349  BMA1349     0.1810
      6  C6        38.2520    1.3200   74.2470 C.3   1349  BMA1349     0.2141
      7  O2        34.6330    0.8400   72.5890 O.3   1349  BMA1349    -0.2176
      8  O3        34.8710    3.4230   71.1010 O.3   1349  BMA1349    -0.2175
      9  O4        37.8730    3.4680   72.0990 O.3   1349  BMA1349    -0.2176
     10  O5        37.0090    0.0560   72.4660 O.3   1349  BMA1349    -0.3481
     11  O6        39.3630    0.5080   74.6050 O.3   1349  BMA1349    -0.2176
@<TRIPOS>BOND
     1     8     3    1
     2     3     2    1
     3     3     4    1
     4     1     2    1
     5     1    10    1
     6     2     7    1
     7     9     4    1
     8     4     5    1
     9    10     5    1
    10     5     6    1
    11     6    11    1
