@<TRIPOS>MOLECULE
1h3j_HEM_A_1.pdb
 43 50 0 0 0
SMALL
GASTEIGER

@<TRIPOS>ATOM
      1 FE         42.4180   17.2070   57.2120 Fe    1344  HEM1344     0.0000
      2  CHA       41.8620   16.4140   60.5740 C.2   1344  HEM1344     0.0000
      3  CHB       39.1730   18.0060   56.8190 C.2   1344  HEM1344     0.0000
      4  CHC       42.9330   17.6690   53.7240 C.2   1344  HEM1344     0.0000
      5  CHD       45.7720   16.9920   57.6060 C.2   1344  HEM1344     0.0000
      6  NA        40.9410   17.3070   58.5180 N.ar  1344  HEM1344     0.0000
      7  C1A       40.8600   17.0630   59.8700 C.ar  1344  HEM1344     0.0000
      8  C2A       39.5630   17.3730   60.3480 C.ar  1344  HEM1344     0.0000
      9  C3A       38.8430   17.8760   59.2930 C.ar  1344  HEM1344     0.0000
     10  C4A       39.6400   17.7730   58.1360 C.ar  1344  HEM1344     0.0000
     11  CMA       37.4410   18.4550   59.3300 C.3   1344  HEM1344     0.0000
     12  CAA       39.0480   17.1200   61.7420 C.3   1344  HEM1344     0.0000
     13  CBA       39.6810   18.1630   62.6350 C.3   1344  HEM1344     0.0000
     14  CGA       39.0370   18.2440   64.0080 C.2   1344  HEM1344     0.0000
     15  O1A       37.8040   18.2900   64.0940 O.co2 1344  HEM1344     0.0000
     16  O2A       39.7610   18.2510   65.0170 O.co2 1344  HEM1344     0.0000
     17  NB        41.2960   17.6620   55.5740 N.2   1344  HEM1344     0.0000
     18  C1B       39.9250   17.9550   55.6300 C.2   1344  HEM1344     0.0000
     19  C2B       39.4200   18.2360   54.3770 C.2   1344  HEM1344     0.0000
     20  C3B       40.4670   18.0430   53.5060 C.2   1344  HEM1344     0.0000
     21  C4B       41.6190   17.6920   54.2520 C.2   1344  HEM1344     0.0000
     22  CMB       38.0100   18.6560   53.9290 C.3   1344  HEM1344     0.0000
     23  CAB       40.4950   18.3500   52.1330 C.3   1344  HEM1344     0.0000
     24  CBB       40.2400   17.5840   50.9790 C.3   1344  HEM1344     0.0000
     25  NC        44.0330   17.3530   55.9070 N.ar  1344  HEM1344     0.0000
     26  C1C       44.0890   17.5780   54.5480 C.ar  1344  HEM1344     0.0000
     27  C2C       45.4830   17.8050   54.1430 C.ar  1344  HEM1344     0.0000
     28  C3C       46.2720   17.7050   55.2290 C.ar  1344  HEM1344     0.0000
     29  C4C       45.3550   17.3340   56.3160 C.ar  1344  HEM1344     0.0000
     30  CMC       45.8690   18.0500   52.6680 C.3   1344  HEM1344     0.0000
     31  CAC       47.6790   17.9140   55.4480 C.2   1344  HEM1344     0.0000
     32  CBC       48.6680   17.6210   54.5450 C.2   1344  HEM1344     0.0000
     33  ND        43.5750   16.8800   58.7610 N.2   1344  HEM1344     0.0000
     34  C1D       44.9720   16.6940   58.7160 C.2   1344  HEM1344     0.0000
     35  C2D       45.4520   16.0980   59.9400 C.2   1344  HEM1344     0.0000
     36  C3D       44.3700   16.0060   60.7680 C.2   1344  HEM1344     0.0000
     37  C4D       43.1980   16.4520   60.0400 C.2   1344  HEM1344     0.0000
     38  CMD       46.8350   15.4980   60.2530 C.3   1344  HEM1344     0.0000
     39  CAD       44.3690   15.4470   62.1910 C.3   1344  HEM1344     0.0000
     40  CBD       44.2210   16.5010   63.2600 C.3   1344  HEM1344     0.0000
     41  CGD       44.1870   15.9100   64.6440 C.2   1344  HEM1344     0.0000
     42  O1D       44.1650   16.6680   65.6380 O.co2 1344  HEM1344     0.0000
     43  O2D       44.1930   14.6670   64.7620 O.co2 1344  HEM1344     0.0000
@<TRIPOS>BOND
     1    24    23    1
     2    23    20    1
     3    30    27    1
     4    20    21    1
     5    20    19    2
     6     4    21    2
     7     4    26    1
     8    22    19    1
     9    27    26   ar
    10    27    28   ar
    11    21    17    1
    12    19    18    1
    13    32    31    2
    14    26    25   ar
    15    28    31    1
    16    28    29   ar
    17    17    18    2
    18    17     1    1
    19    18     3    1
    20    25    29   ar
    21    25     1    1
    22    29     5    1
    23     3    10    2
    24     1     6    1
    25     1    33    1
    26     5    34    2
    27    10     6   ar
    28    10     9   ar
    29     6     7   ar
    30    34    33    1
    31    34    35    1
    32    33    37    2
    33     9    11    1
    34     9     8   ar
    35     7     8   ar
    36     7     2    2
    37    35    38    1
    38    35    36    2
    39    37     2    1
    40    37    36    1
    41     8    12    1
    42    36    39    1
    43    12    13    1
    44    39    40    1
    45    13    14    1
    46    40    41    1
    47    14    15   ar
    48    14    16   ar
    49    41    43   ar
    50    41    42   ar
