@<TRIPOS>MOLECULE
1h3n_LMS_A_1.pdb
 23 25 0 0 0
SMALL
GASTEIGER

@<TRIPOS>ATOM
      1  N9        34.3260   43.7110   75.1830 N.pl3 1816  LMS1816    -0.1439
      2  C8        34.4440   44.9580   75.7540 C.3   1816  LMS1816     0.3377
      3  N7        34.3260   44.9530   77.0630 N.2   1816  LMS1816    -0.2095
      4  C5        34.1250   43.6160   77.3760 C.2   1816  LMS1816     0.2526
      5  C6        33.9070   42.9460   78.6010 C.2   1816  LMS1816     0.4393
      6  N6        33.8350   43.5560   79.7880 N.pl3 1816  LMS1816     0.2180
      7  N1        33.7520   41.6080   78.5620 N.2   1816  LMS1816     0.0021
      8  C2        33.7950   40.9910   77.3740 C.3   1816  LMS1816     0.5254
      9  N3        33.9770   41.5060   76.1600 N.2   1816  LMS1816    -0.0055
     10  C4        34.1380   42.8380   76.2300 C.2   1816  LMS1816     0.3518
     11  N         34.7460   48.1200   70.0250 N.3   1816  LMS1816     0.0391
     12  S         35.1610   48.0060   71.6070 S.3   1816  LMS1816     0.0828
     13  O1P       36.5920   48.3150   71.7910 O.3   1816  LMS1816    -0.0529
     14  O2P       34.1610   48.7170   72.4360 O.3   1816  LMS1816    -0.0529
     15  O5'       34.9730   46.4710   71.9840 O.3   1816  LMS1816    -0.2246
     16  C5'       35.7860   45.4550   71.3760 C.3   1816  LMS1816     0.2061
     17  C4'       35.2780   44.0800   71.7510 C.3   1816  LMS1816     0.1842
     18  O4'       35.5310   43.8360   73.1680 O.3   1816  LMS1816    -0.3135
     19  C3'       33.7810   43.8290   71.5360 C.3   1816  LMS1816     0.2185
     20  O3'       33.5700   42.5070   71.0500 O.3   1816  LMS1816    -0.2174
     21  C2'       33.2170   43.9410   72.9500 C.3   1816  LMS1816     0.2570
     22  O2'       32.0380   43.1860   73.1400 O.3   1816  LMS1816    -0.2130
     23  C1'       34.3550   43.3380   73.7680 C.3   1816  LMS1816     0.3186
@<TRIPOS>BOND
     1    11    12    1
     2    20    19    1
     3    16    17    1
     4    16    15    1
     5    19    17    1
     6    19    21    1
     7    12    13    1
     8    12    15    1
     9    12    14    1
    10    17    18    1
    11    21    22    1
    12    21    23    1
    13    18    23    1
    14    23     1    1
    15     1     2    1
    16     1    10    1
    17     2     3    1
    18     9    10    2
    19     9     8    1
    20    10     4    1
    21     3     4    2
    22     8     7    1
    23     4     5    1
    24     7     5    2
    25     5     6    1
