@<TRIPOS>MOLECULE
1h3t_BMA_B_1.pdb
 12 12 0 0 0
SMALL
GASTEIGER

@<TRIPOS>ATOM
      1  C1         3.0960   -4.3610   58.8360 C.3   1447  BMA1447     0.3024
      2  C2         3.1930   -3.1540   57.9060 C.3   1447  BMA1447     0.2434
      3  C3         1.7970   -2.8810   57.3310 C.3   1447  BMA1447     0.2199
      4  C4         1.2210   -4.1370   56.6580 C.3   1447  BMA1447     0.2144
      5  C5         1.3600   -5.3930   57.5430 C.3   1447  BMA1447     0.1836
      6  C6         1.1110   -6.6470   56.7290 C.3   1447  BMA1447     0.2142
      7  O1         4.3290   -4.6300   59.4000 O.3   1447  BMA1447    -0.1869
      8  O2         4.1030   -3.4470   56.8460 O.3   1447  BMA1447    -0.2148
      9  O3         1.8760   -1.8390   56.3700 O.3   1447  BMA1447    -0.2174
     10  O4        -0.1550   -3.9140   56.3870 O.3   1447  BMA1447    -0.2176
     11  O5         2.7010   -5.5100   58.0730 O.3   1447  BMA1447    -0.3236
     12  O6         1.2190   -7.8190   57.5280 O.3   1447  BMA1447    -0.2176
@<TRIPOS>BOND
     1     9     3    1
     2    10     4    1
     3     4     3    1
     4     4     5    1
     5     6    12    1
     6     6     5    1
     7     8     2    1
     8     3     2    1
     9     5    11    1
    10     2     1    1
    11    11     1    1
    12     1     7    1
