@<TRIPOS>MOLECULE
1h3u_MAN_B_1.pdb
 11 11 0 0 0
SMALL
GASTEIGER

@<TRIPOS>ATOM
      1  C1         0.4170   -7.0830   54.6470 C.3   1448  MAN1448     0.1777
      2  C2         0.2670   -8.5800   54.9470 C.3   1448  MAN1448     0.2141
      3  C3         1.5150   -9.0730   55.6980 C.3   1448  MAN1448     0.2173
      4  C4         2.7700   -8.7740   54.8670 C.3   1448  MAN1448     0.2142
      5  C5         2.8380   -7.2760   54.5460 C.3   1448  MAN1448     0.1810
      6  C6         3.9820   -6.9550   53.6080 C.3   1448  MAN1448     0.2141
      7  O2         0.1050   -9.3030   53.7320 O.3   1448  MAN1448    -0.2176
      8  O3         1.4180  -10.4660   55.9590 O.3   1448  MAN1448    -0.2175
      9  O4         3.9310   -9.1590   55.5880 O.3   1448  MAN1448    -0.2176
     10  O5         1.6150   -6.8450   53.8990 O.3   1448  MAN1448    -0.3481
     11  O6         3.8650   -5.6420   53.0830 O.3   1448  MAN1448    -0.2176
@<TRIPOS>BOND
     1    11     6    1
     2     6     5    1
     3     7     2    1
     4    10     5    1
     5    10     1    1
     6     5     4    1
     7     1     2    1
     8     4     9    1
     9     4     3    1
    10     2     3    1
    11     3     8    1
