@<TRIPOS>MOLECULE
1h3u_BMA_A_1.pdb
 11 11 0 0 0
SMALL
GASTEIGER

@<TRIPOS>ATOM
      1  C1         3.8910    8.7320   59.8110 C.3   1448  BMA1448     0.1777
      2  C2         3.9030    7.2360   59.4820 C.3   1448  BMA1448     0.2141
      3  C3         4.9000    6.9300   58.3550 C.3   1448  BMA1448     0.2173
      4  C4         4.6900    7.8400   57.1560 C.3   1448  BMA1448     0.2142
      5  C5         4.6610    9.3000   57.5950 C.3   1448  BMA1448     0.1810
      6  C6         4.2850   10.1950   56.4320 C.3   1448  BMA1448     0.2141
      7  O2         2.6010    6.8170   59.1020 O.3   1448  BMA1448    -0.2176
      8  O3         4.7360    5.5770   57.9200 O.3   1448  BMA1448    -0.2175
      9  O4         5.7460    7.6400   56.2270 O.3   1448  BMA1448    -0.2176
     10  O5         3.6600    9.5020   58.6230 O.3   1448  BMA1448    -0.3481
     11  O6         4.3440   11.5690   56.8480 O.3   1448  BMA1448    -0.2176
@<TRIPOS>BOND
     1     9     4    1
     2     6    11    1
     3     6     5    1
     4     4     5    1
     5     4     3    1
     6     5    10    1
     7     8     3    1
     8     3     2    1
     9    10     1    1
    10     7     2    1
    11     2     1    1
