@<TRIPOS>MOLECULE
1h3u_NAG_A_1.pdb
 14 14 0 0 0
SMALL
GASTEIGER

@<TRIPOS>ATOM
      1  C1        -0.3100   13.6560   68.1580 C.3   1445  NAG1445     0.1665
      2  C2        -0.6080   12.2670   67.6100 C.3   1445  NAG1445     0.1576
      3  C3         0.6180   11.8280   66.7980 C.3   1445  NAG1445     0.2069
      4  C4         0.7700   12.7870   65.6160 C.3   1445  NAG1445     0.2134
      5  C5         0.8480   14.2480   66.1050 C.3   1445  NAG1445     0.1809
      6  C6         0.6580   15.1850   64.9270 C.3   1445  NAG1445     0.2141
      7  C7         0.0020   10.7770   69.4050 C.2   1445  NAG1445     0.2420
      8  C8        -0.3570    9.5240   70.1870 C.3   1445  NAG1445     0.0964
      9  N2        -0.9470   11.3360   68.6700 N.am  1445  NAG1445    -0.2019
     10  O3         0.4590   10.5000   66.3270 O.3   1445  NAG1445    -0.2184
     11  O4         1.9650   12.4720   64.8700 O.3   1445  NAG1445    -0.2176
     12  O5        -0.2170   14.5640   67.0540 O.3   1445  NAG1445    -0.3489
     13  O6        -0.7540   15.3760   64.7060 O.3   1445  NAG1445    -0.2176
     14  O7         1.1360   11.2310   69.4650 O.2   1445  NAG1445    -0.2733
@<TRIPOS>BOND
     1    13     6    1
     2    11     4    1
     3     6     5    1
     4     4     5    1
     5     4     3    1
     6     5    12    1
     7    10     3    1
     8     3     2    1
     9    12     1    1
    10     2     1    1
    11     2     9    1
    12     9     7   am
    13     7    14    2
    14     7     8    1
