@<TRIPOS>MOLECULE
1h3v_NAG_A_1.pdb
 14 14 0 0 0
SMALL
GASTEIGER

@<TRIPOS>ATOM
      1  C1        -0.0500   14.2530   67.4900 C.3   1445  NAG1445     0.1665
      2  C2        -0.0180   12.7160   67.4410 C.3   1445  NAG1445     0.1576
      3  C3         1.0620   12.1850   66.4840 C.3   1445  NAG1445     0.2069
      4  C4         1.0300   12.9060   65.1380 C.3   1445  NAG1445     0.2134
      5  C5         1.0600   14.4140   65.3710 C.3   1445  NAG1445     0.1809
      6  C6         1.0690   15.2240   64.0730 C.3   1445  NAG1445     0.2141
      7  C7         0.1210   10.9090   69.0280 C.2   1445  NAG1445     0.2420
      8  C8        -1.2410   10.4110   69.4900 C.3   1445  NAG1445     0.0964
      9  N2         0.2320   12.2100   68.7770 N.am  1445  NAG1445    -0.2019
     10  O3         0.8780   10.7930   66.2680 O.3   1445  NAG1445    -0.2184
     11  O4         2.1830   12.5180   64.3720 O.3   1445  NAG1445    -0.2176
     12  O5        -0.0840   14.8010   66.1610 O.3   1445  NAG1445    -0.3489
     13  O6        -0.0330   16.1550   64.0140 O.3   1445  NAG1445    -0.2176
     14  O7         1.0590   10.1160   68.8990 O.2   1445  NAG1445    -0.2733
@<TRIPOS>BOND
     1    13     6    1
     2     6     5    1
     3    11     4    1
     4     4     5    1
     5     4     3    1
     6     5    12    1
     7    12     1    1
     8    10     3    1
     9     3     2    1
    10     2     1    1
    11     2     9    1
    12     9     7   am
    13    14     7    2
    14     7     8    1
