@<TRIPOS>MOLECULE
1h3v_FUL_B_1.pdb
 10 10 0 0 0
SMALL
GASTEIGER

@<TRIPOS>ATOM
      1  C1         7.7240   -8.7580   59.5920 C.3   1445  FUL1445     0.1776
      2  C2         8.0110  -10.1930   59.1450 C.3   1445  FUL1445     0.2141
      3  O2         8.5150  -10.1650   57.8160 O.3   1445  FUL1445    -0.2176
      4  C3         9.0450  -10.8840   60.0380 C.3   1445  FUL1445     0.2172
      5  O3         8.4700  -11.3170   61.2640 O.3   1445  FUL1445    -0.2175
      6  C4        10.2840  -10.0080   60.3040 C.3   1445  FUL1445     0.2116
      7  O4        10.9710  -10.5130   61.4450 O.3   1445  FUL1445    -0.2177
      8  C5         9.9950   -8.5050   60.5340 C.3   1445  FUL1445     0.1483
      9  C6         9.7360   -8.0880   61.9700 C.3   1445  FUL1445     0.0349
     10  O5         8.9220   -7.9820   59.6980 O.3   1445  FUL1445    -0.3508
@<TRIPOS>BOND
     1     3     2    1
     2     2     1    1
     3     2     4    1
     4     1    10    1
     5    10     8    1
     6     4     6    1
     7     4     5    1
     8     6     8    1
     9     6     7    1
    10     8     9    1
