@<TRIPOS>MOLECULE
1h3v_BMA_A_1.pdb
 11 11 0 0 0
SMALL
GASTEIGER

@<TRIPOS>ATOM
      1  C1         3.9250    8.5200   59.4500 C.3   1448  BMA1448     0.1777
      2  C2         3.8870    7.0390   59.0310 C.3   1448  BMA1448     0.2141
      3  C3         4.8260    6.8020   57.8550 C.3   1448  BMA1448     0.2173
      4  C4         4.5180    7.7430   56.7200 C.3   1448  BMA1448     0.2142
      5  C5         4.5830    9.1760   57.2280 C.3   1448  BMA1448     0.1810
      6  C6         4.1940   10.1380   56.1290 C.3   1448  BMA1448     0.2141
      7  O2         2.5680    6.6790   58.6650 O.3   1448  BMA1448    -0.2176
      8  O3         4.7150    5.4580   57.3830 O.3   1448  BMA1448    -0.2175
      9  O4         5.4660    7.5460   55.6790 O.3   1448  BMA1448    -0.2176
     10  O5         3.6490    9.3620   58.3170 O.3   1448  BMA1448    -0.3481
     11  O6         4.5300   11.4840   56.5070 O.3   1448  BMA1448    -0.2176
@<TRIPOS>BOND
     1     9     4    1
     2     6    11    1
     3     6     5    1
     4     4     5    1
     5     4     3    1
     6     5    10    1
     7     8     3    1
     8     3     2    1
     9    10     1    1
    10     7     2    1
    11     2     1    1
