@<TRIPOS>MOLECULE
1h3v_GAL_A_1.pdb
 11 11 0 0 0
SMALL
GASTEIGER

@<TRIPOS>ATOM
      1  C1         9.9320   16.7310   51.0220 C.3   1451  GAL1451     0.1777
      2  C2         9.4500   18.1930   51.0380 C.3   1451  GAL1451     0.2141
      3  C3         9.8020   18.8480   49.7170 C.3   1451  GAL1451     0.2173
      4  C4        11.2950   18.7160   49.4630 C.3   1451  GAL1451     0.2142
      5  C5        11.7200   17.2520   49.5400 C.3   1451  GAL1451     0.1810
      6  C6        13.2140   17.1160   49.4100 C.3   1451  GAL1451     0.2141
      7  O2         8.0450   18.2570   51.2240 O.3   1451  GAL1451    -0.2176
      8  O3         9.4390   20.2150   49.7690 O.3   1451  GAL1451    -0.2175
      9  O4        12.0010   19.4580   50.4400 O.3   1451  GAL1451    -0.2176
     10  O5        11.3510   16.6910   50.8160 O.3   1451  GAL1451    -0.3481
     11  O6        13.6230   17.2540   48.0530 O.3   1451  GAL1451    -0.2176
@<TRIPOS>BOND
     1    11     6    1
     2     6     5    1
     3     4     5    1
     4     4     3    1
     5     4     9    1
     6     5    10    1
     7     3     8    1
     8     3     2    1
     9    10     1    1
    10     1     2    1
    11     2     7    1
