@<TRIPOS>MOLECULE
1h3v_MAN_A_1.pdb
 11 11 0 0 0
SMALL
GASTEIGER

@<TRIPOS>ATOM
      1  C1         4.3620   12.3370   55.4210 C.3   1449  MAN1449     0.1777
      2  C2         4.9270   13.7250   55.7180 C.3   1449  MAN1449     0.2141
      3  C3         4.0600   14.4670   56.7200 C.3   1449  MAN1449     0.2173
      4  C4         2.6420   14.5450   56.1520 C.3   1449  MAN1449     0.2142
      5  C5         2.1220   13.1240   55.8910 C.3   1449  MAN1449     0.1810
      6  C6         0.7570   13.0970   55.2370 C.3   1449  MAN1449     0.2141
      7  O2         4.9480   14.4840   54.4990 O.3   1449  MAN1449    -0.2176
      8  O3         4.5870   15.7770   56.9060 O.3   1449  MAN1449    -0.2175
      9  O4         1.7890   15.2350   57.0560 O.3   1449  MAN1449    -0.2176
     10  O5         3.0090   12.4270   54.9950 O.3   1449  MAN1449    -0.3481
     11  O6         0.6660   12.0370   54.2950 O.3   1449  MAN1449    -0.2176
@<TRIPOS>BOND
     1    11     6    1
     2     7     2    1
     3    10     1    1
     4    10     5    1
     5     6     5    1
     6     1     2    1
     7     2     3    1
     8     5     4    1
     9     4     3    1
    10     4     9    1
    11     3     8    1
