@<TRIPOS>MOLECULE
1h3w_NAG_M_1.pdb
 14 14 0 0 0
SMALL
GASTEIGER

@<TRIPOS>ATOM
      1  C1         6.8340   21.7780    5.0610 C.3   1449  NAG1449     0.1665
      2  C2         7.0490   20.2740    4.9600 C.3   1449  NAG1449     0.1576
      3  C3         8.0460   19.9350    3.8420 C.3   1449  NAG1449     0.2069
      4  C4         7.7070   20.6610    2.5150 C.3   1449  NAG1449     0.2134
      5  C5         7.4130   22.1520    2.7730 C.3   1449  NAG1449     0.1809
      6  C6         6.9350   22.9090    1.5390 C.3   1449  NAG1449     0.2141
      7  C7         6.8040   18.9520    6.9620 C.2   1449  NAG1449     0.2420
      8  C8         5.4940   19.4870    7.5260 C.3   1449  NAG1449     0.0964
      9  N2         7.5440   19.7820    6.2320 N.am  1449  NAG1449    -0.2019
     10  O3         8.0340   18.5290    3.6260 O.3   1449  NAG1449    -0.2184
     11  O4         8.8190   20.5530    1.5920 O.3   1449  NAG1449    -0.2176
     12  O5         6.4000   22.2970    3.7940 O.3   1449  NAG1449    -0.3489
     13  O6         5.7130   22.3830    1.0410 O.3   1449  NAG1449    -0.2176
     14  O7         7.1440   17.7940    7.2030 O.2   1449  NAG1449    -0.2733
@<TRIPOS>BOND
     1    13     6    1
     2     6     5    1
     3    11     4    1
     4     4     5    1
     5     4     3    1
     6     5    12    1
     7    10     3    1
     8    12     1    1
     9     3     2    1
    10     2     1    1
    11     2     9    1
    12     9     7   am
    13     7    14    2
    14     7     8    1
