@<TRIPOS>MOLECULE
1h3w_BMA_M_1.pdb
 11 11 0 0 0
SMALL
GASTEIGER

@<TRIPOS>ATOM
      1  C1         5.3430   23.7240    7.7460 C.3   1448  BMA1448     0.1777
      2  C2         5.5790   23.4290    6.2490 C.3   1448  BMA1448     0.2141
      3  C3         4.3860   23.8710    5.3960 C.3   1448  BMA1448     0.2173
      4  C4         3.8100   25.1810    5.9430 C.3   1448  BMA1448     0.2142
      5  C5         4.8690   25.9180    6.7910 C.3   1448  BMA1448     0.1810
      6  C6         4.3710   27.2520    7.2940 C.3   1448  BMA1448     0.2141
      7  O2         5.8580   22.0390    6.0150 O.3   1448  BMA1448    -0.2176
      8  O3         3.3850   22.8600    5.3810 O.3   1448  BMA1448    -0.2175
      9  O4         3.4000   26.0060    4.8590 O.3   1448  BMA1448    -0.2176
     10  O5         5.2500   25.1350    7.9570 O.3   1448  BMA1448    -0.3481
     11  O6         3.9850   28.0900    6.2130 O.3   1448  BMA1448    -0.2176
@<TRIPOS>BOND
     1     9     4    1
     2     8     3    1
     3     3     4    1
     4     3     2    1
     5     4     5    1
     6     7     2    1
     7    11     6    1
     8     2     1    1
     9     5     6    1
    10     5    10    1
    11     1    10    1
