@<TRIPOS>MOLECULE
1h3x_BMA_A_1.pdb
 11 11 0 0 0
SMALL
GASTEIGER

@<TRIPOS>ATOM
      1  C1         4.0650    8.1050   58.2550 C.3   1448  BMA1448     0.1777
      2  C2         3.9820    6.6090   57.9980 C.3   1448  BMA1448     0.2141
      3  C3         4.9660    6.1840   56.9020 C.3   1448  BMA1448     0.2173
      4  C4         4.8000    7.0450   55.6530 C.3   1448  BMA1448     0.2142
      5  C5         4.7810    8.5380   56.0040 C.3   1448  BMA1448     0.1810
      6  C6         4.4180    9.3800   54.7960 C.3   1448  BMA1448     0.2141
      7  O2         2.6630    6.2870   57.5970 O.3   1448  BMA1448    -0.2176
      8  O3         4.7150    4.8130   56.5480 O.3   1448  BMA1448    -0.2175
      9  O4         5.8680    6.7780   54.7530 O.3   1448  BMA1448    -0.2176
     10  O5         3.7950    8.8130   57.0340 O.3   1448  BMA1448    -0.3481
     11  O6         4.3980   10.7680   55.1660 O.3   1448  BMA1448    -0.2176
@<TRIPOS>BOND
     1     9     4    1
     2     6    11    1
     3     6     5    1
     4     4     5    1
     5     4     3    1
     6     5    10    1
     7     8     3    1
     8     3     2    1
     9    10     1    1
    10     7     2    1
    11     2     1    1
