@<TRIPOS>MOLECULE
1h3x_FUL_B_1.pdb
 10 10 0 0 0
SMALL
GASTEIGER

@<TRIPOS>ATOM
      1  C1         8.6900  -10.0560   59.0310 C.3   1445  FUL1445     0.1776
      2  C2         8.7570  -11.5870   59.0920 C.3   1445  FUL1445     0.2141
      3  C3         9.9200  -12.0570   59.9680 C.3   1445  FUL1445     0.2172
      4  C4        11.2430  -11.3790   59.5870 C.3   1445  FUL1445     0.2116
      5  C5        11.1030   -9.8560   59.3680 C.3   1445  FUL1445     0.1483
      6  C6        11.0300   -9.0340   60.6470 C.3   1445  FUL1445     0.0349
      7  O2         8.9100  -12.1080   57.7780 O.3   1445  FUL1445    -0.2176
      8  O3         9.6320  -11.8260   61.3370 O.3   1445  FUL1445    -0.2175
      9  O4        12.2020  -11.6180   60.6090 O.3   1445  FUL1445    -0.2177
     10  O5         9.9360   -9.5360   58.5560 O.3   1445  FUL1445    -0.3508
@<TRIPOS>BOND
     1     7     2    1
     2    10     1    1
     3    10     5    1
     4     1     2    1
     5     2     3    1
     6     5     4    1
     7     5     6    1
     8     4     3    1
     9     4     9    1
    10     3     8    1
