@<TRIPOS>MOLECULE
1h3x_NAG_A_1.pdb
 14 14 0 0 0
SMALL
GASTEIGER

@<TRIPOS>ATOM
      1  C1         0.3730   14.0100   65.9870 C.3   1445  NAG1445     0.1665
      2  C2         0.0590   12.6110   65.4960 C.3   1445  NAG1445     0.1576
      3  C3         1.2370   12.1450   64.6430 C.3   1445  NAG1445     0.2069
      4  C4         1.3060   13.0690   63.4260 C.3   1445  NAG1445     0.2134
      5  C5         1.3990   14.5530   63.8420 C.3   1445  NAG1445     0.1809
      6  C6         1.0640   15.4320   62.6540 C.3   1445  NAG1445     0.2141
      7  C7         0.7390   11.2100   67.3450 C.2   1445  NAG1445     0.2420
      8  C8         0.8320   11.7140   68.7740 C.3   1445  NAG1445     0.0964
      9  N2        -0.2350   11.7110   66.5970 N.am  1445  NAG1445    -0.2019
     10  O3         1.0450   10.7980   64.2250 O.3   1445  NAG1445    -0.2184
     11  O4         2.4310   12.7250   62.5890 O.3   1445  NAG1445    -0.2176
     12  O5         0.4170   14.8950   64.8610 O.3   1445  NAG1445    -0.3489
     13  O6        -0.2820   15.1310   62.2230 O.3   1445  NAG1445    -0.2176
     14  O7         1.5410   10.3700   66.9290 O.2   1445  NAG1445    -0.2733
@<TRIPOS>BOND
     1    13     6    1
     2    11     4    1
     3     6     5    1
     4     4     5    1
     5     4     3    1
     6     5    12    1
     7    10     3    1
     8     3     2    1
     9    12     1    1
    10     2     1    1
    11     2     9    1
    12     9     7   am
    13    14     7    2
    14     7     8    1
