@<TRIPOS>MOLECULE
1h3y_FUL_A_1.pdb
 10 10 0 0 0
SMALL
GASTEIGER

@<TRIPOS>ATOM
      1  C1        65.8180   86.8640   55.1330 C.3   1445  FUL1445     0.1776
      2  C2        65.7860   85.4640   55.7420 C.3   1445  FUL1445     0.2141
      3  O2        66.7980   85.3430   56.7290 O.3   1445  FUL1445    -0.2176
      4  C3        64.4010   85.2080   56.3520 C.3   1445  FUL1445     0.2172
      5  O3        63.3960   85.4770   55.3710 O.3   1445  FUL1445    -0.2175
      6  C4        64.2000   86.1430   57.5520 C.3   1445  FUL1445     0.2116
      7  O4        62.8170   86.2300   57.8880 O.3   1445  FUL1445    -0.2177
      8  C5        64.7940   87.5430   57.2390 C.3   1445  FUL1445     0.1483
      9  C6        63.9850   88.7120   57.7690 C.3   1445  FUL1445     0.0349
     10  O5        64.9120   87.7410   55.8090 O.3   1445  FUL1445    -0.3508
@<TRIPOS>BOND
     1     1     2    1
     2     1    10    1
     3     5     4    1
     4     2     4    1
     5     2     3    1
     6    10     8    1
     7     4     6    1
     8     8     6    1
     9     8     9    1
    10     6     7    1
