@<TRIPOS>MOLECULE
1h3y_GLA_A_1.pdb
 11 11 0 0 0
SMALL
GASTEIGER

@<TRIPOS>ATOM
      1  C1        63.9670   71.3200   52.7610 C.3   1450  GLA1450     0.1777
      2  C2        64.9200   70.7310   53.8800 C.3   1450  GLA1450     0.2141
      3  C3        65.4990   69.3730   53.4130 C.3   1450  GLA1450     0.2173
      4  C4        64.3140   68.4420   53.0900 C.3   1450  GLA1450     0.2142
      5  C5        63.4920   69.0490   51.9330 C.3   1450  GLA1450     0.1810
      6  C6        62.2710   68.1650   51.6330 C.3   1450  GLA1450     0.2141
      7  O2        65.9620   71.6460   54.2710 O.3   1450  GLA1450    -0.2176
      8  O3        66.3100   68.7930   54.4210 O.3   1450  GLA1450    -0.2175
      9  O4        63.4440   68.2840   54.2210 O.3   1450  GLA1450    -0.2176
     10  O5        62.9560   70.3570   52.3290 O.3   1450  GLA1450    -0.3481
     11  O6        62.5960   66.7860   51.5200 O.3   1450  GLA1450    -0.2176
@<TRIPOS>BOND
     1    11     6    1
     2     6     5    1
     3     5    10    1
     4     5     4    1
     5    10     1    1
     6     1     2    1
     7     4     3    1
     8     4     9    1
     9     3     2    1
    10     3     8    1
    11     2     7    1
