@<TRIPOS>MOLECULE
1h41_GCV_A_1.pdb
 14 14 0 0 0
SMALL
GASTEIGER

@<TRIPOS>ATOM
      1  C7         5.6720  -11.7450    7.2350 C.3   1713  GCV1713     0.1742
      2  C1         9.2200  -12.8240    3.4720 C.3   1713  GCV1713     0.3028
      3  C2         9.7450  -12.1680    4.7730 C.3   1713  GCV1713     0.2434
      4  C3         8.7770  -12.4050    5.9330 C.3   1713  GCV1713     0.2172
      5  C4         7.3120  -12.2110    5.5800 C.3   1713  GCV1713     0.1864
      6  C5         6.9910  -12.9960    4.3190 C.3   1713  GCV1713     0.2497
      7  C6         5.5580  -12.7890    3.8810 C.2   1713  GCV1713     0.3940
      8  O1         9.3940  -14.2470    3.5610 O.3   1713  GCV1713    -0.1869
      9  O2        11.0000  -12.7990    5.1420 O.3   1713  GCV1713    -0.2148
     10  O3         9.1580  -11.5120    7.0150 O.3   1713  GCV1713    -0.2175
     11  O4         6.5170  -12.7120    6.6560 O.3   1713  GCV1713    -0.3478
     12  O5         7.8420  -12.5630    3.2600 O.3   1713  GCV1713    -0.3149
     13  O6A        4.6910  -13.4370    4.4260 O.co2 1713  GCV1713    -0.2429
     14  O6B        5.3020  -11.9840    2.9500 O.co2 1713  GCV1713    -0.2429
@<TRIPOS>BOND
     1    14     7   ar
     2    12     2    1
     3    12     6    1
     4     2     8    1
     5     2     3    1
     6     7     6    1
     7     7    13   ar
     8     6     5    1
     9     3     9    1
    10     3     4    1
    11     5     4    1
    12     5    11    1
    13     4    10    1
    14    11     1    1
