@<TRIPOS>MOLECULE
1h46_RNP_X_1.pdb
 19 20 0 0 0
SMALL
GASTEIGER

@<TRIPOS>ATOM
      1  C1         3.9310    9.0750   25.8320 C.ar  1433  RNP1433     0.1386
      2  C2         4.0120    9.7700   24.6360 C.ar  1433  RNP1433     0.0369
      3  C3         3.4940   11.0710   24.5410 C.ar  1433  RNP1433     0.0031
      4  C4         2.8940   11.7180   25.6300 C.ar  1433  RNP1433     0.0002
      5  C5         2.2160   11.6720   27.9920 C.ar  1433  RNP1433     0.0001
      6  C6         2.1610   10.9560   29.1890 C.ar  1433  RNP1433     0.0000
      7  C7         2.6580    9.6600   29.3120 C.ar  1433  RNP1433     0.0001
      8  C8         3.2460    9.0320   28.2190 C.ar  1433  RNP1433     0.0030
      9  C9         3.3220    9.7170   27.0170 C.ar  1433  RNP1433     0.0340
     10  C10        2.7870   11.0870   26.8670 C.ar  1433  RNP1433     0.0029
     11  O1         4.4140    7.8060   25.9980 O.3   1433  RNP1433    -0.4727
     12  C11        5.1050    7.1650   24.8980 C.3   1433  RNP1433     0.2395
     13  C12        5.7800    5.8750   25.3090 C.3   1433  RNP1433     0.2126
     14  O2         6.3770    6.0290   26.6000 O.3   1433  RNP1433    -0.2176
     15  C13        6.8660    5.5380   24.3220 C.3   1433  RNP1433     0.1253
     16  N1         7.2460    4.2580   24.2600 N.3   1433  RNP1433    -0.2167
     17  C14        7.1920    3.3470   25.4010 C.3   1433  RNP1433     0.0730
     18  C15        6.8380    1.9490   24.8980 C.3   1433  RNP1433     0.0188
     19  C16        8.5500    3.2940   26.0960 C.3   1433  RNP1433     0.0188
@<TRIPOS>BOND
     1    16    15    1
     2    16    17    1
     3    15    13    1
     4     3     2   ar
     5     3     4   ar
     6     2     1   ar
     7    18    17    1
     8    12    13    1
     9    12    11    1
    10    13    14    1
    11    17    19    1
    12     4    10   ar
    13     1    11    1
    14     1     9   ar
    15    10     9   ar
    16    10     5   ar
    17     9     8   ar
    18     5     6   ar
    19     8     7   ar
    20     6     7   ar
