@<TRIPOS>MOLECULE
1h47_GPP_A_1.pdb
 19 18 0 0 0
SMALL
GASTEIGER

@<TRIPOS>ATOM
      1  C1        16.5600   13.4400   13.5420 C.3   1157  GPP1157     0.1747
      2  O1        17.1180   14.6480   14.0940 O.3   1157  GPP1157    -0.3089
      3  C2        16.9730   12.1490   14.2100 C.2   1157  GPP1157    -0.0024
      4  C3        16.7970   10.9210   13.6710 C.2   1157  GPP1157    -0.0454
      5  C4        16.1710   10.6930   12.3120 C.3   1157  GPP1157     0.0261
      6  C5        17.2760    9.7670   14.5380 C.3   1157  GPP1157     0.0264
      7  C6        16.9110    8.3700   14.0360 C.3   1157  GPP1157     0.0297
      8  C7        18.0810    7.7640   13.2880 C.2   1157  GPP1157    -0.0342
      9  C8        18.9930    6.9230   13.8280 C.2   1157  GPP1157    -0.0478
     10  C9        18.9960    6.4450   15.2610 C.3   1157  GPP1157     0.0260
     11  C10       20.0930    6.4170   12.9420 C.3   1157  GPP1157     0.0260
     12  PA        18.5090   14.8490   14.9050 P.3   1157  GPP1157     0.2233
     13  O1A       18.7150   13.7110   16.0020 O.3   1157  GPP1157    -0.4370
     14  O2A       19.7690   14.8890   13.9320 O.2   1157  GPP1157    -0.5169
     15  O3A       18.3020   16.2740   15.6450 O.3   1157  GPP1157    -0.2261
     16  PB        18.5020   17.7540   15.0120 P.3   1157  GPP1157     0.5373
     17  O1B       18.5110   17.8290   13.4360 O.2   1157  GPP1157    -0.2221
     18  O2B       17.2810   18.6050   15.5140 O.3   1157  GPP1157    -0.1143
     19  O3B       19.8640   18.3200   15.5800 O.3   1157  GPP1157    -0.1143
@<TRIPOS>BOND
     1     5     4    1
     2    11     9    1
     3     8     9    2
     4     8     7    1
     5    17    16    2
     6     1     2    1
     7     1     3    1
     8     4     3    2
     9     4     6    1
    10     9    10    1
    11    14    12    2
    12     7     6    1
    13     2    12    1
    14    12    15    1
    15    12    13    1
    16    16    18    1
    17    16    19    1
    18    16    15    1
