@<TRIPOS>MOLECULE
1h47_C5P_A_1.pdb
 21 22 0 0 0
SMALL
GASTEIGER

@<TRIPOS>ATOM
      1  O3P        4.7070    8.5310   14.8600 O.2   1159  C5P1159    -0.2224
      2  P          3.2750    7.9880   15.2180 P.3   1159  C5P1159     0.5327
      3  O1P        3.3090    7.1980   16.5840 O.3   1159  C5P1159    -0.1145
      4  O2P        2.2030    9.1570   15.2130 O.3   1159  C5P1159    -0.1145
      5  O5'        2.8130    6.9540   14.1370 O.3   1159  C5P1159    -0.2675
      6  C5'        1.5120    6.4730   14.3770 C.3   1159  C5P1159     0.1859
      7  C4'        1.0900    5.6350   13.2160 C.3   1159  C5P1159     0.1801
      8  O4'        0.8140    6.3120   11.9890 O.3   1159  C5P1159    -0.3320
      9  C3'        2.0530    4.4850   12.9500 C.3   1159  C5P1159     0.2158
     10  O3'        1.8060    3.3120   13.7430 O.3   1159  C5P1159    -0.2175
     11  C2'        2.0390    4.3930   11.4380 C.3   1159  C5P1159     0.2319
     12  O2'        1.1890    3.2790   11.2720 O.3   1159  C5P1159    -0.2157
     13  C1'        1.3410    5.6060   10.8420 C.3   1159  C5P1159     0.2400
     14  N1         2.2060    6.5500   10.0690 N.am  1159  C5P1159    -0.1778
     15  C2         2.0490    6.7830    8.6840 C.1   1159  C5P1159     0.2756
     16  N3         2.8140    7.6780    8.0430 N.2   1159  C5P1159    -0.3024
     17  C4         3.7690    8.3540    8.7080 C.2   1159  C5P1159     0.2346
     18  C5         3.9460    8.1550   10.0560 C.2   1159  C5P1159     0.0687
     19  C6         3.1450    7.2530   10.7240 C.2   1159  C5P1159     0.0836
     20  O2         1.1800    6.1680    8.0190 O.2   1159  C5P1159    -0.1925
     21  N4         4.5420    9.2460    8.0620 N.pl3 1159  C5P1159    -0.0921
@<TRIPOS>BOND
     1    20    15    2
     2    16    15    2
     3    16    17    2
     4    21    17    1
     5    15    14   am
     6    17    18    1
     7    18    19    2
     8    14    19    1
     9    14    13    1
    10    13    11    1
    11    13     8    1
    12    12    11    1
    13    11     9    1
    14     8     7    1
    15     9     7    1
    16     9    10    1
    17     7     6    1
    18     5     6    1
    19     5     2    1
    20     1     2    2
    21     4     2    1
    22     2     3    1
