@<TRIPOS>MOLECULE
1h48_C5P_A_1.pdb
 21 22 0 0 0
SMALL
GASTEIGER

@<TRIPOS>ATOM
      1  O3P       58.6590  -10.0380   44.6990 O.3   901  C5P901     -0.1145
      2  P         59.3080   -8.6070   44.4850 P.3   901  C5P901      0.5327
      3  O1P       60.5140   -8.7540   43.4520 O.2   901  C5P901     -0.2224
      4  O2P       59.8290   -8.0490   45.8930 O.3   901  C5P901     -0.1145
      5  O5'       58.1970   -7.5880   43.8900 O.3   901  C5P901     -0.2675
      6  C5'       58.5050   -6.2040   43.6780 C.3   901  C5P901      0.1859
      7  C4'       57.5180   -5.2960   44.4100 C.3   901  C5P901      0.1801
      8  O4'       56.2320   -5.3280   43.7700 O.3   901  C5P901     -0.3320
      9  C3'       57.3040   -5.7350   45.8530 C.3   901  C5P901      0.2158
     10  O3'       58.1560   -5.0520   46.7630 O.3   901  C5P901     -0.2175
     11  C2'       55.8260   -5.4820   46.1120 C.3   901  C5P901      0.2319
     12  O2'       55.6290   -4.2680   46.8120 O.3   901  C5P901     -0.2157
     13  C1'       55.1770   -5.4260   44.7330 C.3   901  C5P901      0.2400
     14  N1        54.3320   -6.6150   44.4980 N.am  901  C5P901     -0.1778
     15  C2        52.9720   -6.4590   44.0810 C.1   901  C5P901      0.2756
     16  N3        52.1980   -7.5460   43.8740 N.2   901  C5P901     -0.3024
     17  C4        52.6870   -8.7890   44.0590 C.2   901  C5P901      0.2346
     18  C5        54.0080   -8.9780   44.4710 C.2   901  C5P901      0.0687
     19  C6        54.8220   -7.8650   44.6820 C.2   901  C5P901      0.0836
     20  O2        52.4540   -5.3380   43.8910 O.2   901  C5P901     -0.1925
     21  N4        51.8680   -9.8330   43.8330 N.pl3 901  C5P901     -0.0921
@<TRIPOS>BOND
     1     3     2    2
     2     6     5    1
     3     6     7    1
     4     8     7    1
     5     8    13    1
     6    21    17    1
     7    16    17    2
     8    16    15    2
     9     5     2    1
    10    20    15    2
    11    17    18    1
    12    15    14   am
    13     7     9    1
    14    18    19    2
    15     2     1    1
    16     2     4    1
    17    14    19    1
    18    14    13    1
    19    13    11    1
    20     9    11    1
    21     9    10    1
    22    11    12    1
