@<TRIPOS>MOLECULE
1h48_CDI_A_1.pdb
 16 16 0 0 0
SMALL
GASTEIGER

@<TRIPOS>ATOM
      1  C4        65.1830   -3.1900   44.7440 C.3   421  CDI421      0.2120
      2  C3        64.6360   -4.6120   44.9370 C.3   421  CDI421      0.1597
      3  OB4       65.2900   -5.4180   43.9300 O.3   421  CDI421     -0.3135
      4  PB        65.4100   -7.0340   43.7260 P.3   421  CDI421      0.2188
      5  OB2       64.5500   -7.4250   42.5380 O.2   421  CDI421     -0.5170
      6  OB3       66.8980   -7.2790   43.5800 O.3   421  CDI421     -0.4371
      7  PA        63.2740   -8.1920   45.4170 P.3   421  CDI421      0.2189
      8  OA3       62.4190   -7.0010   44.7200 O.3   421  CDI421     -0.3111
      9  OA1       62.9640   -9.5170   44.7400 O.2   421  CDI421     -0.5170
     10  OA2       63.0160   -8.0930   46.9140 O.3   421  CDI421     -0.4371
     11  C1        62.2900   -5.7310   45.3760 C.3   421  CDI421      0.1844
     12  C2        63.1020   -4.6160   44.6970 C.3   421  CDI421      0.2093
     13  O1        62.5170   -3.3780   45.0960 O.3   421  CDI421     -0.2178
     14  C5        65.0050   -4.9940   46.3680 C.3   421  CDI421      0.0355
     15  O2        65.5480   -2.9140   43.3940 O.3   421  CDI421     -0.2177
     16  OB1       64.8290   -7.7560   45.0830 O.3   421  CDI421     -0.2703
@<TRIPOS>BOND
     1     5     4    2
     2    15     1    1
     3     6     4    1
     4     4     3    1
     5     4    16    1
     6     3     2    1
     7    12     2    1
     8    12    13    1
     9    12    11    1
    10     8    11    1
    11     8     7    1
    12     9     7    2
    13     1     2    1
    14     2    14    1
    15    16     7    1
    16     7    10    1
