@<TRIPOS>MOLECULE
1h49_BGC_A_1.pdb
 11 11 0 0 0
SMALL
GASTEIGER

@<TRIPOS>ATOM
      1  C2        22.2970  112.7220   78.9290 C.3   1503  BGC1503     0.2141
      2  C3        22.0100  114.1810   79.2140 C.3   1503  BGC1503     0.2173
      3  C4        22.6660  114.5320   80.5240 C.3   1503  BGC1503     0.2142
      4  C5        24.1340  114.3840   80.2800 C.3   1503  BGC1503     0.1810
      5  C6        24.7900  114.8740   81.5280 C.3   1503  BGC1503     0.2141
      6  C1        23.7830  112.3890   78.9140 C.3   1503  BGC1503     0.1777
      7  O2        21.6940  112.3670   77.7150 O.3   1503  BGC1503    -0.2176
      8  O3        20.6440  114.3380   79.3820 O.3   1503  BGC1503    -0.2175
      9  O4        22.4820  115.8520   81.0020 O.3   1503  BGC1503    -0.2176
     10  O5        24.4530  113.0160   80.0190 O.3   1503  BGC1503    -0.3481
     11  O6        25.8730  114.0010   81.7960 O.3   1503  BGC1503    -0.2176
@<TRIPOS>BOND
     1     7     1    1
     2     6     1    1
     3     6    10    1
     4     1     2    1
     5     2     8    1
     6     2     3    1
     7    10     4    1
     8     4     3    1
     9     4     5    1
    10     3     9    1
    11     5    11    1
