@<TRIPOS>MOLECULE
1h49_HBO_A_1.pdb
 15 16 0 0 0
SMALL
GASTEIGER

@<TRIPOS>ATOM
      1  O1A       23.8250  110.9990   79.1290 O.3   1502  HBO1502    -0.1671
      2  C3B       24.3030  109.4750   77.1390 C.2   1502  HBO1502     0.1460
      3  N3B       24.6410  108.1950   77.0360 N.am  1502  HBO1502    -0.2544
      4  C4B       26.0150  108.0370   77.3070 C.ar  1502  HBO1502     0.0919
      5  C1B       26.7440  109.2530   77.8160 C.ar  1502  HBO1502     0.1587
      6  O1B       26.0330  110.4470   78.0240 O.3   1502  HBO1502    -0.4449
      7  C2B       24.7300  110.0710   78.4650 C.3   1502  HBO1502     0.3632
      8  C5B       26.6920  106.8390   77.1290 C.ar  1502  HBO1502     0.0215
      9  C6B       28.0500  106.7560   77.4310 C.ar  1502  HBO1502     0.0384
     10  C8B       28.0920  109.1070   78.1180 C.ar  1502  HBO1502     0.0752
     11  O3B       23.9080  110.1550   76.1980 O.2   1502  HBO1502    -0.5358
     12  OHB       23.7370  107.1590   76.7150 O.3   1502  HBO1502    -0.4156
     13  C7B       28.7380  107.8750   77.9130 C.ar  1502  HBO1502     0.1418
     14  O7B       30.0760  107.7420   78.1990 O.3   1502  HBO1502    -0.4713
     15  C9B       30.4620  106.9810   79.3460 C.3   1502  HBO1502     0.2525
@<TRIPOS>BOND
     1    11     2    2
     2    12     3    1
     3     3     2   am
     4     3     4    1
     5     8     4   ar
     6     8     9   ar
     7     2     7    1
     8     4     5   ar
     9     9    13   ar
    10     5     6    1
    11     5    10   ar
    12    13    10   ar
    13    13    14    1
    14     6     7    1
    15    14    15    1
    16     7     1    1
