@<TRIPOS>MOLECULE
1h4g_FXP_A_1.pdb
 18 19 0 0 0
SMALL
GASTEIGER

@<TRIPOS>ATOM
      1  C1A       -2.7720   25.0900   16.5730 C.3   1207  FXP1207     0.1801
      2  C2A       -3.5610   26.2290   17.1670 C.3   1207  FXP1207     0.2229
      3  C3A       -2.7240   27.0830   18.0960 C.3   1207  FXP1207     0.2163
      4  C4A       -1.9890   26.1850   19.1210 C.3   1207  FXP1207     0.1803
      5  C5A       -2.3480   24.7010   18.9160 C.3   1207  FXP1207     0.1744
      6  F2A       -4.0320   27.0470   16.1310 F     1207  FXP1207    -0.2317
      7  O3A       -3.6270   27.9900   18.7450 O.3   1207  FXP1207    -0.2174
      8  O4A       -0.5690   26.3340   18.9270 O.3   1207  FXP1207    -0.3257
      9  O5A       -2.1690   24.2960   17.5520 O.3   1207  FXP1207    -0.3481
     10  C1B        0.1970   26.4150   20.1040 C.3   1207  FXP1207     0.2695
     11  C2B        1.5750   25.9190   19.7820 C.3   1207  FXP1207     0.2406
     12  C3B        2.5130   26.1460   20.9900 C.3   1207  FXP1207     0.2198
     13  C4B        2.4230   27.6080   21.4200 C.3   1207  FXP1207     0.2143
     14  C5B        0.9320   27.9620   21.7070 C.3   1207  FXP1207     0.1803
     15  O2B        1.5380   24.5190   19.5220 O.3   1207  FXP1207    -0.2149
     16  O3B        3.8320   25.8120   20.5890 O.3   1207  FXP1207    -0.2174
     17  O4B        3.1380   27.7830   22.6330 O.3   1207  FXP1207    -0.2176
     18  O5B        0.2130   27.7750   20.4990 O.3   1207  FXP1207    -0.3257
@<TRIPOS>BOND
     1     6     2    1
     2     1     2    1
     3     1     9    1
     4     2     3    1
     5     9     5    1
     6     3     7    1
     7     3     4    1
     8     5     4    1
     9     8     4    1
    10     8    10    1
    11    15    11    1
    12    11    10    1
    13    11    12    1
    14    10    18    1
    15    18    14    1
    16    16    12    1
    17    12    13    1
    18    13    14    1
    19    13    17    1
