@<TRIPOS>MOLECULE
1h4h_XYS_A_1.pdb
 10 10 0 0 0
SMALL
GASTEIGER

@<TRIPOS>ATOM
      1  C1         6.7690   -4.3520   30.1490 C.3   1210  XYS1210     0.3024
      2  C2         7.8460   -4.6960   29.1340 C.3   1210  XYS1210     0.2434
      3  C3         7.0280   -5.0640   27.8580 C.3   1210  XYS1210     0.2199
      4  C4         6.2470   -6.3510   28.1980 C.3   1210  XYS1210     0.2143
      5  C5         6.7820   -6.7020   29.6310 C.3   1210  XYS1210     0.1804
      6  O1         5.9080   -3.5630   29.3420 O.3   1210  XYS1210    -0.1869
      7  O2         8.5780   -3.5000   28.9600 O.3   1210  XYS1210    -0.2148
      8  O3         8.0860   -5.5830   27.0910 O.3   1210  XYS1210    -0.2174
      9  O4         4.8560   -6.2360   28.2720 O.3   1210  XYS1210    -0.2176
     10  O5         6.3830   -5.6820   30.5120 O.3   1210  XYS1210    -0.3237
@<TRIPOS>BOND
     1     8     3    1
     2     3     4    1
     3     3     2    1
     4     4     9    1
     5     4     5    1
     6     7     2    1
     7     2     1    1
     8     6     1    1
     9     5    10    1
    10     1    10    1
