@<TRIPOS>MOLECULE
1h4i_PQQ_A_1.pdb
 24 26 0 0 0
SMALL
GASTEIGER

@<TRIPOS>ATOM
      1  N1        52.5930  -21.2250   57.7230 N.2   601  PQQ601     -0.3986
      2  C2        52.0510  -20.6070   58.8220 C.2   601  PQQ601      0.2104
      3  C2X       51.1750  -21.2780   59.7610 C.2   601  PQQ601      0.4168
      4  O2A       50.8590  -22.4970   59.3840 O.co2 601  PQQ601     -0.2377
      5  O2B       50.7150  -20.7070   60.7240 O.co2 601  PQQ601     -0.2377
      6  C3        52.5670  -19.3620   58.8750 C.2   601  PQQ601      0.0444
      7  C3A       53.4710  -19.2420   57.8070 C.2   601  PQQ601      0.0711
      8  C1A       53.4770  -20.4210   57.0890 C.2   601  PQQ601      0.1232
      9  C4        54.2580  -18.1330   57.3710 C.2   601  PQQ601      0.2387
     10  O4        53.8050  -17.0920   57.4920 O.2   601  PQQ601     -0.2830
     11  C5        55.0930  -18.2370   56.2100 C.2   601  PQQ601      0.2601
     12  O5        55.7520  -17.2320   55.9200 O.2   601  PQQ601     -0.2807
     13  C6A       55.0790  -19.5770   55.4760 C.2   601  PQQ601      0.1617
     14  N6        55.8560  -19.5920   54.4070 N.2   601  PQQ601     -0.3954
     15  C7        55.9250  -20.7170   53.6810 C.2   601  PQQ601      0.2103
     16  C7X       56.8590  -20.6590   52.5090 C.2   601  PQQ601      0.4168
     17  O7A       56.7380  -21.6650   51.6870 O.co2 601  PQQ601     -0.2377
     18  O7B       57.4950  -19.6970   52.1800 O.co2 601  PQQ601     -0.2377
     19  C8        55.2080  -21.8530   54.0080 C.2   601  PQQ601      0.0420
     20  C9        54.3630  -21.8440   55.1070 C.2   601  PQQ601      0.0734
     21  C9X       53.5780  -23.1120   55.3650 C.2   601  PQQ601      0.3847
     22  O9A       53.7800  -24.0510   54.6290 O.co2 601  PQQ601     -0.2409
     23  O9B       52.9070  -23.3380   56.2890 O.co2 601  PQQ601     -0.2409
     24  C9A       54.2660  -20.6700   55.8920 C.3   601  PQQ601      0.1366
@<TRIPOS>BOND
     1    17    16   ar
     2    18    16   ar
     3    16    15    1
     4    15    19    1
     5    15    14    2
     6    19    20    2
     7    14    13    2
     8    22    21   ar
     9    20    21    1
    10    20    24    1
    11    21    23   ar
    12    13    24    1
    13    13    11    1
    14    24     8    1
    15    12    11    2
    16    11     9    1
    17     8     1    2
    18     8     7    1
    19     9    10    2
    20     9     7    1
    21     1     2    2
    22     7     6    2
    23     2     6    1
    24     2     3    1
    25     4     3   ar
    26     3     5   ar
