@<TRIPOS>MOLECULE
1h4j_PQQ_A_1.pdb
 24 26 0 0 0
SMALL
GASTEIGER

@<TRIPOS>ATOM
      1  N1         3.2650   30.1440   62.0240 N.2   601  PQQ601     -0.3986
      2  C2         4.0480   31.2750   62.2140 C.2   601  PQQ601      0.2104
      3  C2X        4.1990   31.9610   63.5000 C.2   601  PQQ601      0.4168
      4  O2A        3.5100   31.4050   64.4510 O.co2 601  PQQ601     -0.2377
      5  O2B        4.8990   32.9420   63.6450 O.co2 601  PQQ601     -0.2377
      6  C3         4.6060   31.5790   61.0210 C.2   601  PQQ601      0.0444
      7  C3A        4.1630   30.6290   60.0800 C.2   601  PQQ601      0.0711
      8  C1A        3.3070   29.7190   60.7410 C.2   601  PQQ601      0.1232
      9  C4         4.4540   30.4890   58.6250 C.2   601  PQQ601      0.2387
     10  O4         4.5240   31.4690   57.9950 O.2   601  PQQ601     -0.2830
     11  C5         3.8640   29.3930   57.8350 C.2   601  PQQ601      0.2601
     12  O5         4.1590   29.3390   56.6090 O.2   601  PQQ601     -0.2807
     13  C6A        2.9270   28.4240   58.6210 C.2   601  PQQ601      0.1617
     14  N6         2.4020   27.4490   57.8450 N.2   601  PQQ601     -0.3954
     15  C7         1.5390   26.5020   58.3890 C.2   601  PQQ601      0.2103
     16  C7X        1.0090   25.4790   57.4020 C.2   601  PQQ601      0.4168
     17  O7A        0.0050   24.7570   57.8510 O.co2 601  PQQ601     -0.2377
     18  O7B        1.2950   25.4470   56.2250 O.co2 601  PQQ601     -0.2377
     19  C8         1.1750   26.5170   59.7660 C.2   601  PQQ601      0.0420
     20  C9         1.7130   27.5390   60.6400 C.2   601  PQQ601      0.0734
     21  C9X        1.2750   27.4530   62.0860 C.2   601  PQQ601      0.3847
     22  O9A        0.4780   26.5920   62.3760 O.co2 601  PQQ601     -0.2409
     23  O9B        1.5920   28.1790   62.9470 O.co2 601  PQQ601     -0.2409
     24  C9A        2.6370   28.5620   60.0870 C.3   601  PQQ601      0.1366
@<TRIPOS>BOND
     1    18    16   ar
     2    12    11    2
     3    16    17   ar
     4    16    15    1
     5    11    13    1
     6    11     9    1
     7    14    15    2
     8    14    13    2
     9    10     9    2
    10    15    19    1
    11    13    24    1
    12     9     7    1
    13    19    20    2
    14     7     8    1
    15     7     6    2
    16    24    20    1
    17    24     8    1
    18    20    21    1
    19     8     1    2
    20     6     2    1
    21     1     2    2
    22    21    22   ar
    23    21    23   ar
    24     2     3    1
    25     3     5   ar
    26     3     4   ar
