@<TRIPOS>MOLECULE
1h4p_MAN_A_1.pdb
 11 11 0 0 0
SMALL
GASTEIGER

@<TRIPOS>ATOM
      1  C1        74.0720    5.2520  -61.3260 C.3   1465  MAN1465     0.1777
      2  C2        72.6650    4.9880  -61.8780 C.3   1465  MAN1465     0.2141
      3  C3        72.1020    6.2640  -62.5150 C.3   1465  MAN1465     0.2173
      4  C4        72.1670    7.4300  -61.5160 C.3   1465  MAN1465     0.2142
      5  C5        73.5900    7.5780  -60.9620 C.3   1465  MAN1465     0.1810
      6  C6        73.6690    8.6310  -59.8720 C.3   1465  MAN1465     0.2141
      7  O2        71.8130    4.5580  -60.8250 O.3   1465  MAN1465    -0.2176
      8  O3        70.7410    6.0430  -62.9680 O.3   1465  MAN1465    -0.2175
      9  O4        71.7750    8.6340  -62.1580 O.3   1465  MAN1465    -0.2176
     10  O5        74.0300    6.3310  -60.3780 O.3   1465  MAN1465    -0.3481
     11  O6        75.0000    9.1900  -59.8170 O.3   1465  MAN1465    -0.2176
@<TRIPOS>BOND
     1     8     3    1
     2     3     2    1
     3     3     4    1
     4     9     4    1
     5     2     1    1
     6     2     7    1
     7     4     5    1
     8     1    10    1
     9     5    10    1
    10     5     6    1
    11     6    11    1
