@<TRIPOS>MOLECULE
1h4p_NAG_A_1.pdb
 14 14 0 0 0
SMALL
GASTEIGER

@<TRIPOS>ATOM
      1  C1        82.2470   -1.6540 -104.4660 C.3   1453  NAG1453     0.1665
      2  C2        81.9230   -2.7330 -105.4820 C.3   1453  NAG1453     0.1576
      3  C3        80.8510   -2.2100 -106.4390 C.3   1453  NAG1453     0.2069
      4  C4        79.6300   -1.6410 -105.6780 C.3   1453  NAG1453     0.2134
      5  C5        80.0620   -0.7150 -104.5170 C.3   1453  NAG1453     0.1809
      6  C6        78.9150   -0.3430 -103.5940 C.3   1453  NAG1453     0.2141
      7  C7        83.8580   -4.1250 -105.8290 C.2   1453  NAG1453     0.2420
      8  C8        85.3590   -4.0230 -106.0470 C.3   1453  NAG1453     0.0964
      9  N2        83.1170   -3.0940 -106.2240 N.am  1453  NAG1453    -0.2019
     10  O3        80.4380   -3.2710 -107.2870 O.3   1453  NAG1453    -0.2184
     11  O4        78.7950   -0.8830 -106.5860 O.3   1453  NAG1453    -0.2176
     12  O5        81.0770   -1.3450 -103.7030 O.3   1453  NAG1453    -0.3489
     13  O6        78.0540   -1.4490 -103.3710 O.3   1453  NAG1453    -0.2176
     14  O7        83.3790   -5.1300 -105.3010 O.2   1453  NAG1453    -0.2733
@<TRIPOS>BOND
     1    10     3    1
     2    11     4    1
     3     3     4    1
     4     3     2    1
     5     9     7   am
     6     9     2    1
     7     8     7    1
     8     7    14    2
     9     4     5    1
    10     2     1    1
    11     5    12    1
    12     5     6    1
    13     1    12    1
    14     6    13    1
