@<TRIPOS>MOLECULE
1h4q_ATP_A_1.pdb
 31 33 0 0 0
SMALL
GASTEIGER

@<TRIPOS>ATOM
      1  PG        25.0570  112.8290  106.6030 P.3   1478  ATP1478     0.5373
      2  O1G       23.9370  113.0540  107.5930 O.3   1478  ATP1478    -0.1143
      3  O2G       26.2550  112.0500  107.1020 O.3   1478  ATP1478    -0.1143
      4  O3G       25.3500  113.9680  105.6550 O.2   1478  ATP1478    -0.2221
      5  PB        23.6800  110.3130  105.7970 P.3   1478  ATP1478     0.2277
      6  O1B       22.2510  110.5560  106.2350 O.2   1478  ATP1478    -0.5168
      7  O2B       24.5850  109.4400  106.6370 O.3   1478  ATP1478    -0.4368
      8  O3B       24.3850  111.7550  105.5970 O.3   1478  ATP1478    -0.2258
      9  PA        23.3570  108.3380  103.5590 P.3   1478  ATP1478     0.2189
     10  O1A       22.1150  107.7000  104.1260 O.3   1478  ATP1478    -0.4371
     11  O2A       24.6270  107.5310  103.4360 O.2   1478  ATP1478    -0.5170
     12  O3A       23.6710  109.7480  104.2810 O.3   1478  ATP1478    -0.2700
     13  O5'       22.9930  108.9310  102.1300 O.3   1478  ATP1478    -0.3112
     14  C5'       23.8400  108.7170  101.0050 C.3   1478  ATP1478     0.1813
     15  C4'       24.0870  110.0200  100.2770 C.3   1478  ATP1478     0.1821
     16  O4'       22.8230  110.7210  100.1450 O.3   1478  ATP1478    -0.3135
     17  C3'       24.9830  111.0240  100.9830 C.3   1478  ATP1478     0.2184
     18  O3'       26.3480  110.7500  100.6880 O.3   1478  ATP1478    -0.2174
     19  C2'       24.5540  112.3400  100.3470 C.3   1478  ATP1478     0.2570
     20  O2'       25.1680  112.5150   99.0800 O.3   1478  ATP1478    -0.2130
     21  C1'       23.0500  112.1190  100.1680 C.3   1478  ATP1478     0.3186
     22  N9        22.1610  112.7160  101.1780 N.pl3 1478  ATP1478    -0.1439
     23  C8        21.9300  112.2890  102.4580 C.3   1478  ATP1478     0.3377
     24  N7        21.0330  113.0070  103.1020 N.2   1478  ATP1478    -0.2095
     25  C5        20.6620  113.9790  102.1820 C.2   1478  ATP1478     0.2526
     26  C6        19.7350  115.0540  102.2480 C.2   1478  ATP1478     0.4393
     27  N6        18.9790  115.3280  103.3120 N.pl3 1478  ATP1478     0.2180
     28  N1        19.6130  115.8410  101.1600 N.2   1478  ATP1478     0.0021
     29  C2        20.3580  115.5670  100.0890 C.3   1478  ATP1478     0.5254
     30  N3        21.2500  114.5940   99.9030 N.2   1478  ATP1478    -0.0055
     31  C4        21.3560  113.8260  100.9970 C.2   1478  ATP1478     0.3518
@<TRIPOS>BOND
     1    20    19    1
     2    30    29    1
     3    30    31    2
     4    29    28    1
     5    16    21    1
     6    16    15    1
     7    21    19    1
     8    21    22    1
     9    15    17    1
    10    15    14    1
    11    19    17    1
    12    18    17    1
    13    31    22    1
    14    31    25    1
    15    14    13    1
    16    28    26    2
    17    22    23    1
    18    13     9    1
    19    25    26    1
    20    25    24    2
    21    26    27    1
    22    23    24    1
    23    11     9    2
    24     9    10    1
    25     9    12    1
    26    12     5    1
    27     8     5    1
    28     8     1    1
    29     4     1    2
    30     5     6    2
    31     5     7    1
    32     1     3    1
    33     1     2    1
