@<TRIPOS>MOLECULE
1h4s_PSD_A_1.pdb
 30 33 0 0 0
SMALL
GASTEIGER

@<TRIPOS>ATOM
      1  CB        23.4630  103.7450  100.6730 C.3   1478  PSD1478     0.0282
      2  CG        22.7810  104.0410   99.3470 C.3   1478  PSD1478     0.0208
      3  C         22.1780  105.3170  102.1540 C.2   1478  PSD1478     0.2660
      4  O         21.0690  105.8350  102.3280 O.2   1478  PSD1478    -0.2714
      5  N         21.0820  103.4940  100.8920 N.3   1478  PSD1478    -0.2102
      6  CD        21.3840  103.3810   99.4530 C.3   1478  PSD1478     0.0893
      7  CA        22.2990  103.8820  101.6390 C.3   1478  PSD1478     0.1509
      8  N10       23.3190  105.9560  102.3920 N.am  1478  PSD1478    -0.1059
      9  P         23.3720  107.5060  102.9570 P.3   1478  PSD1478     0.4763
     10  O1P       22.3700  107.5560  104.0480 O.3   1478  PSD1478    -0.1226
     11  O2P       24.8080  107.7090  103.2740 O.2   1478  PSD1478    -0.2321
     12  O5'       22.9460  108.6230  101.9000 O.3   1478  PSD1478    -0.2749
     13  C5'       23.2210  108.4660  100.5040 C.3   1478  PSD1478     0.1852
     14  C4'       23.7040  109.7720   99.9040 C.3   1478  PSD1478     0.1823
     15  O4'       22.6210  110.7390   99.9330 O.3   1478  PSD1478    -0.3135
     16  C1'       22.9190  111.7840  100.8430 C.3   1478  PSD1478     0.3186
     17  N9        21.7260  112.1780  101.5950 N.pl3 1478  PSD1478    -0.1439
     18  C4        20.9590  113.2850  101.3110 C.2   1478  PSD1478     0.3518
     19  N3        21.1170  114.1470  100.2890 N.2   1478  PSD1478    -0.0055
     20  C2        20.2080  115.1110  100.3460 C.3   1478  PSD1478     0.5254
     21  N1        19.2340  115.3080  101.2440 N.2   1478  PSD1478     0.0021
     22  C6        19.1030  114.4330  102.2580 C.2   1478  PSD1478     0.4393
     23  N6        18.1480  114.6500  103.1590 N.pl3 1478  PSD1478     0.2180
     24  C5        19.9980  113.3440  102.3020 C.2   1478  PSD1478     0.2526
     25  N7        20.1250  112.2690  103.1690 N.2   1478  PSD1478    -0.2095
     26  C8        21.1600  111.6080  102.7030 C.3   1478  PSD1478     0.3377
     27  C2'       24.1670  111.4370  101.6440 C.3   1478  PSD1478     0.2570
     28  O2'       24.9560  112.6010  101.6960 O.3   1478  PSD1478    -0.2130
     29  C3'       24.8120  110.3750  100.7600 C.3   1478  PSD1478     0.2184
     30  O3'       26.0410  110.6730  100.1060 O.3   1478  PSD1478    -0.2174
@<TRIPOS>BOND
     1     2     6    1
     2     2     1    1
     3     6     5    1
     4    14    15    1
     5    14    13    1
     6    14    29    1
     7    15    16    1
     8    30    29    1
     9    19    20    1
    10    19    18    2
    11    20    21    1
    12    13    12    1
    13     1     7    1
    14    29    27    1
    15    16    17    1
    16    16    27    1
    17     5     7    1
    18    21    22    2
    19    18    17    1
    20    18    24    1
    21    17    26    1
    22     7     3    1
    23    27    28    1
    24    12     9    1
    25     3     4    2
    26     3     8   am
    27    22    24    1
    28    22    23    1
    29    24    25    2
    30     8     9    1
    31    26    25    1
    32     9    11    2
    33     9    10    1
