@<TRIPOS>MOLECULE
1h50_FMN_A_1.pdb
 31 33 0 0 0
SMALL
GASTEIGER

@<TRIPOS>ATOM
      1  N1        21.4770    7.8080   24.1580 N.2   401  FMN401     -0.2890
      2  C2        20.7430    6.6760   23.9410 C.1   401  FMN401      0.3669
      3  O2        19.7240    6.2910   24.7250 O.2   401  FMN401     -0.1744
      4  N3        21.0540    5.8600   22.7990 N.2   401  FMN401     -0.2300
      5  C4        22.1110    6.0520   21.9670 C.1   401  FMN401      0.2513
      6  O4        22.2960    5.3040   21.0010 O.2   401  FMN401     -0.2057
      7  C4A       22.8720    7.2920   22.1830 C.2   401  FMN401      0.2700
      8  N5        23.7490    7.7230   21.2790 N.2   401  FMN401     -0.3878
      9  C5A       24.5720    8.7670   21.6130 C.2   401  FMN401      0.1320
     10  C6        25.6990    9.1110   20.7540 C.2   401  FMN401      0.0250
     11  C7        26.6170   10.0730   21.0650 C.2   401  FMN401     -0.0238
     12  C7M       27.8050   10.4200   20.1490 C.3   401  FMN401      0.0308
     13  C8        26.4200   10.8840   22.2820 C.2   401  FMN401     -0.0280
     14  C8M       27.4430   11.9100   22.7230 C.3   401  FMN401      0.0304
     15  C9        25.2700   10.6630   23.0350 C.2   401  FMN401     -0.0041
     16  C9A       24.3940    9.5760   22.8110 C.3   401  FMN401      0.1497
     17  N10       23.3420    9.1580   23.6890 N.pl3 401  FMN401     -0.2691
     18  C10       22.5180    8.0930   23.3850 C.2   401  FMN401      0.2416
     19  C1'       23.2540    9.6970   25.0720 C.3   401  FMN401      0.1294
     20  C2'       24.2570    8.9830   25.9830 C.3   401  FMN401      0.2044
     21  O2'       23.8540    7.6540   26.3030 O.3   401  FMN401     -0.2185
     22  C3'       24.4550    9.7580   27.3120 C.3   401  FMN401      0.2164
     23  O3'       23.2500    9.6420   28.1360 O.3   401  FMN401     -0.2175
     24  C4'       24.8700   11.2060   27.1480 C.3   401  FMN401      0.2147
     25  O4'       26.0340   11.2910   26.2910 O.3   401  FMN401     -0.2176
     26  C5'       25.1370   11.9860   28.4170 C.3   401  FMN401      0.1892
     27  O5'       26.1760   11.3510   29.1780 O.3   401  FMN401     -0.2674
     28  P         27.6830   11.8410   29.1510 P.3   401  FMN401      0.5327
     29  O1P       28.2340   11.7080   27.7700 O.2   401  FMN401     -0.2224
     30  O2P       27.7240   13.2530   29.6810 O.3   401  FMN401     -0.1145
     31  O3P       28.3720   10.8680   30.1600 O.3   401  FMN401     -0.1145
@<TRIPOS>BOND
     1    12    11    1
     2    10    11    2
     3    10     9    1
     4     6     5    2
     5    11    13    1
     6     8     9    2
     7     8     7    2
     8     9    16    1
     9     5     7    1
    10     5     4    2
    11     7    18    1
    12    13    14    1
    13    13    15    2
    14     4     2    2
    15    16    15    1
    16    16    17    1
    17    18    17    1
    18    18     1    2
    19    17    19    1
    20     2     1    2
    21     2     3    2
    22    19    20    1
    23    20    21    1
    24    20    22    1
    25    25    24    1
    26    24    22    1
    27    24    26    1
    28    22    23    1
    29    29    28    2
    30    26    27    1
    31    28    27    1
    32    28    30    1
    33    28    31    1
