@<TRIPOS>MOLECULE
1h51_FMN_A_1.pdb
 31 33 0 0 0
SMALL
GASTEIGER

@<TRIPOS>ATOM
      1  N1        21.4880    7.8210   24.1090 N.2   1365  FMN1365    -0.2890
      2  C2        20.7010    6.7300   23.8600 C.1   1365  FMN1365     0.3669
      3  O2        19.8690    6.3330   24.6320 O.2   1365  FMN1365    -0.1744
      4  N3        21.0570    5.8680   22.7680 N.2   1365  FMN1365    -0.2300
      5  C4        21.9680    6.1700   21.8040 C.1   1365  FMN1365     0.2513
      6  O4        22.2460    5.3520   20.9220 O.2   1365  FMN1365    -0.2057
      7  C4A       22.7700    7.3690   22.0500 C.2   1365  FMN1365     0.2700
      8  N5        23.6730    7.7740   21.1680 N.2   1365  FMN1365    -0.3878
      9  C5A       24.5310    8.7870   21.5180 C.2   1365  FMN1365     0.1320
     10  C6        25.5930    9.1880   20.6010 C.2   1365  FMN1365     0.0250
     11  C7        26.4890   10.1750   20.8780 C.2   1365  FMN1365    -0.0238
     12  C7M       27.7330   10.4160   20.0200 C.3   1365  FMN1365     0.0308
     13  C8        26.3810   10.9060   22.1540 C.2   1365  FMN1365    -0.0280
     14  C8M       27.3440   12.0130   22.5090 C.3   1365  FMN1365     0.0304
     15  C9        25.2760   10.6510   22.9580 C.2   1365  FMN1365    -0.0041
     16  C9A       24.3600    9.6030   22.7080 C.3   1365  FMN1365     0.1497
     17  N10       23.3700    9.1360   23.6240 N.pl3 1365  FMN1365    -0.2691
     18  C10       22.5020    8.1110   23.3090 C.2   1365  FMN1365     0.2416
     19  C1'       23.2380    9.7570   24.9600 C.3   1365  FMN1365     0.1294
     20  C2'       24.2330    9.1220   25.9250 C.3   1365  FMN1365     0.2044
     21  O2'       23.8720    7.7910   26.2630 O.3   1365  FMN1365    -0.2185
     22  C3'       24.3260    9.9440   27.2310 C.3   1365  FMN1365     0.2164
     23  O3'       23.0440    9.8810   27.9380 O.3   1365  FMN1365    -0.2175
     24  C4'       24.7590   11.3880   27.0420 C.3   1365  FMN1365     0.2147
     25  O4'       25.9180   11.4650   26.1730 O.3   1365  FMN1365    -0.2176
     26  C5'       25.0530   12.1690   28.2940 C.3   1365  FMN1365     0.1892
     27  O5'       26.0560   11.4890   29.0610 O.3   1365  FMN1365    -0.2674
     28  P         27.5720   11.9400   29.0810 P.3   1365  FMN1365     0.5327
     29  O1P       28.1630   11.8210   27.7030 O.2   1365  FMN1365    -0.2224
     30  O2P       27.6530   13.3220   29.6720 O.3   1365  FMN1365    -0.1145
     31  O3P       28.1980   10.9200   30.0880 O.3   1365  FMN1365    -0.1145
@<TRIPOS>BOND
     1    12    11    1
     2    10    11    2
     3    10     9    1
     4    11    13    1
     5     6     5    2
     6     8     9    2
     7     8     7    2
     8     9    16    1
     9     5     7    1
    10     5     4    2
    11     7    18    1
    12    13    14    1
    13    13    15    2
    14    16    15    1
    15    16    17    1
    16     4     2    2
    17    18    17    1
    18    18     1    2
    19    17    19    1
    20     2     1    2
    21     2     3    2
    22    19    20    1
    23    20    21    1
    24    20    22    1
    25    25    24    1
    26    24    22    1
    27    24    26    1
    28    22    23    1
    29    29    28    2
    30    26    27    1
    31    27    28    1
    32    28    30    1
    33    28    31    1
