@<TRIPOS>MOLECULE
1h55_HEM_A_1.pdb
 43 50 0 0 0
SMALL
GASTEIGER

@<TRIPOS>ATOM
      1 FE          3.2040    2.0320   11.5770 Fe    350  HEM350      0.0000
      2  CHA       -0.0370    3.0870   11.8400 C.2   350  HEM350      0.0000
      3  CHB        2.4070    0.3250    8.7210 C.2   350  HEM350      0.0000
      4  CHC        6.4350    0.9530   11.3010 C.2   350  HEM350      0.0000
      5  CHD        3.9930    3.6900   14.4190 C.2   350  HEM350      0.0000
      6  NA         1.5420    1.7900   10.4900 N.ar  350  HEM350      0.0000
      7  C1A        0.2880    2.3400   10.7140 C.ar  350  HEM350      0.0000
      8  C2A       -0.6440    1.9220    9.6780 C.ar  350  HEM350      0.0000
      9  C3A        0.0430    1.1310    8.8220 C.ar  350  HEM350      0.0000
     10  C4A        1.3930    1.0520    9.3280 C.ar  350  HEM350      0.0000
     11  CMA       -0.5300    0.3960    7.6070 C.3   350  HEM350      0.0000
     12  CAA       -2.1270    2.2650    9.5670 C.3   350  HEM350      0.0000
     13  CBA       -2.3270    3.6050    8.8760 C.3   350  HEM350      0.0000
     14  CGA       -3.7920    3.9610    8.7000 C.2   350  HEM350      0.0000
     15  O1A       -4.0820    5.1200    8.3460 O.co2 350  HEM350      0.0000
     16  O2A       -4.6510    3.0800    8.9110 O.co2 350  HEM350      0.0000
     17  NB         4.2130    0.8730   10.2710 N.2   350  HEM350      0.0000
     18  C1B        3.7210    0.2410    9.1520 C.2   350  HEM350      0.0000
     19  C2B        4.7290   -0.5710    8.5250 C.2   350  HEM350      0.0000
     20  C3B        5.8540   -0.4780    9.2750 C.2   350  HEM350      0.0000
     21  C4B        5.5420    0.4710   10.3420 C.2   350  HEM350      0.0000
     22  CMB        4.5170   -1.3650    7.2460 C.3   350  HEM350      0.0000
     23  CAB        7.0420   -1.1420    9.0020 C.3   350  HEM350      0.0000
     24  CBB        7.9250   -1.7240    9.9910 C.3   350  HEM350      0.0000
     25  NC         4.8940    2.3170   12.6200 N.ar  350  HEM350      0.0000
     26  C1C        6.1590    1.8370   12.3440 C.ar  350  HEM350      0.0000
     27  C2C        7.1480    2.4620   13.1920 C.ar  350  HEM350      0.0000
     28  C3C        6.4640    3.2790   14.0640 C.ar  350  HEM350      0.0000
     29  C4C        5.0600    3.1310   13.7160 C.ar  350  HEM350      0.0000
     30  CMC        8.6650    2.2760   13.0280 C.3   350  HEM350      0.0000
     31  CAC        6.9480    4.1200   15.0660 C.3   350  HEM350      0.0000
     32  CBC        8.0930    3.8320   15.8970 C.3   350  HEM350      0.0000
     33  ND         2.1640    3.1190   12.9020 N.2   350  HEM350      0.0000
     34  C1D        2.6450    3.6550   14.0740 C.2   350  HEM350      0.0000
     35  C2D        1.5750    4.1590   14.8760 C.2   350  HEM350      0.0000
     36  C3D        0.4380    4.0470   14.1410 C.2   350  HEM350      0.0000
     37  C4D        0.8180    3.4070   12.8980 C.2   350  HEM350      0.0000
     38  CMD        1.7110    4.6610   16.3120 C.3   350  HEM350      0.0000
     39  CAD       -0.9330    4.5760   14.5320 C.3   350  HEM350      0.0000
     40  CBD       -1.0430    6.0210   14.0810 C.3   350  HEM350      0.0000
     41  CGD       -2.4080    6.6190   14.3530 C.2   350  HEM350      0.0000
     42  O1D       -2.6220    7.7900   13.9720 O.co2 350  HEM350      0.0000
     43  O2D       -3.2630    5.9250   14.9440 O.co2 350  HEM350      0.0000
@<TRIPOS>BOND
     1    22    19    1
     2    11     9    1
     3    15    14   ar
     4    19    18    1
     5    19    20    2
     6    14    13    1
     7    14    16   ar
     8     3    18    1
     9     3    10    2
    10     9    10   ar
    11     9     8   ar
    12    13    12    1
    13    23    20    1
    14    23    24    1
    15    18    17    2
    16    20    21    1
    17    10     6   ar
    18    12     8    1
    19     8     7   ar
    20    17    21    1
    21    17     1    1
    22    21     4    2
    23     6     7   ar
    24     6     1    1
    25     7     2    2
    26     4    26    1
    27     1    25    1
    28     1    33    1
    29     2    37    1
    30    26    25   ar
    31    26    27   ar
    32    25    29   ar
    33    37    33    2
    34    37    36    1
    35    33    34    1
    36    30    27    1
    37    27    28   ar
    38    29    28   ar
    39    29     5    1
    40    42    41   ar
    41    28    31    1
    42    34     5    2
    43    34    35    1
    44    40    41    1
    45    40    39    1
    46    36    39    1
    47    36    35    2
    48    41    43   ar
    49    35    38    1
    50    31    32    1
