@<TRIPOS>MOLECULE
1h57_HEM_A_1.pdb
 43 50 0 0 0
SMALL
GASTEIGER

@<TRIPOS>ATOM
      1 FE          3.3370    2.0910   11.6240 Fe    350  HEM350      0.0000
      2  CHA        0.1220    3.1760   11.9130 C.2   350  HEM350      0.0000
      3  CHB        2.5670    0.5010    8.7180 C.2   350  HEM350      0.0000
      4  CHC        6.5530    0.9510   11.4350 C.2   350  HEM350      0.0000
      5  CHD        4.1530    3.8030   14.4670 C.2   350  HEM350      0.0000
      6  NA         1.6900    1.9190   10.5130 N.ar  350  HEM350      0.0000
      7  C1A        0.4430    2.4560   10.7650 C.ar  350  HEM350      0.0000
      8  C2A       -0.5050    2.0560    9.7400 C.ar  350  HEM350      0.0000
      9  C3A        0.1790    1.2820    8.8540 C.ar  350  HEM350      0.0000
     10  C4A        1.5390    1.2100    9.3340 C.ar  350  HEM350      0.0000
     11  CMA       -0.4340    0.5860    7.6360 C.3   350  HEM350      0.0000
     12  CAA       -1.9930    2.3760    9.6680 C.3   350  HEM350      0.0000
     13  CBA       -2.2520    3.7160    8.9900 C.3   350  HEM350      0.0000
     14  CGA       -3.7310    3.9990    8.7770 C.2   350  HEM350      0.0000
     15  O1A       -4.0860    5.1790    8.5760 O.co2 350  HEM350      0.0000
     16  O2A       -4.5340    3.0430    8.8010 O.co2 350  HEM350      0.0000
     17  NB         4.3610    0.9390   10.3350 N.2   350  HEM350      0.0000
     18  C1B        3.8810    0.3560    9.1830 C.2   350  HEM350      0.0000
     19  C2B        4.8800   -0.4970    8.5910 C.2   350  HEM350      0.0000
     20  C3B        5.9890   -0.4370    9.3740 C.2   350  HEM350      0.0000
     21  C4B        5.6750    0.4970   10.4440 C.2   350  HEM350      0.0000
     22  CMB        4.6930   -1.2730    7.2860 C.3   350  HEM350      0.0000
     23  CAB        7.1750   -1.1200    9.1260 C.3   350  HEM350      0.0000
     24  CBB        8.0030   -1.7510   10.1350 C.3   350  HEM350      0.0000
     25  NC         5.0300    2.3960   12.6890 N.ar  350  HEM350      0.0000
     26  C1C        6.2830    1.8610   12.4500 C.ar  350  HEM350      0.0000
     27  C2C        7.2840    2.4850   13.2980 C.ar  350  HEM350      0.0000
     28  C3C        6.6130    3.3350   14.1450 C.ar  350  HEM350      0.0000
     29  C4C        5.2140    3.2300   13.7750 C.ar  350  HEM350      0.0000
     30  CMC        8.7940    2.2710   13.1510 C.3   350  HEM350      0.0000
     31  CAC        7.1110    4.1760   15.1620 C.3   350  HEM350      0.0000
     32  CBC        8.2540    3.8990   15.9910 C.3   350  HEM350      0.0000
     33  ND         2.3240    3.2020   12.9540 N.2   350  HEM350      0.0000
     34  C1D        2.8090    3.7530   14.1170 C.2   350  HEM350      0.0000
     35  C2D        1.7340    4.2520   14.9250 C.2   350  HEM350      0.0000
     36  C3D        0.5930    4.1160   14.2070 C.2   350  HEM350      0.0000
     37  C4D        0.9710    3.4770   12.9680 C.2   350  HEM350      0.0000
     38  CMD        1.8860    4.7760   16.3470 C.3   350  HEM350      0.0000
     39  CAD       -0.7830    4.6410   14.5990 C.3   350  HEM350      0.0000
     40  CBD       -0.9310    6.0840   14.1580 C.3   350  HEM350      0.0000
     41  CGD       -2.3110    6.6520   14.4330 C.2   350  HEM350      0.0000
     42  O1D       -2.5530    7.8220   14.0650 O.co2 350  HEM350      0.0000
     43  O2D       -3.1540    5.9350   15.0140 O.co2 350  HEM350      0.0000
@<TRIPOS>BOND
     1    22    19    1
     2    11     9    1
     3    15    14   ar
     4    19    18    1
     5    19    20    2
     6     3    18    1
     7     3    10    2
     8    14    16   ar
     9    14    13    1
    10     9    10   ar
    11     9     8   ar
    12    13    12    1
    13    23    20    1
    14    23    24    1
    15    18    17    2
    16    10     6   ar
    17    20    21    1
    18    12     8    1
    19     8     7   ar
    20    17    21    1
    21    17     1    1
    22    21     4    2
    23     6     7   ar
    24     6     1    1
    25     7     2    2
    26     4    26    1
    27     1    25    1
    28     1    33    1
    29     2    37    1
    30    26    25   ar
    31    26    27   ar
    32    25    29   ar
    33    33    37    2
    34    33    34    1
    35    37    36    1
    36    30    27    1
    37    27    28   ar
    38    29    28   ar
    39    29     5    1
    40    42    41   ar
    41    34     5    2
    42    34    35    1
    43    28    31    1
    44    40    41    1
    45    40    39    1
    46    36    39    1
    47    36    35    2
    48    41    43   ar
    49    35    38    1
    50    31    32    1
