@<TRIPOS>MOLECULE
1h58_HEM_A_1.pdb
 43 50 0 0 0
SMALL
GASTEIGER

@<TRIPOS>ATOM
      1 FE          3.2890    2.0160   11.6740 Fe    350  HEM350      0.0000
      2  CHA        0.1430    3.3860   11.8220 C.2   350  HEM350      0.0000
      3  CHB        2.5460    0.6600    8.6170 C.2   350  HEM350      0.0000
      4  CHC        6.5600    1.0210   11.3060 C.2   350  HEM350      0.0000
      5  CHD        4.2090    3.8760   14.3730 C.2   350  HEM350      0.0000
      6  NA         1.6930    2.1030   10.4130 N.ar  350  HEM350      0.0000
      7  C1A        0.4570    2.6720   10.6540 C.ar  350  HEM350      0.0000
      8  C2A       -0.4930    2.2640    9.6350 C.ar  350  HEM350      0.0000
      9  C3A        0.1740    1.4910    8.7450 C.ar  350  HEM350      0.0000
     10  C4A        1.5410    1.4260    9.2120 C.ar  350  HEM350      0.0000
     11  CMA       -0.4370    0.7400    7.5590 C.3   350  HEM350      0.0000
     12  CAA       -1.9850    2.5660    9.5730 C.3   350  HEM350      0.0000
     13  CBA       -2.2370    4.0000    9.1410 C.3   350  HEM350      0.0000
     14  CGA       -3.7120    4.3060    8.9380 C.2   350  HEM350      0.0000
     15  O1A       -4.0880    5.4930    9.0400 O.co2 350  HEM350      0.0000
     16  O2A       -4.4900    3.3660    8.6660 O.co2 350  HEM350      0.0000
     17  NB         4.3340    1.0080   10.2640 N.2   350  HEM350      0.0000
     18  C1B        3.8400    0.4470    9.1060 C.2   350  HEM350      0.0000
     19  C2B        4.8280   -0.4070    8.4920 C.2   350  HEM350      0.0000
     20  C3B        5.9430   -0.3580    9.2650 C.2   350  HEM350      0.0000
     21  C4B        5.6550    0.5760   10.3360 C.2   350  HEM350      0.0000
     22  CMB        4.6860   -1.1590    7.1720 C.3   350  HEM350      0.0000
     23  CAB        7.0900   -1.1030    9.0300 C.3   350  HEM350      0.0000
     24  CBB        7.8920   -1.7440   10.0430 C.3   350  HEM350      0.0000
     25  NC         5.0560    2.4070   12.6250 N.ar  350  HEM350      0.0000
     26  C1C        6.3090    1.8940   12.3520 C.ar  350  HEM350      0.0000
     27  C2C        7.3210    2.5080   13.2010 C.ar  350  HEM350      0.0000
     28  C3C        6.6590    3.3520   14.0530 C.ar  350  HEM350      0.0000
     29  C4C        5.2530    3.2520   13.6960 C.ar  350  HEM350      0.0000
     30  CMC        8.8370    2.3200   13.0490 C.3   350  HEM350      0.0000
     31  CAC        7.1630    4.2240   15.0290 C.3   350  HEM350      0.0000
     32  CBC        8.2290    3.9350   15.9600 C.3   350  HEM350      0.0000
     33  ND         2.3540    3.3290   12.8740 N.2   350  HEM350      0.0000
     34  C1D        2.8570    3.8750   14.0310 C.2   350  HEM350      0.0000
     35  C2D        1.7890    4.3710   14.8690 C.2   350  HEM350      0.0000
     36  C3D        0.6330    4.2680   14.1450 C.2   350  HEM350      0.0000
     37  C4D        1.0030    3.6490   12.8900 C.2   350  HEM350      0.0000
     38  CMD        1.9530    4.8040   16.3300 C.3   350  HEM350      0.0000
     39  CAD       -0.7720    4.7210   14.5500 C.3   350  HEM350      0.0000
     40  CBD       -0.9330    6.1760   14.1440 C.3   350  HEM350      0.0000
     41  CGD       -2.3160    6.7280   14.4190 C.2   350  HEM350      0.0000
     42  O1D       -2.5730    7.8860   14.0260 O.co2 350  HEM350      0.0000
     43  O2D       -3.1450    6.0140   15.0210 O.co2 350  HEM350      0.0000
@<TRIPOS>BOND
     1    22    19    1
     2    11     9    1
     3    19    18    1
     4    19    20    2
     5     3    18    1
     6     3    10    2
     7    16    14   ar
     8     9    10   ar
     9     9     8   ar
    10    14    15   ar
    11    14    13    1
    12    23    20    1
    13    23    24    1
    14    18    17    2
    15    13    12    1
    16    10     6   ar
    17    20    21    1
    18    12     8    1
    19     8     7   ar
    20    17    21    1
    21    17     1    1
    22    21     4    2
    23     6     7   ar
    24     6     1    1
    25     7     2    2
    26     4    26    1
    27     1    25    1
    28     1    33    1
    29     2    37    1
    30    26    25   ar
    31    26    27   ar
    32    25    29   ar
    33    33    37    2
    34    33    34    1
    35    37    36    1
    36    30    27    1
    37    27    28   ar
    38    29    28   ar
    39    29     5    1
    40    42    41   ar
    41    34     5    2
    42    34    35    1
    43    28    31    1
    44    40    41    1
    45    40    39    1
    46    36    39    1
    47    36    35    2
    48    41    43   ar
    49    35    38    1
    50    31    32    1
