@<TRIPOS>MOLECULE
1h5a_HEM_A_1.pdb
 43 50 0 0 0
SMALL
GASTEIGER

@<TRIPOS>ATOM
      1 FE          3.2290    1.8690   11.6200 Fe    350  HEM350      0.0000
      2  CHA        0.0540    3.1680   11.7720 C.2   350  HEM350      0.0000
      3  CHB        2.4450    0.3030    8.6800 C.2   350  HEM350      0.0000
      4  CHC        6.5000    0.9540   11.2410 C.2   350  HEM350      0.0000
      5  CHD        4.0880    3.7650   14.3280 C.2   350  HEM350      0.0000
      6  NA         1.6050    1.8290   10.4180 N.ar  350  HEM350      0.0000
      7  C1A        0.3700    2.4280   10.6300 C.ar  350  HEM350      0.0000
      8  C2A       -0.5790    2.0220    9.6040 C.ar  350  HEM350      0.0000
      9  C3A        0.0920    1.2060    8.7570 C.ar  350  HEM350      0.0000
     10  C4A        1.4390    1.0830    9.2680 C.ar  350  HEM350      0.0000
     11  CMA       -0.4960    0.4650    7.5510 C.3   350  HEM350      0.0000
     12  CAA       -2.0670    2.3560    9.4960 C.3   350  HEM350      0.0000
     13  CBA       -2.2840    3.6780    8.7720 C.3   350  HEM350      0.0000
     14  CGA       -3.7500    4.0290    8.6080 C.2   350  HEM350      0.0000
     15  O1A       -4.0430    5.1580    8.1650 O.co2 350  HEM350      0.0000
     16  O2A       -4.6090    3.1770    8.9140 O.co2 350  HEM350      0.0000
     17  NB         4.2670    0.8260   10.2310 N.2   350  HEM350      0.0000
     18  C1B        3.7660    0.1810    9.1190 C.2   350  HEM350      0.0000
     19  C2B        4.7770   -0.6250    8.4880 C.2   350  HEM350      0.0000
     20  C3B        5.9080   -0.5050    9.2250 C.2   350  HEM350      0.0000
     21  C4B        5.6060    0.4550   10.2820 C.2   350  HEM350      0.0000
     22  CMB        4.5930   -1.4230    7.1990 C.3   350  HEM350      0.0000
     23  CAB        7.0820   -1.1940    8.9680 C.3   350  HEM350      0.0000
     24  CBB        7.9500   -1.8050    9.9450 C.3   350  HEM350      0.0000
     25  NC         4.9690    2.3410   12.5570 N.ar  350  HEM350      0.0000
     26  C1C        6.2350    1.8530   12.2750 C.ar  350  HEM350      0.0000
     27  C2C        7.2280    2.4750   13.1370 C.ar  350  HEM350      0.0000
     28  C3C        6.5450    3.3070   13.9860 C.ar  350  HEM350      0.0000
     29  C4C        5.1500    3.1870   13.6280 C.ar  350  HEM350      0.0000
     30  CMC        8.7390    2.3070   13.0000 C.3   350  HEM350      0.0000
     31  CAC        7.0340    4.1810   14.9690 C.3   350  HEM350      0.0000
     32  CBC        8.1570    3.9070   15.8230 C.3   350  HEM350      0.0000
     33  ND         2.2510    3.1270   12.8520 N.2   350  HEM350      0.0000
     34  C1D        2.7380    3.6980   14.0020 C.2   350  HEM350      0.0000
     35  C2D        1.6680    4.2280   14.7950 C.2   350  HEM350      0.0000
     36  C3D        0.5250    4.1030   14.0770 C.2   350  HEM350      0.0000
     37  C4D        0.8990    3.4420   12.8450 C.2   350  HEM350      0.0000
     38  CMD        1.8120    4.7710   16.2130 C.3   350  HEM350      0.0000
     39  CAD       -0.8500    4.6170   14.4880 C.3   350  HEM350      0.0000
     40  CBD       -1.0100    6.0610   14.0550 C.3   350  HEM350      0.0000
     41  CGD       -2.3820    6.6310   14.3560 C.2   350  HEM350      0.0000
     42  O1D       -2.6160    7.8050   13.9990 O.co2 350  HEM350      0.0000
     43  O2D       -3.2230    5.9190   14.9440 O.co2 350  HEM350      0.0000
@<TRIPOS>BOND
     1    22    19    1
     2    11     9    1
     3    15    14   ar
     4    19    18    1
     5    19    20    2
     6    14    13    1
     7    14    16   ar
     8     3    18    1
     9     3    10    2
    10     9    10   ar
    11     9     8   ar
    12    13    12    1
    13    23    20    1
    14    23    24    1
    15    18    17    2
    16    20    21    1
    17    10     6   ar
    18    12     8    1
    19     8     7   ar
    20    17    21    1
    21    17     1    1
    22    21     4    2
    23     6     7   ar
    24     6     1    1
    25     7     2    2
    26     4    26    1
    27     1    25    1
    28     1    33    1
    29     2    37    1
    30    26    25   ar
    31    26    27   ar
    32    25    29   ar
    33    37    33    2
    34    37    36    1
    35    33    34    1
    36    30    27    1
    37    27    28   ar
    38    29    28   ar
    39    29     5    1
    40    28    31    1
    41    42    41   ar
    42    34     5    2
    43    34    35    1
    44    40    41    1
    45    40    39    1
    46    36    39    1
    47    36    35    2
    48    41    43   ar
    49    35    38    1
    50    31    32    1
