@<TRIPOS>MOLECULE
1h5c_HEM_A_1.pdb
 43 50 0 0 0
SMALL
GASTEIGER

@<TRIPOS>ATOM
      1 FE          3.3200    1.9670   11.6670 Fe    350  HEM350      0.0000
      2  CHA        0.1640    3.3110   11.8110 C.2   350  HEM350      0.0000
      3  CHB        2.5630    0.5450    8.6660 C.2   350  HEM350      0.0000
      4  CHC        6.5680    0.9830   11.3420 C.2   350  HEM350      0.0000
      5  CHD        4.2010    3.8310   14.3880 C.2   350  HEM350      0.0000
      6  NA         1.7210    2.0150   10.4320 N.ar  350  HEM350      0.0000
      7  C1A        0.4820    2.5850   10.6620 C.ar  350  HEM350      0.0000
      8  C2A       -0.4770    2.1440    9.6610 C.ar  350  HEM350      0.0000
      9  C3A        0.1970    1.3490    8.8000 C.ar  350  HEM350      0.0000
     10  C4A        1.5600    1.2960    9.2620 C.ar  350  HEM350      0.0000
     11  CMA       -0.4260    0.5740    7.6390 C.3   350  HEM350      0.0000
     12  CAA       -1.9720    2.4270    9.5830 C.3   350  HEM350      0.0000
     13  CBA       -2.2430    3.8010    8.9950 C.3   350  HEM350      0.0000
     14  CGA       -3.7210    4.0740    8.7790 C.2   350  HEM350      0.0000
     15  O1A       -4.0810    5.2520    8.5820 O.co2 350  HEM350      0.0000
     16  O2A       -4.5200    3.1170    8.7940 O.co2 350  HEM350      0.0000
     17  NB         4.3530    0.9510   10.2840 N.2   350  HEM350      0.0000
     18  C1B        3.8610    0.3730    9.1370 C.2   350  HEM350      0.0000
     19  C2B        4.8490   -0.4720    8.5270 C.2   350  HEM350      0.0000
     20  C3B        5.9700   -0.4110    9.2930 C.2   350  HEM350      0.0000
     21  C4B        5.6710    0.5300   10.3610 C.2   350  HEM350      0.0000
     22  CMB        4.6590   -1.2790    7.2470 C.3   350  HEM350      0.0000
     23  CAB        7.1450   -1.1100    9.0290 C.3   350  HEM350      0.0000
     24  CBB        8.0030   -1.7230   10.0100 C.3   350  HEM350      0.0000
     25  NC         5.0550    2.3980   12.6270 N.ar  350  HEM350      0.0000
     26  C1C        6.3110    1.8870   12.3660 C.ar  350  HEM350      0.0000
     27  C2C        7.3210    2.5020   13.2200 C.ar  350  HEM350      0.0000
     28  C3C        6.6500    3.3470   14.0640 C.ar  350  HEM350      0.0000
     29  C4C        5.2510    3.2450   13.7000 C.ar  350  HEM350      0.0000
     30  CMC        8.8270    2.2780   13.0700 C.3   350  HEM350      0.0000
     31  CAC        7.1500    4.2150   15.0480 C.3   350  HEM350      0.0000
     32  CBC        8.2620    3.9420   15.9250 C.3   350  HEM350      0.0000
     33  ND         2.3690    3.2400   12.8840 N.2   350  HEM350      0.0000
     34  C1D        2.8600    3.7900   14.0450 C.2   350  HEM350      0.0000
     35  C2D        1.7910    4.3100   14.8550 C.2   350  HEM350      0.0000
     36  C3D        0.6470    4.2060   14.1240 C.2   350  HEM350      0.0000
     37  C4D        1.0240    3.5750   12.8790 C.2   350  HEM350      0.0000
     38  CMD        1.9520    4.7700   16.3030 C.3   350  HEM350      0.0000
     39  CAD       -0.7530    4.6650   14.5290 C.3   350  HEM350      0.0000
     40  CBD       -0.9450    6.1030   14.0780 C.3   350  HEM350      0.0000
     41  CGD       -2.3240    6.6470   14.3900 C.2   350  HEM350      0.0000
     42  O1D       -2.5800    7.8200   14.0450 O.co2 350  HEM350      0.0000
     43  O2D       -3.1460    5.9130   14.9770 O.co2 350  HEM350      0.0000
@<TRIPOS>BOND
     1    22    19    1
     2    11     9    1
     3    19    18    1
     4    19    20    2
     5    15    14   ar
     6     3    18    1
     7     3    10    2
     8    14    16   ar
     9    14    13    1
    10     9    10   ar
    11     9     8   ar
    12    13    12    1
    13    23    20    1
    14    23    24    1
    15    18    17    2
    16    10     6   ar
    17    20    21    1
    18    12     8    1
    19     8     7   ar
    20    17    21    1
    21    17     1    1
    22    21     4    2
    23     6     7   ar
    24     6     1    1
    25     7     2    2
    26     4    26    1
    27     1    25    1
    28     1    33    1
    29     2    37    1
    30    26    25   ar
    31    26    27   ar
    32    25    29   ar
    33    37    33    2
    34    37    36    1
    35    33    34    1
    36    30    27    1
    37    27    28   ar
    38    29    28   ar
    39    29     5    1
    40    34     5    2
    41    34    35    1
    42    42    41   ar
    43    28    31    1
    44    40    41    1
    45    40    39    1
    46    36    39    1
    47    36    35    2
    48    41    43   ar
    49    35    38    1
    50    31    32    1
