@<TRIPOS>MOLECULE
1h5d_HEM_A_1.pdb
 43 50 0 0 0
SMALL
GASTEIGER

@<TRIPOS>ATOM
      1 FE          3.2670    2.0310   11.6440 Fe    350  HEM350      0.0000
      2  CHA        0.0440    3.1360   11.8870 C.2   350  HEM350      0.0000
      3  CHB        2.5140    0.4570    8.7160 C.2   350  HEM350      0.0000
      4  CHC        6.4940    0.8970   11.4180 C.2   350  HEM350      0.0000
      5  CHD        4.0840    3.7460   14.4420 C.2   350  HEM350      0.0000
      6  NA         1.6270    1.8810   10.5040 N.ar  350  HEM350      0.0000
      7  C1A        0.3710    2.4180   10.7380 C.ar  350  HEM350      0.0000
      8  C2A       -0.5630    1.9860    9.7080 C.ar  350  HEM350      0.0000
      9  C3A        0.1250    1.2110    8.8430 C.ar  350  HEM350      0.0000
     10  C4A        1.4860    1.1630    9.3280 C.ar  350  HEM350      0.0000
     11  CMA       -0.4470    0.4770    7.6330 C.3   350  HEM350      0.0000
     12  CAA       -2.0470    2.2930    9.5900 C.3   350  HEM350      0.0000
     13  CBA       -2.3020    3.6800    9.0360 C.3   350  HEM350      0.0000
     14  CGA       -3.7740    3.9610    8.8090 C.2   350  HEM350      0.0000
     15  O1A       -4.1320    5.1450    8.6480 O.co2 350  HEM350      0.0000
     16  O2A       -4.5710    3.0020    8.7850 O.co2 350  HEM350      0.0000
     17  NB         4.2940    0.8920   10.3300 N.2   350  HEM350      0.0000
     18  C1B        3.8140    0.3080    9.1820 C.2   350  HEM350      0.0000
     19  C2B        4.8130   -0.5370    8.5680 C.2   350  HEM350      0.0000
     20  C3B        5.9250   -0.4780    9.3440 C.2   350  HEM350      0.0000
     21  C4B        5.6130    0.4460   10.4290 C.2   350  HEM350      0.0000
     22  CMB        4.6440   -1.3160    7.2680 C.3   350  HEM350      0.0000
     23  CAB        7.1020   -1.1640    9.0640 C.3   350  HEM350      0.0000
     24  CBB        7.9680   -1.7910   10.0370 C.3   350  HEM350      0.0000
     25  NC         4.9660    2.3560   12.6620 N.ar  350  HEM350      0.0000
     26  C1C        6.2270    1.8120   12.4270 C.ar  350  HEM350      0.0000
     27  C2C        7.2280    2.4320   13.2870 C.ar  350  HEM350      0.0000
     28  C3C        6.5560    3.2930   14.1170 C.ar  350  HEM350      0.0000
     29  C4C        5.1490    3.1880   13.7450 C.ar  350  HEM350      0.0000
     30  CMC        8.7350    2.2170   13.1730 C.3   350  HEM350      0.0000
     31  CAC        7.0660    4.1510   15.1020 C.3   350  HEM350      0.0000
     32  CBC        8.1810    3.8400   15.9660 C.3   350  HEM350      0.0000
     33  ND         2.2440    3.1460   12.9390 N.2   350  HEM350      0.0000
     34  C1D        2.7380    3.6880   14.1080 C.2   350  HEM350      0.0000
     35  C2D        1.6710    4.2130   14.9090 C.2   350  HEM350      0.0000
     36  C3D        0.5240    4.0800   14.1860 C.2   350  HEM350      0.0000
     37  C4D        0.8990    3.4300   12.9490 C.2   350  HEM350      0.0000
     38  CMD        1.8220    4.7790   16.3220 C.3   350  HEM350      0.0000
     39  CAD       -0.8550    4.5840   14.5770 C.3   350  HEM350      0.0000
     40  CBD       -1.0140    6.0410   14.1800 C.3   350  HEM350      0.0000
     41  CGD       -2.4020    6.5870   14.4590 C.2   350  HEM350      0.0000
     42  O1D       -2.6490    7.7640   14.1250 O.co2 350  HEM350      0.0000
     43  O2D       -3.2440    5.8480   15.0120 O.co2 350  HEM350      0.0000
@<TRIPOS>BOND
     1    22    19    1
     2    11     9    1
     3    19    18    1
     4    19    20    2
     5    15    14   ar
     6     3    18    1
     7     3    10    2
     8    16    14   ar
     9    14    13    1
    10     9    10   ar
    11     9     8   ar
    12    13    12    1
    13    23    20    1
    14    23    24    1
    15    18    17    2
    16    10     6   ar
    17    20    21    1
    18    12     8    1
    19     8     7   ar
    20    17    21    1
    21    17     1    1
    22    21     4    2
    23     6     7   ar
    24     6     1    1
    25     7     2    2
    26     4    26    1
    27     1    25    1
    28     1    33    1
    29     2    37    1
    30    26    25   ar
    31    26    27   ar
    32    25    29   ar
    33    33    37    2
    34    33    34    1
    35    37    36    1
    36    30    27    1
    37    27    28   ar
    38    29    28   ar
    39    29     5    1
    40    34     5    2
    41    34    35    1
    42    28    31    1
    43    42    41   ar
    44    40    41    1
    45    40    39    1
    46    36    39    1
    47    36    35    2
    48    41    43   ar
    49    35    38    1
    50    31    32    1
