@<TRIPOS>MOLECULE
1h5e_HEM_A_1.pdb
 43 50 0 0 0
SMALL
GASTEIGER

@<TRIPOS>ATOM
      1 FE          3.2670    2.0150   11.6460 Fe    350  HEM350      0.0000
      2  CHA        0.0580    3.1910   11.8760 C.2   350  HEM350      0.0000
      3  CHB        2.5080    0.4310    8.7180 C.2   350  HEM350      0.0000
      4  CHC        6.4860    0.9290   11.4090 C.2   350  HEM350      0.0000
      5  CHD        4.0970    3.7820   14.4440 C.2   350  HEM350      0.0000
      6  NA         1.6330    1.8970   10.4970 N.ar  350  HEM350      0.0000
      7  C1A        0.3840    2.4590   10.7290 C.ar  350  HEM350      0.0000
      8  C2A       -0.5580    2.0310    9.7130 C.ar  350  HEM350      0.0000
      9  C3A        0.1200    1.2230    8.8580 C.ar  350  HEM350      0.0000
     10  C4A        1.4820    1.1560    9.3330 C.ar  350  HEM350      0.0000
     11  CMA       -0.4780    0.4780    7.6630 C.3   350  HEM350      0.0000
     12  CAA       -2.0470    2.3390    9.6090 C.3   350  HEM350      0.0000
     13  CBA       -2.3010    3.7190    9.0310 C.3   350  HEM350      0.0000
     14  CGA       -3.7750    4.0070    8.8120 C.2   350  HEM350      0.0000
     15  O1A       -4.1380    5.1980    8.7100 O.co2 350  HEM350      0.0000
     16  O2A       -4.5690    3.0490    8.7330 O.co2 350  HEM350      0.0000
     17  NB         4.2870    0.8810   10.3420 N.2   350  HEM350      0.0000
     18  C1B        3.8170    0.2970    9.1820 C.2   350  HEM350      0.0000
     19  C2B        4.8310   -0.5170    8.5750 C.2   350  HEM350      0.0000
     20  C3B        5.9400   -0.4580    9.3520 C.2   350  HEM350      0.0000
     21  C4B        5.6100    0.4550   10.4410 C.2   350  HEM350      0.0000
     22  CMB        4.6880   -1.2740    7.2580 C.3   350  HEM350      0.0000
     23  CAB        7.1380   -1.1180    9.0700 C.3   350  HEM350      0.0000
     24  CBB        7.9660   -1.7710   10.0550 C.3   350  HEM350      0.0000
     25  NC         4.9700    2.3780   12.6640 N.ar  350  HEM350      0.0000
     26  C1C        6.2210    1.8460   12.4180 C.ar  350  HEM350      0.0000
     27  C2C        7.2280    2.4400   13.2870 C.ar  350  HEM350      0.0000
     28  C3C        6.5560    3.2900   14.1390 C.ar  350  HEM350      0.0000
     29  C4C        5.1550    3.2050   13.7550 C.ar  350  HEM350      0.0000
     30  CMC        8.7320    2.2000   13.1450 C.3   350  HEM350      0.0000
     31  CAC        7.0410    4.1210   15.1540 C.3   350  HEM350      0.0000
     32  CBC        8.2150    3.8820   15.9510 C.3   350  HEM350      0.0000
     33  ND         2.2620    3.1840   12.9300 N.2   350  HEM350      0.0000
     34  C1D        2.7560    3.7280   14.1020 C.2   350  HEM350      0.0000
     35  C2D        1.6970    4.2090   14.9300 C.2   350  HEM350      0.0000
     36  C3D        0.5470    4.0920   14.2040 C.2   350  HEM350      0.0000
     37  C4D        0.9120    3.4760   12.9450 C.2   350  HEM350      0.0000
     38  CMD        1.8550    4.6940   16.3700 C.3   350  HEM350      0.0000
     39  CAD       -0.8320    4.5870   14.6200 C.3   350  HEM350      0.0000
     40  CBD       -0.9870    6.0300   14.1930 C.3   350  HEM350      0.0000
     41  CGD       -2.3750    6.5790   14.4490 C.2   350  HEM350      0.0000
     42  O1D       -2.6190    7.7450   14.0800 O.co2 350  HEM350      0.0000
     43  O2D       -3.2200    5.8540   15.0150 O.co2 350  HEM350      0.0000
@<TRIPOS>BOND
     1    22    19    1
     2    11     9    1
     3    19    18    1
     4    19    20    2
     5    15    14   ar
     6     3    18    1
     7     3    10    2
     8    16    14   ar
     9    14    13    1
    10     9    10   ar
    11     9     8   ar
    12    13    12    1
    13    23    20    1
    14    23    24    1
    15    18    17    2
    16    10     6   ar
    17    20    21    1
    18    12     8    1
    19     8     7   ar
    20    17    21    1
    21    17     1    1
    22    21     4    2
    23     6     7   ar
    24     6     1    1
    25     7     2    2
    26     4    26    1
    27     1    25    1
    28     1    33    1
    29     2    37    1
    30    26    25   ar
    31    26    27   ar
    32    25    29   ar
    33    33    37    2
    34    33    34    1
    35    37    36    1
    36    30    27    1
    37    27    28   ar
    38    29    28   ar
    39    29     5    1
    40    42    41   ar
    41    34     5    2
    42    34    35    1
    43    28    31    1
    44    40    41    1
    45    40    39    1
    46    36    39    1
    47    36    35    2
    48    41    43   ar
    49    35    38    1
    50    31    32    1
