@<TRIPOS>MOLECULE
1h5f_HEM_A_1.pdb
 43 50 0 0 0
SMALL
GASTEIGER

@<TRIPOS>ATOM
      1 FE          3.2790    1.9990   11.6600 Fe    350  HEM350      0.0000
      2  CHA        0.0580    3.1840   11.9080 C.2   350  HEM350      0.0000
      3  CHB        2.5040    0.5030    8.7170 C.2   350  HEM350      0.0000
      4  CHC        6.5100    0.9700   11.3790 C.2   350  HEM350      0.0000
      5  CHD        4.1150    3.8010   14.4450 C.2   350  HEM350      0.0000
      6  NA         1.6300    1.9360   10.5040 N.ar  350  HEM350      0.0000
      7  C1A        0.3820    2.4640   10.7590 C.ar  350  HEM350      0.0000
      8  C2A       -0.5680    2.0440    9.7380 C.ar  350  HEM350      0.0000
      9  C3A        0.1120    1.2780    8.8580 C.ar  350  HEM350      0.0000
     10  C4A        1.4760    1.2240    9.3270 C.ar  350  HEM350      0.0000
     11  CMA       -0.4740    0.5480    7.6540 C.3   350  HEM350      0.0000
     12  CAA       -2.0590    2.3400    9.6500 C.3   350  HEM350      0.0000
     13  CBA       -2.3180    3.7040    9.0360 C.3   350  HEM350      0.0000
     14  CGA       -3.7950    3.9880    8.8290 C.2   350  HEM350      0.0000
     15  O1A       -4.1490    5.1700    8.6410 O.co2 350  HEM350      0.0000
     16  O2A       -4.5990    3.0350    8.8470 O.co2 350  HEM350      0.0000
     17  NB         4.3040    0.9520   10.3200 N.2   350  HEM350      0.0000
     18  C1B        3.8090    0.3690    9.1720 C.2   350  HEM350      0.0000
     19  C2B        4.8030   -0.4620    8.5530 C.2   350  HEM350      0.0000
     20  C3B        5.9140   -0.4270    9.3280 C.2   350  HEM350      0.0000
     21  C4B        5.6140    0.5060   10.4060 C.2   350  HEM350      0.0000
     22  CMB        4.6520   -1.1900    7.2180 C.3   350  HEM350      0.0000
     23  CAB        7.0840   -1.1370    9.0550 C.3   350  HEM350      0.0000
     24  CBB        7.9980   -1.7180   10.0120 C.3   350  HEM350      0.0000
     25  NC         4.9860    2.3940   12.6640 N.ar  350  HEM350      0.0000
     26  C1C        6.2480    1.8840   12.3980 C.ar  350  HEM350      0.0000
     27  C2C        7.2500    2.4920   13.2590 C.ar  350  HEM350      0.0000
     28  C3C        6.5740    3.3200   14.1220 C.ar  350  HEM350      0.0000
     29  C4C        5.1750    3.2240   13.7540 C.ar  350  HEM350      0.0000
     30  CMC        8.7620    2.3190   13.0850 C.3   350  HEM350      0.0000
     31  CAC        7.0710    4.1710   15.1250 C.3   350  HEM350      0.0000
     32  CBC        8.2180    3.8960   15.9470 C.3   350  HEM350      0.0000
     33  ND         2.2770    3.1950   12.9410 N.2   350  HEM350      0.0000
     34  C1D        2.7710    3.7460   14.1000 C.2   350  HEM350      0.0000
     35  C2D        1.7060    4.2610   14.8960 C.2   350  HEM350      0.0000
     36  C3D        0.5560    4.1450   14.1930 C.2   350  HEM350      0.0000
     37  C4D        0.9270    3.5010   12.9520 C.2   350  HEM350      0.0000
     38  CMD        1.8460    4.8010   16.3070 C.3   350  HEM350      0.0000
     39  CAD       -0.8240    4.6360   14.6260 C.3   350  HEM350      0.0000
     40  CBD       -1.0100    6.0720   14.1720 C.3   350  HEM350      0.0000
     41  CGD       -2.4000    6.6050   14.4450 C.2   350  HEM350      0.0000
     42  O1D       -2.6660    7.7610   14.0600 O.co2 350  HEM350      0.0000
     43  O2D       -3.2160    5.8750   15.0420 O.co2 350  HEM350      0.0000
@<TRIPOS>BOND
     1    22    19    1
     2    11     9    1
     3    19    18    1
     4    19    20    2
     5    15    14   ar
     6     3    18    1
     7     3    10    2
     8    14    16   ar
     9    14    13    1
    10     9    10   ar
    11     9     8   ar
    12    13    12    1
    13    23    20    1
    14    23    24    1
    15    18    17    2
    16    10     6   ar
    17    20    21    1
    18    12     8    1
    19     8     7   ar
    20    17    21    1
    21    17     1    1
    22    21     4    2
    23     6     7   ar
    24     6     1    1
    25     7     2    2
    26     4    26    1
    27     1    25    1
    28     1    33    1
    29     2    37    1
    30    26    25   ar
    31    26    27   ar
    32    25    29   ar
    33    33    37    2
    34    33    34    1
    35    37    36    1
    36    30    27    1
    37    27    28   ar
    38    29    28   ar
    39    29     5    1
    40    42    41   ar
    41    34     5    2
    42    34    35    1
    43    28    31    1
    44    40    41    1
    45    40    39    1
    46    36    39    1
    47    36    35    2
    48    41    43   ar
    49    35    38    1
    50    31    32    1
