@<TRIPOS>MOLECULE
1h5g_HEM_A_1.pdb
 43 50 0 0 0
SMALL
GASTEIGER

@<TRIPOS>ATOM
      1 FE          3.2560    1.9800   11.6600 Fe    350  HEM350      0.0000
      2  CHA        0.0470    3.1790   11.9040 C.2   350  HEM350      0.0000
      3  CHB        2.4770    0.4980    8.6890 C.2   350  HEM350      0.0000
      4  CHC        6.4750    0.9590   11.3970 C.2   350  HEM350      0.0000
      5  CHD        4.0960    3.7980   14.4620 C.2   350  HEM350      0.0000
      6  NA         1.6130    1.9110   10.5030 N.ar  350  HEM350      0.0000
      7  C1A        0.3670    2.4720   10.7480 C.ar  350  HEM350      0.0000
      8  C2A       -0.5790    2.0820    9.7130 C.ar  350  HEM350      0.0000
      9  C3A        0.0900    1.2990    8.8410 C.ar  350  HEM350      0.0000
     10  C4A        1.4590    1.2170    9.3140 C.ar  350  HEM350      0.0000
     11  CMA       -0.5270    0.5450    7.6610 C.3   350  HEM350      0.0000
     12  CAA       -2.0750    2.3730    9.6340 C.3   350  HEM350      0.0000
     13  CBA       -2.3430    3.7160    8.9720 C.3   350  HEM350      0.0000
     14  CGA       -3.8210    3.9990    8.7940 C.2   350  HEM350      0.0000
     15  O1A       -4.1790    5.1790    8.5980 O.co2 350  HEM350      0.0000
     16  O2A       -4.6230    3.0470    8.8390 O.co2 350  HEM350      0.0000
     17  NB         4.2720    0.9360   10.3120 N.2   350  HEM350      0.0000
     18  C1B        3.7890    0.3630    9.1500 C.2   350  HEM350      0.0000
     19  C2B        4.7900   -0.4560    8.5470 C.2   350  HEM350      0.0000
     20  C3B        5.9000   -0.4110    9.3260 C.2   350  HEM350      0.0000
     21  C4B        5.5870    0.5000   10.4120 C.2   350  HEM350      0.0000
     22  CMB        4.6170   -1.2280    7.2450 C.3   350  HEM350      0.0000
     23  CAB        7.0820   -1.0950    9.0620 C.3   350  HEM350      0.0000
     24  CBB        7.9340   -1.7320   10.0510 C.3   350  HEM350      0.0000
     25  NC         4.9570    2.3940   12.6750 N.ar  350  HEM350      0.0000
     26  C1C        6.2140    1.8810   12.4110 C.ar  350  HEM350      0.0000
     27  C2C        7.2210    2.4930   13.2640 C.ar  350  HEM350      0.0000
     28  C3C        6.5550    3.3420   14.1200 C.ar  350  HEM350      0.0000
     29  C4C        5.1480    3.2340   13.7650 C.ar  350  HEM350      0.0000
     30  CMC        8.7290    2.2750   13.0910 C.3   350  HEM350      0.0000
     31  CAC        7.0660    4.2130   15.1000 C.3   350  HEM350      0.0000
     32  CBC        8.1410    3.8990   15.9950 C.3   350  HEM350      0.0000
     33  ND         2.2670    3.1700   12.9470 N.2   350  HEM350      0.0000
     34  C1D        2.7560    3.7280   14.1150 C.2   350  HEM350      0.0000
     35  C2D        1.6900    4.2260   14.9180 C.2   350  HEM350      0.0000
     36  C3D        0.5420    4.1250   14.1960 C.2   350  HEM350      0.0000
     37  C4D        0.9090    3.4670   12.9610 C.2   350  HEM350      0.0000
     38  CMD        1.8380    4.6920   16.3590 C.3   350  HEM350      0.0000
     39  CAD       -0.8200    4.6460   14.6240 C.3   350  HEM350      0.0000
     40  CBD       -1.0220    6.0670   14.1340 C.3   350  HEM350      0.0000
     41  CGD       -2.4020    6.6140   14.4470 C.2   350  HEM350      0.0000
     42  O1D       -2.6670    7.7800   14.0880 O.co2 350  HEM350      0.0000
     43  O2D       -3.2190    5.8870   15.0490 O.co2 350  HEM350      0.0000
@<TRIPOS>BOND
     1    22    19    1
     2    11     9    1
     3    19    18    1
     4    19    20    2
     5    15    14   ar
     6     3    18    1
     7     3    10    2
     8    14    16   ar
     9    14    13    1
    10     9    10   ar
    11     9     8   ar
    12    13    12    1
    13    23    20    1
    14    23    24    1
    15    18    17    2
    16    10     6   ar
    17    20    21    1
    18    12     8    1
    19     8     7   ar
    20    17    21    1
    21    17     1    1
    22    21     4    2
    23     6     7   ar
    24     6     1    1
    25     7     2    2
    26     4    26    1
    27     1    25    1
    28     1    33    1
    29     2    37    1
    30    26    25   ar
    31    26    27   ar
    32    25    29   ar
    33    33    37    2
    34    33    34    1
    35    37    36    1
    36    30    27    1
    37    27    28   ar
    38    29    28   ar
    39    29     5    1
    40    42    41   ar
    41    34     5    2
    42    34    35    1
    43    28    31    1
    44    40    41    1
    45    40    39    1
    46    36    39    1
    47    36    35    2
    48    41    43   ar
    49    35    38    1
    50    31    32    1
