@<TRIPOS>MOLECULE
1h5h_HEM_A_1.pdb
 43 50 0 0 0
SMALL
GASTEIGER

@<TRIPOS>ATOM
      1 FE          3.2500    1.9730   11.6720 Fe    350  HEM350      0.0000
      2  CHA        0.0620    3.1990   11.8890 C.2   350  HEM350      0.0000
      3  CHB        2.4820    0.4460    8.7240 C.2   350  HEM350      0.0000
      4  CHC        6.4950    0.9590   11.3740 C.2   350  HEM350      0.0000
      5  CHD        4.1030    3.7740   14.4550 C.2   350  HEM350      0.0000
      6  NA         1.6210    1.9210   10.4950 N.ar  350  HEM350      0.0000
      7  C1A        0.3800    2.4820   10.7290 C.ar  350  HEM350      0.0000
      8  C2A       -0.5740    2.0450    9.7130 C.ar  350  HEM350      0.0000
      9  C3A        0.1040    1.2440    8.8530 C.ar  350  HEM350      0.0000
     10  C4A        1.4680    1.1890    9.3300 C.ar  350  HEM350      0.0000
     11  CMA       -0.4900    0.4680    7.6780 C.3   350  HEM350      0.0000
     12  CAA       -2.0720    2.3300    9.6150 C.3   350  HEM350      0.0000
     13  CBA       -2.3220    3.6940    8.9990 C.3   350  HEM350      0.0000
     14  CGA       -3.7970    4.0010    8.8170 C.2   350  HEM350      0.0000
     15  O1A       -4.1290    5.1820    8.5970 O.co2 350  HEM350      0.0000
     16  O2A       -4.6230    3.0680    8.8850 O.co2 350  HEM350      0.0000
     17  NB         4.2820    0.9200   10.3150 N.2   350  HEM350      0.0000
     18  C1B        3.7860    0.3050    9.1820 C.2   350  HEM350      0.0000
     19  C2B        4.7790   -0.5250    8.5620 C.2   350  HEM350      0.0000
     20  C3B        5.9090   -0.4280    9.3120 C.2   350  HEM350      0.0000
     21  C4B        5.6020    0.5150   10.3870 C.2   350  HEM350      0.0000
     22  CMB        4.5610   -1.3250    7.2790 C.3   350  HEM350      0.0000
     23  CAB        7.1100   -1.0680    9.0310 C.3   350  HEM350      0.0000
     24  CBB        7.9280   -1.7670   10.0120 C.3   350  HEM350      0.0000
     25  NC         4.9650    2.3530   12.6720 N.ar  350  HEM350      0.0000
     26  C1C        6.2310    1.8500   12.4100 C.ar  350  HEM350      0.0000
     27  C2C        7.2400    2.4720   13.2630 C.ar  350  HEM350      0.0000
     28  C3C        6.5540    3.3010   14.1180 C.ar  350  HEM350      0.0000
     29  C4C        5.1550    3.1870   13.7600 C.ar  350  HEM350      0.0000
     30  CMC        8.7550    2.3100   13.1070 C.3   350  HEM350      0.0000
     31  CAC        7.0490    4.1630   15.1090 C.3   350  HEM350      0.0000
     32  CBC        8.2410    3.9720   15.8770 C.3   350  HEM350      0.0000
     33  ND         2.2740    3.1800   12.9420 N.2   350  HEM350      0.0000
     34  C1D        2.7600    3.7330   14.1100 C.2   350  HEM350      0.0000
     35  C2D        1.6910    4.2450   14.9150 C.2   350  HEM350      0.0000
     36  C3D        0.5420    4.1260   14.2000 C.2   350  HEM350      0.0000
     37  C4D        0.9200    3.4860   12.9510 C.2   350  HEM350      0.0000
     38  CMD        1.8490    4.7540   16.3440 C.3   350  HEM350      0.0000
     39  CAD       -0.8420    4.6170   14.6310 C.3   350  HEM350      0.0000
     40  CBD       -1.0240    6.0600   14.1830 C.3   350  HEM350      0.0000
     41  CGD       -2.4170    6.6020   14.4490 C.2   350  HEM350      0.0000
     42  O1D       -2.6760    7.7660   14.0740 O.co2 350  HEM350      0.0000
     43  O2D       -3.2500    5.8740   15.0250 O.co2 350  HEM350      0.0000
@<TRIPOS>BOND
     1    22    19    1
     2    11     9    1
     3    19    18    1
     4    19    20    2
     5    15    14   ar
     6     3    18    1
     7     3    10    2
     8    14    16   ar
     9    14    13    1
    10     9    10   ar
    11     9     8   ar
    12    13    12    1
    13    23    20    1
    14    23    24    1
    15    18    17    2
    16    20    21    1
    17    10     6   ar
    18    12     8    1
    19     8     7   ar
    20    17    21    1
    21    17     1    1
    22    21     4    2
    23     6     7   ar
    24     6     1    1
    25     7     2    2
    26     4    26    1
    27     1    25    1
    28     1    33    1
    29     2    37    1
    30    26    25   ar
    31    26    27   ar
    32    25    29   ar
    33    33    37    2
    34    33    34    1
    35    37    36    1
    36    30    27    1
    37    27    28   ar
    38    29    28   ar
    39    29     5    1
    40    42    41   ar
    41    34     5    2
    42    34    35    1
    43    28    31    1
    44    40    41    1
    45    40    39    1
    46    36    39    1
    47    36    35    2
    48    41    43   ar
    49    35    38    1
    50    31    32    1
