@<TRIPOS>MOLECULE
1h5i_HEM_A_1.pdb
 43 50 0 0 0
SMALL
GASTEIGER

@<TRIPOS>ATOM
      1 FE          3.2610    2.0070   11.6720 Fe    350  HEM350      0.0000
      2  CHA        0.0680    3.2250   11.8870 C.2   350  HEM350      0.0000
      3  CHB        2.5080    0.5170    8.6980 C.2   350  HEM350      0.0000
      4  CHC        6.4930    0.9500   11.3810 C.2   350  HEM350      0.0000
      5  CHD        4.1040    3.7750   14.4570 C.2   350  HEM350      0.0000
      6  NA         1.6380    1.9580   10.4940 N.ar  350  HEM350      0.0000
      7  C1A        0.3890    2.5080   10.7320 C.ar  350  HEM350      0.0000
      8  C2A       -0.5640    2.0770    9.7210 C.ar  350  HEM350      0.0000
      9  C3A        0.1180    1.2780    8.8590 C.ar  350  HEM350      0.0000
     10  C4A        1.4890    1.2390    9.3180 C.ar  350  HEM350      0.0000
     11  CMA       -0.4700    0.4740    7.6980 C.3   350  HEM350      0.0000
     12  CAA       -2.0620    2.3470    9.6410 C.3   350  HEM350      0.0000
     13  CBA       -2.3260    3.6990    9.0120 C.3   350  HEM350      0.0000
     14  CGA       -3.8040    3.9790    8.8060 C.2   350  HEM350      0.0000
     15  O1A       -4.1530    5.1550    8.5880 O.co2 350  HEM350      0.0000
     16  O2A       -4.6140    3.0310    8.8530 O.co2 350  HEM350      0.0000
     17  NB         4.2860    0.9130   10.3270 N.2   350  HEM350      0.0000
     18  C1B        3.8050    0.3400    9.1690 C.2   350  HEM350      0.0000
     19  C2B        4.7990   -0.4960    8.5550 C.2   350  HEM350      0.0000
     20  C3B        5.9100   -0.4410    9.3260 C.2   350  HEM350      0.0000
     21  C4B        5.6020    0.4790   10.4110 C.2   350  HEM350      0.0000
     22  CMB        4.6160   -1.3130    7.2820 C.3   350  HEM350      0.0000
     23  CAB        7.0940   -1.1220    9.0530 C.3   350  HEM350      0.0000
     24  CBB        7.9470   -1.7420   10.0440 C.3   350  HEM350      0.0000
     25  NC         4.9730    2.3790   12.6620 N.ar  350  HEM350      0.0000
     26  C1C        6.2290    1.8570   12.4000 C.ar  350  HEM350      0.0000
     27  C2C        7.2340    2.4550   13.2660 C.ar  350  HEM350      0.0000
     28  C3C        6.5610    3.3010   14.1130 C.ar  350  HEM350      0.0000
     29  C4C        5.1640    3.2090   13.7460 C.ar  350  HEM350      0.0000
     30  CMC        8.7420    2.2450   13.1250 C.3   350  HEM350      0.0000
     31  CAC        7.0700    4.1740   15.0860 C.3   350  HEM350      0.0000
     32  CBC        8.2050    3.9010   15.9220 C.3   350  HEM350      0.0000
     33  ND         2.2730    3.1910   12.9450 N.2   350  HEM350      0.0000
     34  C1D        2.7610    3.7120   14.1250 C.2   350  HEM350      0.0000
     35  C2D        1.6940    4.2200   14.9390 C.2   350  HEM350      0.0000
     36  C3D        0.5470    4.1310   14.2040 C.2   350  HEM350      0.0000
     37  C4D        0.9230    3.5090   12.9510 C.2   350  HEM350      0.0000
     38  CMD        1.8550    4.7080   16.3760 C.3   350  HEM350      0.0000
     39  CAD       -0.8420    4.6240   14.6170 C.3   350  HEM350      0.0000
     40  CBD       -1.0110    6.0690   14.1920 C.3   350  HEM350      0.0000
     41  CGD       -2.4040    6.6050   14.4520 C.2   350  HEM350      0.0000
     42  O1D       -2.6620    7.7630   14.0740 O.co2 350  HEM350      0.0000
     43  O2D       -3.2390    5.8760   15.0270 O.co2 350  HEM350      0.0000
@<TRIPOS>BOND
     1    22    19    1
     2    11     9    1
     3    19    18    1
     4    19    20    2
     5    15    14   ar
     6     3    18    1
     7     3    10    2
     8    14    16   ar
     9    14    13    1
    10     9    10   ar
    11     9     8   ar
    12    13    12    1
    13    23    20    1
    14    23    24    1
    15    18    17    2
    16    10     6   ar
    17    20    21    1
    18    12     8    1
    19     8     7   ar
    20    17    21    1
    21    17     1    1
    22    21     4    2
    23     6     7   ar
    24     6     1    1
    25     7     2    2
    26     4    26    1
    27     1    25    1
    28     1    33    1
    29     2    37    1
    30    26    25   ar
    31    26    27   ar
    32    25    29   ar
    33    33    37    2
    34    33    34    1
    35    37    36    1
    36    30    27    1
    37    27    28   ar
    38    29    28   ar
    39    29     5    1
    40    42    41   ar
    41    28    31    1
    42    34     5    2
    43    34    35    1
    44    40    41    1
    45    40    39    1
    46    36    39    1
    47    36    35    2
    48    41    43   ar
    49    35    38    1
    50    31    32    1
