@<TRIPOS>MOLECULE
1h5j_HEM_A_1.pdb
 43 50 0 0 0
SMALL
GASTEIGER

@<TRIPOS>ATOM
      1 FE          3.2660    1.9750   11.6790 Fe    350  HEM350      0.0000
      2  CHA        0.0540    3.1960   11.8720 C.2   350  HEM350      0.0000
      3  CHB        2.5090    0.4980    8.6880 C.2   350  HEM350      0.0000
      4  CHC        6.5070    0.9780   11.3500 C.2   350  HEM350      0.0000
      5  CHD        4.1160    3.7980   14.4280 C.2   350  HEM350      0.0000
      6  NA         1.6250    1.9090   10.4930 N.ar  350  HEM350      0.0000
      7  C1A        0.3720    2.4550   10.7280 C.ar  350  HEM350      0.0000
      8  C2A       -0.5670    2.0270    9.7000 C.ar  350  HEM350      0.0000
      9  C3A        0.1240    1.2450    8.8390 C.ar  350  HEM350      0.0000
     10  C4A        1.4800    1.1980    9.3140 C.ar  350  HEM350      0.0000
     11  CMA       -0.4640    0.4430    7.6750 C.3   350  HEM350      0.0000
     12  CAA       -2.0640    2.3060    9.6010 C.3   350  HEM350      0.0000
     13  CBA       -2.3330    3.6720    8.9910 C.3   350  HEM350      0.0000
     14  CGA       -3.8110    3.9490    8.7990 C.2   350  HEM350      0.0000
     15  O1A       -4.1700    5.1240    8.5790 O.co2 350  HEM350      0.0000
     16  O2A       -4.6130    2.9950    8.8610 O.co2 350  HEM350      0.0000
     17  NB         4.2920    0.9360   10.3060 N.2   350  HEM350      0.0000
     18  C1B        3.8130    0.3700    9.1480 C.2   350  HEM350      0.0000
     19  C2B        4.8080   -0.4610    8.5410 C.2   350  HEM350      0.0000
     20  C3B        5.9130   -0.4160    9.3080 C.2   350  HEM350      0.0000
     21  C4B        5.6140    0.5220   10.3790 C.2   350  HEM350      0.0000
     22  CMB        4.6380   -1.2440    7.2420 C.3   350  HEM350      0.0000
     23  CAB        7.0760   -1.1320    9.0410 C.3   350  HEM350      0.0000
     24  CBB        7.9390   -1.7560   10.0240 C.3   350  HEM350      0.0000
     25  NC         4.9890    2.3840   12.6590 N.ar  350  HEM350      0.0000
     26  C1C        6.2490    1.8700   12.3880 C.ar  350  HEM350      0.0000
     27  C2C        7.2580    2.4660   13.2510 C.ar  350  HEM350      0.0000
     28  C3C        6.5770    3.3040   14.1100 C.ar  350  HEM350      0.0000
     29  C4C        5.1780    3.2130   13.7440 C.ar  350  HEM350      0.0000
     30  CMC        8.7650    2.2680   13.0950 C.3   350  HEM350      0.0000
     31  CAC        7.0730    4.1560   15.1060 C.3   350  HEM350      0.0000
     32  CBC        8.1870    3.8530   15.9660 C.3   350  HEM350      0.0000
     33  ND         2.2760    3.1880   12.9280 N.2   350  HEM350      0.0000
     34  C1D        2.7720    3.7500   14.0830 C.2   350  HEM350      0.0000
     35  C2D        1.7040    4.2770   14.8900 C.2   350  HEM350      0.0000
     36  C3D        0.5580    4.1450   14.1660 C.2   350  HEM350      0.0000
     37  C4D        0.9220    3.4920   12.9290 C.2   350  HEM350      0.0000
     38  CMD        1.8400    4.7910   16.3180 C.3   350  HEM350      0.0000
     39  CAD       -0.8200    4.6260   14.5880 C.3   350  HEM350      0.0000
     40  CBD       -0.9990    6.0760   14.1860 C.3   350  HEM350      0.0000
     41  CGD       -2.3850    6.6090   14.4820 C.2   350  HEM350      0.0000
     42  O1D       -2.6470    7.7780   14.1310 O.co2 350  HEM350      0.0000
     43  O2D       -3.2090    5.8700   15.0620 O.co2 350  HEM350      0.0000
@<TRIPOS>BOND
     1    22    19    1
     2    11     9    1
     3    19    18    1
     4    19    20    2
     5    15    14   ar
     6     3    18    1
     7     3    10    2
     8    14    16   ar
     9    14    13    1
    10     9    10   ar
    11     9     8   ar
    12    13    12    1
    13    23    20    1
    14    23    24    1
    15    18    17    2
    16    20    21    1
    17    10     6   ar
    18    12     8    1
    19     8     7   ar
    20    17    21    1
    21    17     1    1
    22    21     4    2
    23     6     7   ar
    24     6     1    1
    25     7     2    2
    26     4    26    1
    27     1    25    1
    28     1    33    1
    29     2    37    1
    30    26    25   ar
    31    26    27   ar
    32    25    29   ar
    33    33    37    2
    34    33    34    1
    35    37    36    1
    36    30    27    1
    37    27    28   ar
    38    29    28   ar
    39    29     5    1
    40    34     5    2
    41    34    35    1
    42    28    31    1
    43    42    41   ar
    44    36    39    1
    45    36    35    2
    46    40    41    1
    47    40    39    1
    48    41    43   ar
    49    35    38    1
    50    31    32    1
