@<TRIPOS>MOLECULE
1h5k_HEM_A_1.pdb
 43 50 0 0 0
SMALL
GASTEIGER

@<TRIPOS>ATOM
      1 FE          3.2590    1.9580   11.6860 Fe    350  HEM350      0.0000
      2  CHA        0.0640    3.1630   11.8890 C.2   350  HEM350      0.0000
      3  CHB        2.5170    0.4730    8.7100 C.2   350  HEM350      0.0000
      4  CHC        6.5190    0.9660   11.3540 C.2   350  HEM350      0.0000
      5  CHD        4.1160    3.7990   14.4230 C.2   350  HEM350      0.0000
      6  NA         1.6350    1.8870   10.5080 N.ar  350  HEM350      0.0000
      7  C1A        0.3840    2.4350   10.7460 C.ar  350  HEM350      0.0000
      8  C2A       -0.5580    2.0370    9.7150 C.ar  350  HEM350      0.0000
      9  C3A        0.1300    1.2530    8.8460 C.ar  350  HEM350      0.0000
     10  C4A        1.4890    1.1820    9.3290 C.ar  350  HEM350      0.0000
     11  CMA       -0.4740    0.5230    7.6530 C.3   350  HEM350      0.0000
     12  CAA       -2.0490    2.3500    9.6320 C.3   350  HEM350      0.0000
     13  CBA       -2.3110    3.7030    9.0010 C.3   350  HEM350      0.0000
     14  CGA       -3.7890    3.9970    8.8280 C.2   350  HEM350      0.0000
     15  O1A       -4.1340    5.1790    8.6290 O.co2 350  HEM350      0.0000
     16  O2A       -4.6020    3.0520    8.8830 O.co2 350  HEM350      0.0000
     17  NB         4.3160    0.9260   10.3050 N.2   350  HEM350      0.0000
     18  C1B        3.8250    0.3380    9.1610 C.2   350  HEM350      0.0000
     19  C2B        4.8070   -0.5090    8.5550 C.2   350  HEM350      0.0000
     20  C3B        5.9320   -0.4480    9.3100 C.2   350  HEM350      0.0000
     21  C4B        5.6400    0.5070   10.3790 C.2   350  HEM350      0.0000
     22  CMB        4.6090   -1.2900    7.2610 C.3   350  HEM350      0.0000
     23  CAB        7.1070   -1.1380    9.0270 C.3   350  HEM350      0.0000
     24  CBB        7.9420   -1.7720   10.0220 C.3   350  HEM350      0.0000
     25  NC         4.9850    2.3620   12.6690 N.ar  350  HEM350      0.0000
     26  C1C        6.2470    1.8560   12.3980 C.ar  350  HEM350      0.0000
     27  C2C        7.2580    2.4750   13.2410 C.ar  350  HEM350      0.0000
     28  C3C        6.5790    3.3210   14.0970 C.ar  350  HEM350      0.0000
     29  C4C        5.1730    3.2060   13.7420 C.ar  350  HEM350      0.0000
     30  CMC        8.7580    2.2600   13.0540 C.3   350  HEM350      0.0000
     31  CAC        7.0680    4.1880   15.0910 C.3   350  HEM350      0.0000
     32  CBC        8.1940    3.8930   15.9290 C.3   350  HEM350      0.0000
     33  ND         2.2810    3.1860   12.9160 N.2   350  HEM350      0.0000
     34  C1D        2.7720    3.7510   14.0780 C.2   350  HEM350      0.0000
     35  C2D        1.6990    4.2380   14.9000 C.2   350  HEM350      0.0000
     36  C3D        0.5530    4.1160   14.1850 C.2   350  HEM350      0.0000
     37  C4D        0.9280    3.4780   12.9340 C.2   350  HEM350      0.0000
     38  CMD        1.8430    4.6930   16.3480 C.3   350  HEM350      0.0000
     39  CAD       -0.8300    4.6010   14.6180 C.3   350  HEM350      0.0000
     40  CBD       -1.0250    6.0430   14.1780 C.3   350  HEM350      0.0000
     41  CGD       -2.4120    6.5810   14.4780 C.2   350  HEM350      0.0000
     42  O1D       -2.6810    7.7480   14.1170 O.co2 350  HEM350      0.0000
     43  O2D       -3.2300    5.8410   15.0670 O.co2 350  HEM350      0.0000
@<TRIPOS>BOND
     1    22    19    1
     2    11     9    1
     3    19    18    1
     4    19    20    2
     5    15    14   ar
     6     3    18    1
     7     3    10    2
     8    14    16   ar
     9    14    13    1
    10     9    10   ar
    11     9     8   ar
    12    13    12    1
    13    23    20    1
    14    23    24    1
    15    18    17    2
    16    20    21    1
    17    10     6   ar
    18    12     8    1
    19     8     7   ar
    20    17    21    1
    21    17     1    1
    22    21     4    2
    23     6     7   ar
    24     6     1    1
    25     7     2    2
    26     4    26    1
    27     1    25    1
    28     1    33    1
    29     2    37    1
    30    26    25   ar
    31    26    27   ar
    32    25    29   ar
    33    33    37    2
    34    33    34    1
    35    37    36    1
    36    30    27    1
    37    27    28   ar
    38    29    28   ar
    39    29     5    1
    40    34     5    2
    41    34    35    1
    42    28    31    1
    43    42    41   ar
    44    40    41    1
    45    40    39    1
    46    36    39    1
    47    36    35    2
    48    41    43   ar
    49    35    38    1
    50    31    32    1
