@<TRIPOS>MOLECULE
1h5l_HEM_A_1.pdb
 43 50 0 0 0
SMALL
GASTEIGER

@<TRIPOS>ATOM
      1 FE          3.2660    1.9510   11.6900 Fe    350  HEM350      0.0000
      2  CHA        0.0660    3.2050   11.8820 C.2   350  HEM350      0.0000
      3  CHB        2.4770    0.4760    8.7010 C.2   350  HEM350      0.0000
      4  CHC        6.4910    0.9270   11.3560 C.2   350  HEM350      0.0000
      5  CHD        4.1150    3.7530   14.4400 C.2   350  HEM350      0.0000
      6  NA         1.6190    1.9100   10.5000 N.ar  350  HEM350      0.0000
      7  C1A        0.3750    2.4780   10.7330 C.ar  350  HEM350      0.0000
      8  C2A       -0.5780    2.0600    9.7200 C.ar  350  HEM350      0.0000
      9  C3A        0.0920    1.2640    8.8510 C.ar  350  HEM350      0.0000
     10  C4A        1.4580    1.1970    9.3220 C.ar  350  HEM350      0.0000
     11  CMA       -0.5150    0.5320    7.6540 C.3   350  HEM350      0.0000
     12  CAA       -2.0760    2.3590    9.6120 C.3   350  HEM350      0.0000
     13  CBA       -2.3350    3.7180    8.9890 C.3   350  HEM350      0.0000
     14  CGA       -3.8100    3.9890    8.7610 C.2   350  HEM350      0.0000
     15  O1A       -4.1670    5.1600    8.5290 O.co2 350  HEM350      0.0000
     16  O2A       -4.6100    3.0330    8.8040 O.co2 350  HEM350      0.0000
     17  NB         4.2910    0.8840   10.3100 N.2   350  HEM350      0.0000
     18  C1B        3.7920    0.3130    9.1590 C.2   350  HEM350      0.0000
     19  C2B        4.7740   -0.5330    8.5410 C.2   350  HEM350      0.0000
     20  C3B        5.9010   -0.4770    9.3000 C.2   350  HEM350      0.0000
     21  C4B        5.5990    0.4530   10.3890 C.2   350  HEM350      0.0000
     22  CMB        4.5390   -1.3220    7.2570 C.3   350  HEM350      0.0000
     23  CAB        7.0750   -1.1690    9.0350 C.3   350  HEM350      0.0000
     24  CBB        7.9460   -1.7880   10.0020 C.3   350  HEM350      0.0000
     25  NC         4.9850    2.3460   12.6560 N.ar  350  HEM350      0.0000
     26  C1C        6.2370    1.8410   12.3830 C.ar  350  HEM350      0.0000
     27  C2C        7.2530    2.4610   13.2300 C.ar  350  HEM350      0.0000
     28  C3C        6.5810    3.2920   14.0910 C.ar  350  HEM350      0.0000
     29  C4C        5.1730    3.1770   13.7370 C.ar  350  HEM350      0.0000
     30  CMC        8.7650    2.2600   13.0760 C.3   350  HEM350      0.0000
     31  CAC        7.0930    4.1340   15.0850 C.3   350  HEM350      0.0000
     32  CBC        8.2490    3.8420   15.8910 C.3   350  HEM350      0.0000
     33  ND         2.2710    3.1550   12.9370 N.2   350  HEM350      0.0000
     34  C1D        2.7650    3.6960   14.1030 C.2   350  HEM350      0.0000
     35  C2D        1.7110    4.2130   14.9170 C.2   350  HEM350      0.0000
     36  C3D        0.5570    4.1170   14.1990 C.2   350  HEM350      0.0000
     37  C4D        0.9260    3.4820   12.9360 C.2   350  HEM350      0.0000
     38  CMD        1.9020    4.7150   16.3440 C.3   350  HEM350      0.0000
     39  CAD       -0.8240    4.6140   14.6350 C.3   350  HEM350      0.0000
     40  CBD       -1.0280    6.0530   14.1980 C.3   350  HEM350      0.0000
     41  CGD       -2.4240    6.5820   14.4770 C.2   350  HEM350      0.0000
     42  O1D       -2.6860    7.7450   14.1140 O.co2 350  HEM350      0.0000
     43  O2D       -3.2550    5.8480   15.0510 O.co2 350  HEM350      0.0000
@<TRIPOS>BOND
     1    22    19    1
     2    11     9    1
     3    15    14   ar
     4    19    18    1
     5    19    20    2
     6     3    18    1
     7     3    10    2
     8    14    16   ar
     9    14    13    1
    10     9    10   ar
    11     9     8   ar
    12    13    12    1
    13    23    20    1
    14    23    24    1
    15    18    17    2
    16    20    21    1
    17    10     6   ar
    18    12     8    1
    19     8     7   ar
    20    17    21    1
    21    17     1    1
    22    21     4    2
    23     6     7   ar
    24     6     1    1
    25     7     2    2
    26     4    26    1
    27     1    25    1
    28     1    33    1
    29     2    37    1
    30    26    25   ar
    31    26    27   ar
    32    25    29   ar
    33    37    33    2
    34    37    36    1
    35    33    34    1
    36    30    27    1
    37    27    28   ar
    38    29    28   ar
    39    29     5    1
    40    28    31    1
    41    34     5    2
    42    34    35    1
    43    42    41   ar
    44    40    41    1
    45    40    39    1
    46    36    39    1
    47    36    35    2
    48    41    43   ar
    49    35    38    1
    50    31    32    1
