@<TRIPOS>MOLECULE
1h5m_HEM_A_1.pdb
 43 50 0 0 0
SMALL
GASTEIGER

@<TRIPOS>ATOM
      1 FE          3.1920    2.0370   11.6160 Fe    350  HEM350      0.0000
      2  CHA       -0.0230    3.2190   11.8430 C.2   350  HEM350      0.0000
      3  CHB        2.4310    0.5080    8.6670 C.2   350  HEM350      0.0000
      4  CHC        6.4290    1.0190   11.3230 C.2   350  HEM350      0.0000
      5  CHD        4.0170    3.7930   14.3970 C.2   350  HEM350      0.0000
      6  NA         1.5540    1.9530   10.4580 N.ar  350  HEM350      0.0000
      7  C1A        0.2970    2.4930   10.6980 C.ar  350  HEM350      0.0000
      8  C2A       -0.6460    2.0630    9.6780 C.ar  350  HEM350      0.0000
      9  C3A        0.0410    1.2920    8.8030 C.ar  350  HEM350      0.0000
     10  C4A        1.4060    1.2410    9.2770 C.ar  350  HEM350      0.0000
     11  CMA       -0.5540    0.5480    7.6060 C.3   350  HEM350      0.0000
     12  CAA       -2.1450    2.3520    9.5820 C.3   350  HEM350      0.0000
     13  CBA       -2.3780    3.7050    8.9350 C.3   350  HEM350      0.0000
     14  CGA       -3.8480    4.0170    8.7190 C.2   350  HEM350      0.0000
     15  O1A       -4.1670    5.1920    8.4580 O.co2 350  HEM350      0.0000
     16  O2A       -4.6810    3.0950    8.7980 O.co2 350  HEM350      0.0000
     17  NB         4.2250    0.9760   10.2590 N.2   350  HEM350      0.0000
     18  C1B        3.7380    0.3660    9.1260 C.2   350  HEM350      0.0000
     19  C2B        4.7400   -0.4700    8.5270 C.2   350  HEM350      0.0000
     20  C3B        5.8610   -0.3870    9.2830 C.2   350  HEM350      0.0000
     21  C4B        5.5480    0.5590   10.3440 C.2   350  HEM350      0.0000
     22  CMB        4.5560   -1.3090    7.2680 C.3   350  HEM350      0.0000
     23  CAB        7.0340   -1.0930    9.0240 C.3   350  HEM350      0.0000
     24  CBB        7.9030   -1.7000   10.0160 C.3   350  HEM350      0.0000
     25  NC         4.9030    2.4170   12.6110 N.ar  350  HEM350      0.0000
     26  C1C        6.1630    1.9080   12.3540 C.ar  350  HEM350      0.0000
     27  C2C        7.1580    2.5220   13.2220 C.ar  350  HEM350      0.0000
     28  C3C        6.4740    3.3500   14.0760 C.ar  350  HEM350      0.0000
     29  C4C        5.0800    3.2370   13.7020 C.ar  350  HEM350      0.0000
     30  CMC        8.6670    2.3540   13.0700 C.3   350  HEM350      0.0000
     31  CAC        6.9640    4.2000   15.0820 C.3   350  HEM350      0.0000
     32  CBC        8.1200    3.9710   15.9080 C.3   350  HEM350      0.0000
     33  ND         2.1900    3.2180   12.8840 N.2   350  HEM350      0.0000
     34  C1D        2.6730    3.7480   14.0600 C.2   350  HEM350      0.0000
     35  C2D        1.6040    4.2680   14.8700 C.2   350  HEM350      0.0000
     36  C3D        0.4560    4.1630   14.1460 C.2   350  HEM350      0.0000
     37  C4D        0.8370    3.5250   12.8950 C.2   350  HEM350      0.0000
     38  CMD        1.7570    4.7780   16.2960 C.3   350  HEM350      0.0000
     39  CAD       -0.9260    4.6600   14.5570 C.3   350  HEM350      0.0000
     40  CBD       -1.1000    6.1040   14.1190 C.3   350  HEM350      0.0000
     41  CGD       -2.4850    6.6540   14.4010 C.2   350  HEM350      0.0000
     42  O1D       -2.7220    7.8310   14.0600 O.co2 350  HEM350      0.0000
     43  O2D       -3.3310    5.9190   14.9530 O.co2 350  HEM350      0.0000
@<TRIPOS>BOND
     1    22    19    1
     2    11     9    1
     3    15    14   ar
     4    19    18    1
     5    19    20    2
     6     3    18    1
     7     3    10    2
     8    14    16   ar
     9    14    13    1
    10     9    10   ar
    11     9     8   ar
    12    13    12    1
    13    23    20    1
    14    23    24    1
    15    18    17    2
    16    10     6   ar
    17    20    21    1
    18    12     8    1
    19     8     7   ar
    20    17    21    1
    21    17     1    1
    22    21     4    2
    23     6     7   ar
    24     6     1    1
    25     7     2    2
    26     4    26    1
    27     1    25    1
    28     1    33    1
    29     2    37    1
    30    26    25   ar
    31    26    27   ar
    32    25    29   ar
    33    33    37    2
    34    33    34    1
    35    37    36    1
    36    30    27    1
    37    27    28   ar
    38    29    28   ar
    39    29     5    1
    40    34     5    2
    41    34    35    1
    42    42    41   ar
    43    28    31    1
    44    40    41    1
    45    40    39    1
    46    36    39    1
    47    36    35    2
    48    41    43   ar
    49    35    38    1
    50    31    32    1
