@<TRIPOS>MOLECULE
1h5n_PGD_A_1.pdb
 47 52 0 0 0
SMALL
GASTEIGER

@<TRIPOS>ATOM
      1  PB        37.2680   51.4760   35.2800 P.3   1782  PGD1782     0.2189
      2  O1B       38.5810   51.1560   36.2820 O.3   1782  PGD1782    -0.4371
      3  O2B       35.9700   52.3310   35.9310 O.2   1782  PGD1782    -0.5170
      4  O3B       36.7190   50.0310   34.7420 O.3   1782  PGD1782    -0.2703
      5  O3A       35.6340   47.8420   33.8400 O.3   1782  PGD1782    -0.3109
      6  PA        35.8750   49.5190   33.4340 P.3   1782  PGD1782     0.2189
      7  O1A       36.9830   49.5610   32.0980 O.2   1782  PGD1782    -0.5170
      8  O2A       34.4850   50.3960   33.2400 O.3   1782  PGD1782    -0.4371
      9  O5'       37.8170   52.2050   33.7850 O.3   1782  PGD1782    -0.3112
     10  C5'       37.3700   53.5130   33.6450 C.3   1782  PGD1782     0.1813
     11  C4'       38.5540   54.3090   33.0500 C.3   1782  PGD1782     0.1799
     12  O4'       38.0130   55.5260   32.5340 O.3   1782  PGD1782    -0.3326
     13  C3'       39.5490   54.6520   34.1290 C.3   1782  PGD1782     0.2158
     14  O3'       40.8500   54.3050   33.7650 O.3   1782  PGD1782    -0.2175
     15  C2'       39.3920   56.1740   34.2500 C.3   1782  PGD1782     0.2310
     16  O2'       40.5340   56.8760   34.5810 O.3   1782  PGD1782    -0.2158
     17  C1'       38.9370   56.5530   32.8560 C.3   1782  PGD1782     0.2293
     18  N9        38.1810   57.8150   32.7820 N.pl3 1782  PGD1782    -0.2354
     19  C8        37.2990   58.3420   33.6930 C.3   1782  PGD1782     0.2246
     20  N7        36.7370   59.4890   33.2330 N.2   1782  PGD1782    -0.2322
     21  C5        37.3220   59.6920   32.0220 C.2   1782  PGD1782     0.2182
     22  C6        37.1490   60.7140   31.0910 C.1   1782  PGD1782     0.2372
     23  O6        36.4000   61.6600   31.2610 O.2   1782  PGD1782    -0.2069
     24  N1        37.8380   60.6670   29.9030 N.2   1782  PGD1782    -0.2485
     25  C2        38.6860   59.6060   29.6590 C.1   1782  PGD1782     0.2531
     26  N2        39.3330   59.6020   28.4160 N.pl3 1782  PGD1782    -0.0226
     27  N3        38.8530   58.5950   30.5840 N.2   1782  PGD1782    -0.3074
     28  C4        38.1590   58.6720   31.7470 C.2   1782  PGD1782     0.2300
     29  C10       34.5380   47.6760   34.7280 C.3   1782  PGD1782     0.1837
     30  C11       34.0140   46.2300   34.5010 C.3   1782  PGD1782     0.1762
     31  O11       34.9940   45.3380   35.0060 O.3   1782  PGD1782    -0.3271
     32  C12       32.6230   46.0300   35.0760 C.2   1782  PGD1782     0.0473
     33  S12       31.3770   47.3590   35.0770 S.3   1782  PGD1782    -0.0526
     34  C13       32.2550   44.8580   35.6510 C.2   1782  PGD1782     0.0449
     35  S13       30.6700   44.5990   36.4800 S.3   1782  PGD1782    -0.0530
     36  C14       33.2370   43.7210   35.6710 C.3   1782  PGD1782     0.1850
     37  N15       33.6040   43.4070   37.0690 N.2   1782  PGD1782    -0.2411
     38  C16       34.4700   42.2620   37.2430 C.2   1782  PGD1782     0.2467
     39  C17       34.4050   41.3120   38.2510 C.1   1782  PGD1782     0.2441
     40  O17       33.5490   41.2780   39.1350 O.2   1782  PGD1782    -0.2063
     41  N18       35.3160   40.3170   38.2480 N.2   1782  PGD1782    -0.2474
     42  C19       36.2550   40.2110   37.2810 C.1   1782  PGD1782     0.2608
     43  N19       37.2100   39.1530   37.3060 N.pl3 1782  PGD1782    -0.0220
     44  N20       36.3520   41.1160   36.2940 N.2   1782  PGD1782    -0.2682
     45  C21       35.4730   42.1440   36.2650 C.1   1782  PGD1782     0.1293
     46  N22       35.5520   43.0700   35.1890 N.2   1782  PGD1782    -0.1763
     47  C23       34.4910   44.0130   34.8360 C.3   1782  PGD1782     0.2573
@<TRIPOS>BOND
     1    26    25    1
     2    25    24    2
     3    25    27    2
     4    24    22    2
     5    27    28    2
     6    22    23    2
     7    22    21    1
     8    28    21    1
     9    28    18    1
    10    21    20    2
    11     7     6    2
    12    12    17    1
    13    12    11    1
    14    18    17    1
    15    18    19    1
    16    17    15    1
    17    11    10    1
    18    11    13    1
    19    20    19    1
    20     8     6    1
    21     6     5    1
    22     6     4    1
    23    10     9    1
    24    14    13    1
    25     9     1    1
    26     5    29    1
    27    13    15    1
    28    15    16    1
    29    30    29    1
    30    30    31    1
    31    30    32    1
    32     4     1    1
    33    47    31    1
    34    47    46    1
    35    47    36    1
    36    32    33    1
    37    32    34    2
    38    46    45    2
    39     1     3    2
    40     1     2    1
    41    34    36    1
    42    34    35    1
    43    36    37    1
    44    45    44    2
    45    45    38    1
    46    44    42    2
    47    37    38    2
    48    38    39    1
    49    42    43    1
    50    42    41    2
    51    41    39    2
    52    39    40    2
