@<TRIPOS>MOLECULE
1h5q_NAP_A_1.pdb
 48 52 0 0 0
SMALL
GASTEIGER

@<TRIPOS>ATOM
      1  PA        35.0150   10.4130   91.8130 P.3   263  NAP263      0.2189
      2  O1A       35.5340    9.4650   92.8290 O.3   263  NAP263     -0.4371
      3  O2A       35.0240    9.9320   90.3450 O.2   263  NAP263     -0.5170
      4  O5B       35.4390   11.9430   92.0650 O.3   263  NAP263     -0.3112
      5  C5B       35.3840   12.4380   93.3870 C.3   263  NAP263      0.1813
      6  C4B       36.2900   13.6540   93.4560 C.3   263  NAP263      0.1820
      7  O4B       36.3610   14.2420   94.7300 O.3   263  NAP263     -0.3136
      8  C3B       37.7150   13.3160   93.0900 C.3   263  NAP263      0.2157
      9  O3B       37.7740   13.8990   91.8360 O.3   263  NAP263     -0.2175
     10  C2B       38.6300   14.0440   94.0510 C.3   263  NAP263      0.2314
     11  O2B       39.4190   15.0470   93.4660 O.3   263  NAP263     -0.2630
     12  C1B       37.6700   14.7200   94.9820 C.3   263  NAP263      0.3158
     13  N9A       38.0700   14.4140   96.3520 N.pl3 263  NAP263     -0.1439
     14  C8A       38.1870   13.2040   96.9890 C.3   263  NAP263      0.3377
     15  N7A       38.5800   13.4530   98.2630 N.2   263  NAP263     -0.2095
     16  C5A       38.7140   14.7950   98.4290 C.2   263  NAP263      0.2526
     17  C6A       39.0860   15.6100   99.4970 C.2   263  NAP263      0.4393
     18  N6A       39.4810   15.0870  100.6570 N.pl3 263  NAP263      0.2180
     19  N1A       39.1260   16.9840   99.3210 N.2   263  NAP263      0.0021
     20  C2A       38.8000   17.5510   98.1040 C.3   263  NAP263      0.5254
     21  N3A       38.4320   16.7400   97.0520 N.2   263  NAP263     -0.0055
     22  C4A       38.3930   15.3970   97.2250 C.2   263  NAP263      0.3518
     23  O3        33.4900   10.5910   92.2520 O.3   263  NAP263     -0.2703
     24  PN        32.1960   10.6080   91.2890 P.3   263  NAP263      0.2189
     25  O1N       31.8040    9.1960   91.0500 O.3   263  NAP263     -0.4371
     26  O2N       32.4730   11.4980   90.1380 O.2   263  NAP263     -0.5170
     27  O5D       31.0870   11.2870   92.2580 O.3   263  NAP263     -0.3112
     28  C5D       31.1540   12.6380   92.6950 C.3   263  NAP263      0.1813
     29  C4D       30.2000   12.9780   93.8580 C.3   263  NAP263      0.1799
     30  O4D       28.8600   12.6030   93.5890 O.3   263  NAP263     -0.3327
     31  C3D       30.5640   12.2700   95.1540 C.3   263  NAP263      0.2158
     32  O3D       30.1220   13.0390   96.2500 O.3   263  NAP263     -0.2175
     33  C2D       29.7240   11.0180   95.0790 C.3   263  NAP263      0.2309
     34  O2D       29.5070   10.4300   96.3400 O.3   263  NAP263     -0.2158
     35  C1D       28.4430   11.5780   94.4840 C.3   263  NAP263      0.2263
     36  N1N       27.6550   10.5200   93.8200 N.pl3 263  NAP263     -0.2787
     37  C2N       28.2080    9.7200   92.8480 C.3   263  NAP263      0.1244
     38  C3N       27.4240    8.7290   92.2480 C.2   263  NAP263      0.0544
     39  C7N       27.9690    7.8080   91.1860 C.2   263  NAP263      0.2818
     40  O7N       27.1190    6.8330   90.6220 O.2   263  NAP263     -0.2670
     41  N7N       29.2350    7.9160   90.7970 N.am  263  NAP263     -0.0839
     42  C4N       26.0990    8.5760   92.6340 C.2   263  NAP263      0.0033
     43  C5N       25.5500    9.3880   93.6170 C.2   263  NAP263      0.0157
     44  C6N       26.3490   10.3600   94.2000 C.2   263  NAP263      0.0633
     45  P2B       40.8770   14.6120   92.9580 P.3   263  NAP263      0.5328
     46  O1X       41.4560   13.5200   93.7810 O.3   263  NAP263     -0.1145
     47  O2X       41.8530   15.7700   92.6810 O.3   263  NAP263     -0.1145
     48  O3X       40.5810   13.9980   91.5980 O.2   263  NAP263     -0.2224
@<TRIPOS>BOND
     1    26    24    2
     2     3     1    2
     3    40    39    2
     4    41    39   am
     5    25    24    1
     6    39    38    1
     7    24    23    1
     8    24    27    1
     9    48    45    2
    10     1     4    1
    11     1    23    1
    12     1     2    1
    13     9     8    1
    14     4     5    1
    15    38    42    2
    16    38    37    1
    17    27    28    1
    18    42    43    1
    19    47    45    1
    20    28    29    1
    21    37    36    1
    22    45    11    1
    23    45    46    1
    24     8     6    1
    25     8    10    1
    26     5     6    1
    27     6     7    1
    28    11    10    1
    29    30    29    1
    30    30    35    1
    31    43    44    2
    32    36    44    1
    33    36    35    1
    34    29    31    1
    35    10    12    1
    36    35    33    1
    37     7    12    1
    38    12    13    1
    39    33    31    1
    40    33    34    1
    41    31    32    1
    42    13    14    1
    43    13    22    1
    44    14    15    1
    45    21    22    2
    46    21    20    1
    47    22    16    1
    48    20    19    1
    49    15    16    2
    50    16    17    1
    51    19    17    2
    52    17    18    1
