@<TRIPOS>MOLECULE
1h5r_G1P_A_1.pdb
 16 16 0 0 0
SMALL
GASTEIGER

@<TRIPOS>ATOM
      1  C1        57.0330    5.4380   52.7980 C.3   1294  G1P1294     0.2781
      2  C2        58.1660    6.3580   52.3770 C.3   1294  G1P1294     0.2410
      3  C3        57.8900    7.8080   51.9520 C.3   1294  G1P1294     0.2198
      4  C4        56.5620    8.0520   51.1250 C.3   1294  G1P1294     0.2144
      5  C5        55.4610    7.1700   51.7610 C.3   1294  G1P1294     0.1835
      6  C6        54.2370    7.0070   50.8760 C.3   1294  G1P1294     0.2142
      7  O1        57.1730    5.1510   54.2130 O.3   1294  G1P1294    -0.2416
      8  O2        59.1750    6.3390   53.3810 O.3   1294  G1P1294    -0.2149
      9  O3        59.2180    7.8710   51.3960 O.3   1294  G1P1294    -0.2174
     10  O4        55.9360    9.3960   50.9610 O.3   1294  G1P1294    -0.2176
     11  O5        55.7570    5.8530   52.2700 O.3   1294  G1P1294    -0.3253
     12  O6        53.3890    6.2420   51.7250 O.3   1294  G1P1294    -0.2176
     13  P         58.4880    4.7060   54.8730 P.3   1294  G1P1294     0.5346
     14  O1P       59.1200    5.8830   55.5800 O.3   1294  G1P1294    -0.1145
     15  O2P       59.4740    4.1400   53.8790 O.2   1294  G1P1294    -0.2223
     16  O3P       58.2700    3.6330   55.9070 O.3   1294  G1P1294    -0.1145
@<TRIPOS>BOND
     1     6    12    1
     2     6     5    1
     3    10     4    1
     4     4     5    1
     5     4     3    1
     6     9     3    1
     7     5    11    1
     8     3     2    1
     9    11     1    1
    10     2     1    1
    11     2     8    1
    12     1     7    1
    13    15    13    2
    14     7    13    1
    15    13    14    1
    16    13    16    1
