@<TRIPOS>MOLECULE
1h5r_THM_A_1.pdb
 17 18 0 0 0
SMALL
GASTEIGER

@<TRIPOS>ATOM
      1  O5'       36.2510    5.4710   37.6840 O.3   1292  THM1292    -0.2176
      2  C5'       37.5520    5.0270   38.0090 C.3   1292  THM1292     0.2141
      3  C4'       37.6960    4.4720   39.4280 C.3   1292  THM1292     0.1802
      4  O4'       37.3290    3.1120   39.3790 O.3   1292  THM1292    -0.3338
      5  C3'       39.2140    4.3890   39.5940 C.3   1292  THM1292     0.1858
      6  O3'       39.4930    4.5390   40.9760 O.3   1292  THM1292    -0.2203
      7  C2'       39.6070    2.9770   39.1620 C.3   1292  THM1292     0.0874
      8  C1'       38.3800    2.1700   39.5360 C.3   1292  THM1292     0.2090
      9  N1        38.0710    0.9770   38.7380 N.am  1292  THM1292    -0.1794
     10  C2        37.9360   -0.2270   39.3560 C.1   1292  THM1292     0.2844
     11  O2        38.2990   -0.3550   40.5990 O.2   1292  THM1292    -0.1918
     12  N3        37.5870   -1.3340   38.6680 N.2   1292  THM1292    -0.2455
     13  C4        37.1420   -1.2220   37.4110 C.1   1292  THM1292     0.2134
     14  O4        36.7090   -2.2460   36.7000 O.2   1292  THM1292    -0.2088
     15  C5        37.1780   -0.0010   36.7860 C.2   1292  THM1292     0.0891
     16  C5M       36.7480    0.1480   35.3500 C.3   1292  THM1292     0.0462
     17  C6        37.6020    1.1170   37.4980 C.2   1292  THM1292     0.0877
@<TRIPOS>BOND
     1    16    15    1
     2    14    13    2
     3    15    13    1
     4    15    17    2
     5    13    12    2
     6    17     9    1
     7     1     2    1
     8     2     3    1
     9    12    10    2
    10     9    10   am
    11     9     8    1
    12     7     8    1
    13     7     5    1
    14    10    11    2
    15     4     3    1
    16     4     8    1
    17     3     5    1
    18     5     6    1
