@<TRIPOS>MOLECULE
1h5s_TMP_A_1.pdb
 21 22 0 0 0
SMALL
GASTEIGER

@<TRIPOS>ATOM
      1  P         36.0230    6.3170   36.8170 P.3   1292  TMP1292     0.5327
      2  O1P       35.5170    5.7530   35.5250 O.2   1292  TMP1292    -0.2224
      3  O2P       34.9120    7.1750   37.3550 O.3   1292  TMP1292    -0.1145
      4  O3P       37.2290    7.1550   36.5040 O.3   1292  TMP1292    -0.1145
      5  O5'       36.4270    5.2750   37.8290 O.3   1292  TMP1292    -0.2675
      6  C5'       37.7760    4.8380   37.9910 C.3   1292  TMP1292     0.1858
      7  C4'       37.9010    4.1790   39.3610 C.3   1292  TMP1292     0.1774
      8  O4'       37.2530    2.9010   39.4280 O.3   1292  TMP1292    -0.3339
      9  C3'       39.3730    3.9050   39.6570 C.3   1292  TMP1292     0.1857
     10  O3'       39.5980    4.1260   41.0520 O.3   1292  TMP1292    -0.2203
     11  C2'       39.5170    2.4330   39.3180 C.3   1292  TMP1292     0.0874
     12  C1'       38.1600    1.8220   39.6500 C.3   1292  TMP1292     0.2090
     13  N1        37.8170    0.6550   38.8270 N.am  1292  TMP1292    -0.1794
     14  C2        37.5930   -0.5250   39.4420 C.1   1292  TMP1292     0.2844
     15  O2        37.7640   -0.5940   40.7560 O.2   1292  TMP1292    -0.1918
     16  N3        37.1650   -1.6100   38.7610 N.2   1292  TMP1292    -0.2455
     17  C4        36.9920   -1.5810   37.4340 C.1   1292  TMP1292     0.2134
     18  O4        36.6280   -2.7050   36.7930 O.2   1292  TMP1292    -0.2088
     19  C5        37.2070   -0.3680   36.7780 C.2   1292  TMP1292     0.0891
     20  C5M       37.0090   -0.2080   35.2920 C.3   1292  TMP1292     0.0462
     21  C6        37.6080    0.7560   37.5080 C.2   1292  TMP1292     0.0877
@<TRIPOS>BOND
     1    20    19    1
     2     2     1    2
     3     4     1    1
     4    19    17    1
     5    19    21    2
     6    18    17    2
     7     1     3    1
     8     1     5    1
     9    17    16    2
    10    21    13    1
    11     5     6    1
    12     6     7    1
    13    16    14    2
    14    13    14   am
    15    13    12    1
    16    11    12    1
    17    11     9    1
    18     7     8    1
    19     7     9    1
    20     8    12    1
    21    14    15    2
    22     9    10    1
