@<TRIPOS>MOLECULE
1h5t_DAU_A_1.pdb
 36 38 0 0 0
SMALL
GASTEIGER

@<TRIPOS>ATOM
      1  O6        53.0590    5.6360   52.9000 O.3   1293  DAU1293    -0.2176
      2  C6        53.8050    6.5320   52.0790 C.3   1293  DAU1293     0.2142
      3  C5        55.1400    6.7750   52.7810 C.3   1293  DAU1293     0.1835
      4  O5        55.7590    5.4940   52.7240 O.3   1293  DAU1293    -0.3254
      5  C4        55.8910    7.8180   51.9990 C.3   1293  DAU1293     0.2144
      6  O4        55.2680    9.0690   52.1640 O.3   1293  DAU1293    -0.2176
      7  C3        57.3270    7.9340   52.4770 C.3   1293  DAU1293     0.2198
      8  O3        58.0250    8.9490   51.7110 O.3   1293  DAU1293    -0.2174
      9  C2        57.8850    6.5220   52.3470 C.3   1293  DAU1293     0.2409
     10  O2        59.1500    6.5540   52.8980 O.3   1293  DAU1293    -0.2149
     11  C1        57.1190    5.5040   53.1290 C.3   1293  DAU1293     0.2742
     12  O1        57.2500    5.8460   54.5170 O.3   1293  DAU1293    -0.2857
     13  P2        57.9670    4.7700   55.4940 P.3   1293  DAU1293     0.2208
     14  O3P       57.8380    5.3490   57.0550 O.3   1293  DAU1293    -0.4371
     15  O4P       59.5400    4.3750   55.0500 O.2   1293  DAU1293    -0.5170
     16  OPP       56.9770    3.5530   55.2650 O.3   1293  DAU1293    -0.2703
     17  P         56.4050    2.5660   56.3660 P.3   1293  DAU1293     0.2189
     18  O1P       54.9520    3.0910   57.0330 O.2   1293  DAU1293    -0.5170
     19  O2P       57.6760    2.0950   57.3090 O.3   1293  DAU1293    -0.4371
     20  O5,       56.0990    1.2950   55.4230 O.3   1293  DAU1293    -0.3112
     21  C5,       55.2600    1.4270   54.2670 C.3   1293  DAU1293     0.1812
     22  C4,       54.8860   -0.0230   53.9790 C.3   1293  DAU1293     0.1773
     23  O4,       56.0170   -0.6400   53.3670 O.3   1293  DAU1293    -0.3339
     24  C3,       54.6440   -0.8100   55.2710 C.3   1293  DAU1293     0.1857
     25  O3,       53.5100   -1.6600   55.0450 O.3   1293  DAU1293    -0.2203
     26  C2,       55.9000   -1.6830   55.4730 C.3   1293  DAU1293     0.0874
     27  C1,       56.3790   -1.8610   54.0360 C.3   1293  DAU1293     0.2090
     28  N11       57.8380   -1.8120   53.9990 N.am  1293  DAU1293    -0.1794
     29  C61       58.4540   -0.7400   54.5330 C.2   1293  DAU1293     0.0877
     30  C51       59.8590   -0.7680   54.5750 C.2   1293  DAU1293     0.0891
     31  C5A       60.6660    0.4080   55.0670 C.3   1293  DAU1293     0.0462
     32  C21       58.5470   -2.8310   53.4180 C.1   1293  DAU1293     0.2844
     33  O21       57.9180   -3.8500   52.8340 O.2   1293  DAU1293    -0.1918
     34  N31       59.9030   -2.8230   53.3690 N.2   1293  DAU1293    -0.2455
     35  C41       60.5370   -1.8010   53.9450 C.1   1293  DAU1293     0.2134
     36  O41       61.8260   -1.7330   53.9210 O.2   1293  DAU1293    -0.2088
@<TRIPOS>BOND
     1     8     7    1
     2     5     6    1
     3     5     7    1
     4     5     3    1
     5     2     3    1
     6     2     1    1
     7     9     7    1
     8     9    10    1
     9     9    11    1
    10     4     3    1
    11     4    11    1
    12    33    32    2
    13    11    12    1
    14    23    22    1
    15    23    27    1
    16    34    32    2
    17    34    35    2
    18    32    28   am
    19    36    35    2
    20    35    30    1
    21    22    21    1
    22    22    24    1
    23    28    27    1
    24    28    29    1
    25    27    26    1
    26    21    20    1
    27    12    13    1
    28    29    30    2
    29    30    31    1
    30    25    24    1
    31    15    13    2
    32    16    13    1
    33    16    17    1
    34    24    26    1
    35    20    17    1
    36    13    14    1
    37    17    18    2
    38    17    19    1
