@<TRIPOS>MOLECULE
1h5t_TYD_A_1.pdb
 25 26 0 0 0
SMALL
GASTEIGER

@<TRIPOS>ATOM
      1  PA        37.2960    5.6210   36.5150 P.3   1292  TYD1292     0.2231
      2  O1A       37.8030    4.9460   35.2660 O.2   1292  TYD1292    -0.5169
      3  O2A       37.7970    6.9840   36.4720 O.3   1292  TYD1292    -0.4370
      4  O3A       35.7920    5.7060   36.5440 O.3   1292  TYD1292    -0.2261
      5  PB        34.9520    5.1990   35.3850 P.3   1292  TYD1292     0.5373
      6  O1B       33.6260    4.6600   35.8610 O.3   1292  TYD1292    -0.1143
      7  O2B       35.5780    4.1830   34.4630 O.2   1292  TYD1292    -0.2221
      8  O3B       34.7930    6.5260   34.6810 O.3   1292  TYD1292    -0.1143
      9  O5'       37.7930    4.7790   37.7040 O.3   1292  TYD1292    -0.3111
     10  C5'       37.2580    5.2460   38.9380 C.3   1292  TYD1292     0.1812
     11  C4'       37.7640    4.3990   40.1330 C.3   1292  TYD1292     0.1773
     12  O4'       37.2870    3.0560   39.9910 O.3   1292  TYD1292    -0.3339
     13  C3'       39.2990    4.3280   40.2340 C.3   1292  TYD1292     0.1857
     14  O3'       39.5700    4.4600   41.6430 O.3   1292  TYD1292    -0.2203
     15  C2'       39.6310    2.8850   39.7940 C.3   1292  TYD1292     0.0874
     16  C1'       38.3460    2.1150   40.0910 C.3   1292  TYD1292     0.2090
     17  N1        37.9980    1.0180   39.2140 N.am  1292  TYD1292    -0.1794
     18  C2        37.8830   -0.2250   39.7520 C.1   1292  TYD1292     0.2844
     19  O2        38.1790   -0.4910   41.0090 O.2   1292  TYD1292    -0.1918
     20  N3        37.5700   -1.2530   38.9820 N.2   1292  TYD1292    -0.2455
     21  C4        37.1860   -1.1000   37.7190 C.1   1292  TYD1292     0.2134
     22  O4        36.8130   -2.1550   37.0100 O.2   1292  TYD1292    -0.2088
     23  C5        37.2550    0.1410   37.1500 C.2   1292  TYD1292     0.0891
     24  C5M       36.8990    0.3600   35.7040 C.3   1292  TYD1292     0.0462
     25  C6        37.6670    1.2250   37.9290 C.2   1292  TYD1292     0.0877
@<TRIPOS>BOND
     1     7     5    2
     2     8     5    1
     3     2     1    2
     4     5     6    1
     5     5     4    1
     6    24    23    1
     7     3     1    1
     8     1     4    1
     9     1     9    1
    10    22    21    2
    11    23    21    1
    12    23    25    2
    13     9    10    1
    14    21    20    2
    15    25    17    1
    16    10    11    1
    17    20    18    2
    18    17    18   am
    19    17    16    1
    20    18    19    2
    21    15    16    1
    22    15    13    1
    23    12    16    1
    24    12    11    1
    25    11    13    1
    26    13    14    1
