@<TRIPOS>MOLECULE
1h5u_GLC_A_1.pdb
 12 12 0 0 0
SMALL
GASTEIGER

@<TRIPOS>ATOM
      1  C1        33.7950   22.7870   27.8640 C.3   998  GLC998      0.3024
      2  C2        34.0520   23.0530   26.3230 C.3   998  GLC998      0.2434
      3  C3        32.8720   22.4550   25.4530 C.3   998  GLC998      0.2199
      4  C4        32.5960   20.9730   25.8150 C.3   998  GLC998      0.2144
      5  C5        32.4510   20.7810   27.3730 C.3   998  GLC998      0.1836
      6  C6        32.3750   19.2950   27.7490 C.3   998  GLC998      0.2142
      7  O1        32.6400   23.4750   28.3300 O.3   998  GLC998     -0.1869
      8  O2        34.1770   24.4340   26.0560 O.3   998  GLC998     -0.2148
      9  O3        33.1960   22.5190   24.0820 O.3   998  GLC998     -0.2174
     10  O4        31.4080   20.5530   25.1860 O.3   998  GLC998     -0.2176
     11  O5        33.6070   21.3720   28.0450 O.3   998  GLC998     -0.3236
     12  O6        33.4740   18.5610   27.2510 O.3   998  GLC998     -0.2176
@<TRIPOS>BOND
     1     9     3    1
     2    10     4    1
     3     3     4    1
     4     3     2    1
     5     4     5    1
     6     8     2    1
     7     2     1    1
     8    12     6    1
     9     5     6    1
    10     5    11    1
    11     1    11    1
    12     1     7    1
