@<TRIPOS>MOLECULE
1h5u_CHI_A_1.pdb
 31 34 0 0 0
SMALL
GASTEIGER

@<TRIPOS>ATOM
      1 CL1        17.5410    7.8720   49.4580 Cl    920  CHI920     -0.0822
      2  C1        18.0060    9.2160   50.4330 C.ar  920  CHI920      0.0578
      3  C2        18.6310   10.3740   49.8430 C.ar  920  CHI920      0.0140
      4  C3        19.0250   11.4990   50.6600 C.ar  920  CHI920      0.0329
      5  C4        18.7560   11.3950   52.0860 C.ar  920  CHI920      0.1317
      6  N1        19.0160   12.2630   53.0610 N.2   920  CHI920     -0.3972
      7  C5        18.1400   10.2410   52.6500 C.ar  920  CHI920      0.0331
      8  C6        17.7450    9.1300   51.8400 C.ar  920  CHI920      0.0140
      9  C7        18.0740   10.5620   54.1090 C.2   920  CHI920      0.0394
     10  C8        18.6250   11.8060   54.2490 C.2   920  CHI920      0.1862
     11  C9        18.8500   12.6150   55.4540 C.2   920  CHI920      0.2949
     12  O1        19.3770   13.7200   55.2970 O.2   920  CHI920     -0.2655
     13  N2        18.4790   12.1470   56.6810 N.am  920  CHI920     -0.1915
     14  C10       18.6990   12.9040   57.9270 C.3   920  CHI920      0.1759
     15  C11       20.2490   13.1240   58.1110 C.2   920  CHI920      0.2458
     16  O2        20.9490   12.1140   58.1910 O.2   920  CHI920     -0.2730
     17  N3        20.8430   14.4190   58.1880 N.am  920  CHI920     -0.2780
     18  C12       22.3060   14.5480   58.3810 C.3   920  CHI920      0.0961
     19  C13       22.5500   15.2990   59.7170 C.3   920  CHI920      0.0544
     20  C14       21.8190   16.6800   59.7320 C.3   920  CHI920      0.1554
     21  O3        22.5130   17.5950   58.8430 O.3   920  CHI920     -0.2230
     22  C15       20.2990   16.5930   59.3290 C.3   920  CHI920      0.0544
     23  C16       20.0300   15.6670   58.0940 C.3   920  CHI920      0.0961
     24  C17       18.1920   12.1540   59.2350 C.3   920  CHI920      0.0574
     25  C18       18.4890   13.0350   60.4520 C.ar  920  CHI920     -0.0198
     26  C19       17.6570   14.1900   60.7060 C.ar  920  CHI920     -0.0019
     27  C20       17.9430   15.0410   61.8310 C.ar  920  CHI920      0.0293
     28  C21       19.0670   14.7290   62.7010 C.ar  920  CHI920      0.1401
     29  F1        19.3410   15.5150   63.7350 F     920  CHI920     -0.2042
     30  C22       19.8810   13.5830   62.4440 C.ar  920  CHI920      0.0293
     31  C23       19.6040   12.7340   61.3340 C.ar  920  CHI920     -0.0019
@<TRIPOS>BOND
     1     1     2    1
     2     3     2   ar
     3     3     4   ar
     4     2     8   ar
     5     4     5   ar
     6     8     7   ar
     7     5     7   ar
     8     5     6    2
     9     7     9    2
    10     6    10    2
    11     9    10    1
    12    10    11    1
    13    12    11    2
    14    11    13   am
    15    13    14    1
    16    14    15    1
    17    14    24    1
    18    23    17    1
    19    23    22    1
    20    15    17   am
    21    15    16    2
    22    17    18    1
    23    18    19    1
    24    21    20    1
    25    24    25    1
    26    22    20    1
    27    19    20    1
    28    25    26   ar
    29    25    31   ar
    30    26    27   ar
    31    31    30   ar
    32    27    28   ar
    33    30    28   ar
    34    28    29    1
