@<TRIPOS>MOLECULE
1h5u_PLP_A_1.pdb
 15 15 0 0 0
SMALL
GASTEIGER

@<TRIPOS>ATOM
      1  N1        24.8320   25.5020   30.2770 N.ar  999  PLP999     -0.2452
      2  C2        23.7190   24.7590   30.5210 C.ar  999  PLP999      0.0978
      3  C2A       22.7060   25.3020   31.5030 C.3   999  PLP999      0.0555
      4  C3        23.4820   23.6140   29.8020 C.ar  999  PLP999      0.2049
      5  O3        22.3180   22.8940   29.9920 O.3   999  PLP999     -0.2857
      6  C4        24.3830   23.2380   28.8290 C.ar  999  PLP999      0.0182
      7  C4A       24.0990   21.9950   27.9720 C.3   999  PLP999      0.0342
      8  C5        25.5290   24.0260   28.5980 C.ar  999  PLP999      0.0261
      9  C6        25.7310   25.1500   29.3300 C.ar  999  PLP999      0.0965
     10  C5A       26.5660   23.7190   27.4570 C.3   999  PLP999      0.1815
     11  O4P       26.1660   24.4560   26.2890 O.3   999  PLP999     -0.2653
     12  P         27.1760   24.6840   25.0200 P.3   999  PLP999      0.5329
     13  O1P       26.3470   25.4000   24.0220 O.2   999  PLP999     -0.2224
     14  O2P       28.2960   25.6640   25.5360 O.3   999  PLP999     -0.1145
     15  O3P       27.7940   23.3930   24.6590 O.3   999  PLP999     -0.1145
@<TRIPOS>BOND
     1    13    12    2
     2    15    12    1
     3    12    14    1
     4    12    11    1
     5    11    10    1
     6    10     8    1
     7     7     6    1
     8     8     6   ar
     9     8     9   ar
    10     6     4   ar
    11     9     1   ar
    12     4     5    1
    13     4     2   ar
    14     1     2   ar
    15     2     3    1
