@<TRIPOS>MOLECULE
1h5v_SSG_A_1.pdb
 11 11 0 0 0
SMALL
GASTEIGER

@<TRIPOS>ATOM
      1  C1         1.2250   43.4920   11.7580 C.3   1306  SSG1306     0.1776
      2  C2         0.6200   43.9100   13.0880 C.3   1306  SSG1306     0.2124
      3  O2         1.5320   43.5350   14.1670 O.3   1306  SSG1306    -0.2177
      4  C3        -0.7320   43.1840   13.2430 C.3   1306  SSG1306     0.1977
      5  O3        -1.3350   43.5310   14.4840 O.3   1306  SSG1306    -0.2193
      6  C4        -1.6410   43.5780   12.0700 C.3   1306  SSG1306     0.1206
      7  C5        -0.9260   43.4150   10.7260 C.3   1306  SSG1306     0.1614
      8  O5         0.3510   44.0730   10.7500 O.3   1306  SSG1306    -0.3498
      9  C6        -1.6820   43.9590    9.5310 C.3   1306  SSG1306     0.2124
     10  O6        -2.0550   45.3120    9.7200 O.3   1306  SSG1306    -0.2177
     11  S4        -3.1070   42.4890   12.0950 S.3   1306  SSG1306    -0.0777
@<TRIPOS>BOND
     1     9    10    1
     2     9     7    1
     3     7     8    1
     4     7     6    1
     5     8     1    1
     6     1     2    1
     7     6    11    1
     8     6     4    1
     9     2     4    1
    10     2     3    1
    11     4     5    1
