@<TRIPOS>MOLECULE
1h5v_SGC_A_1.pdb
 11 11 0 0 0
SMALL
GASTEIGER

@<TRIPOS>ATOM
      1  C1         4.8220   41.6750    7.9840 C.3   1307  SGC1307     0.1776
      2  C2         4.7100   43.1730    7.8770 C.3   1307  SGC1307     0.2124
      3  O2         6.0060   43.6750    7.5200 O.3   1307  SGC1307    -0.2177
      4  C3         4.2760   43.8660    9.1980 C.3   1307  SGC1307     0.1977
      5  O3         3.7720   45.1600    8.8400 O.3   1307  SGC1307    -0.2193
      6  C4         3.2200   43.0830    9.9350 C.3   1307  SGC1307     0.1206
      7  C5         3.6950   41.6530   10.0590 C.3   1307  SGC1307     0.1614
      8  O5         3.7980   41.0760    8.7580 O.3   1307  SGC1307    -0.3498
      9  C6         2.7940   40.6990   10.8200 C.3   1307  SGC1307     0.2124
     10  O6         1.4990   40.6370   10.2480 O.3   1307  SGC1307    -0.2177
     11  S4         2.8880   43.9630   11.5030 S.3   1307  SGC1307    -0.0777
@<TRIPOS>BOND
     1     3     2    1
     2     2     1    1
     3     2     4    1
     4     1     8    1
     5     8     7    1
     6     5     4    1
     7     4     6    1
     8     6     7    1
     9     6    11    1
    10     7     9    1
    11    10     9    1
