@<TRIPOS>MOLECULE
1h5v_MA3_A_1.pdb
 13 13 0 0 0
SMALL
GASTEIGER

@<TRIPOS>ATOM
      1  C1        11.6310   35.5440    2.6340 C.3   1309  MA31309     0.2694
      2  C2        11.4470   36.8620    3.4160 C.3   1309  MA31309     0.2389
      3  C3        10.3780   36.6600    4.5100 C.3   1309  MA31309     0.2003
      4  C4         9.0980   36.1030    3.8580 C.3   1309  MA31309     0.1208
      5  C5         9.3980   34.8890    2.9510 C.3   1309  MA31309     0.1639
      6  C6         8.1290   34.3620    2.2420 C.3   1309  MA31309     0.2125
      7  C7        12.5680   33.4010    2.6510 C.3   1309  MA31309     0.1769
      8  O1        12.1620   34.5070    3.4290 O.3   1309  MA31309    -0.3259
      9  O2        12.6810   37.3070    3.9430 O.3   1309  MA31309    -0.2149
     10  O3        10.0700   37.8650    5.1960 O.3   1309  MA31309    -0.2192
     11  S4         7.8830   35.6890    5.1320 S.3   1309  MA31309    -0.0776
     12  O5        10.4240   35.1460    2.0000 O.3   1309  MA31309    -0.3274
     13  O6         7.4150   35.3140    1.4680 O.3   1309  MA31309    -0.2177
@<TRIPOS>BOND
     1    13     6    1
     2    12     1    1
     3    12     5    1
     4     6     5    1
     5     1     2    1
     6     1     8    1
     7     7     8    1
     8     5     4    1
     9     2     9    1
    10     2     3    1
    11     4     3    1
    12     4    11    1
    13     3    10    1
