@<TRIPOS>MOLECULE
1h5v_GLC_A_1.pdb
 11 11 0 0 0
SMALL
GASTEIGER

@<TRIPOS>ATOM
      1  C1        -4.4270   43.7280   11.9730 C.3   1305  GLC1305     0.1777
      2  C2        -5.7070   43.0230   11.6400 C.3   1305  GLC1305     0.2141
      3  C3        -6.8880   43.9750   11.7590 C.3   1305  GLC1305     0.2173
      4  C4        -6.8880   44.6830   13.0950 C.3   1305  GLC1305     0.2142
      5  C5        -5.5190   45.3580   13.2750 C.3   1305  GLC1305     0.1810
      6  C6        -5.3720   46.0850   14.5860 C.3   1305  GLC1305     0.2141
      7  O2        -5.6890   42.4950   10.2930 O.3   1305  GLC1305    -0.2176
      8  O3        -8.1220   43.2520   11.6090 O.3   1305  GLC1305    -0.2175
      9  O4        -7.9520   45.6360   13.1030 O.3   1305  GLC1305    -0.2176
     10  O5        -4.5010   44.3910   13.2340 O.3   1305  GLC1305    -0.3481
     11  O6        -5.5570   45.2470   15.6890 O.3   1305  GLC1305    -0.2176
@<TRIPOS>BOND
     1     7     2    1
     2     8     3    1
     3     2     3    1
     4     2     1    1
     5     3     4    1
     6     1    10    1
     7     4     9    1
     8     4     5    1
     9    10     5    1
    10     5     6    1
    11     6    11    1
