@<TRIPOS>MOLECULE
1h5x_IM2_A_1.pdb
 20 20 0 0 0
SMALL
GASTEIGER

@<TRIPOS>ATOM
      1  C7        29.1000   43.6800   41.4250 C.2   1267  IM21267     0.2115
      2  C2        30.3260   47.5900   43.0210 C.3   1267  IM21267     0.0958
      3  C6        30.0340   44.8710   41.2800 C.3   1267  IM21267     0.1175
      4  C5        30.5670   45.2740   42.7240 C.3   1267  IM21267     0.1142
      5  C3        29.2130   46.9840   43.4720 C.2   1267  IM21267     0.1428
      6  O7        28.1960   43.5470   40.6070 O.2   1267  IM21267    -0.2882
      7  C61       31.2260   44.5430   40.3200 C.3   1267  IM21267     0.1613
      8  O62       30.8300   44.1750   38.9830 O.3   1267  IM21267    -0.2226
      9  C62       32.1470   43.3700   40.8720 C.3   1267  IM21267     0.0360
     10  N4        29.3700   45.5700   43.5270 N.2   1267  IM21267    -0.2688
     11  C31       27.9340   47.5710   43.8850 C.2   1267  IM21267     0.4014
     12  O31       27.8810   48.1230   45.0980 O.co2 1267  IM21267    -0.2392
     13  O32       26.9880   47.5210   43.1220 O.co2 1267  IM21267    -0.2392
     14  S21       30.4400   49.3620   42.8230 S.3   1267  IM21267    -0.1329
     15  C22       32.1440   49.5630   42.1960 C.3   1267  IM21267     0.0812
     16  C23       32.6130   51.0470   42.2850 C.3   1267  IM21267     0.1256
     17  N24       31.5640   52.0030   41.8680 N.pl3 1267  IM21267    -0.2155
     18  C25       31.8030   53.2790   42.1850 C.2   1267  IM21267     0.2043
     19  N26       30.9360   54.1880   42.2510 N.2   1267  IM21267    -0.1271
     20  C1        31.4550   46.5520   42.7110 C.3   1267  IM21267     0.0418
@<TRIPOS>BOND
     1     8     7    1
     2     7     9    1
     3     7     3    1
     4     6     1    2
     5     3     1    1
     6     3     4    1
     7    17    18    1
     8    17    16    1
     9    18    19    2
    10    15    16    1
    11    15    14    1
    12    20     4    1
    13    20     2    1
    14     4    10    1
    15    14     2    1
    16     2     5    1
    17    13    11   ar
    18     5    10    2
    19     5    11    1
    20    11    12   ar
