@<TRIPOS>MOLECULE
1h5z_HEM_A_1.pdb
 43 50 0 0 0
SMALL
GASTEIGER

@<TRIPOS>ATOM
      1 FE        -16.7510   -6.4540   62.8480 Fe    460  HEM460      0.0000
      2  CHA      -18.3490   -7.2630   65.7330 C.2   460  HEM460      0.0000
      3  CHB      -13.9270   -7.9860   63.9790 C.2   460  HEM460      0.0000
      4  CHC      -15.1280   -5.6640   59.9340 C.2   460  HEM460      0.0000
      5  CHD      -19.5370   -4.9280   61.6970 C.2   460  HEM460      0.0000
      6  NA       -16.2290   -7.4490   64.5540 N.2   460  HEM460      0.0000
      7  C1A      -17.0370   -7.6830   65.6330 C.2   460  HEM460      0.0000
      8  C2A      -16.2800   -8.4440   66.6350 C.2   460  HEM460      0.0000
      9  C3A      -15.0410   -8.6300   66.1430 C.2   460  HEM460      0.0000
     10  C4A      -14.9910   -8.0160   64.8300 C.2   460  HEM460      0.0000
     11  CMA      -13.8550   -9.3590   66.7970 C.3   460  HEM460      0.0000
     12  CAA      -16.8540   -8.9300   67.9910 C.3   460  HEM460      0.0000
     13  CBA      -16.8120   -7.9350   69.1450 C.3   460  HEM460      0.0000
     14  CGA      -17.3320   -8.5240   70.4720 C.2   460  HEM460      0.0000
     15  O1A      -17.4580   -9.8080   70.5110 O.co2 460  HEM460      0.0000
     16  O2A      -17.5890   -7.7590   71.3980 O.co2 460  HEM460      0.0000
     17  NB       -14.8970   -6.7520   62.0970 N.ar  460  HEM460      0.0000
     18  C1B      -13.8660   -7.4200   62.7390 C.ar  460  HEM460      0.0000
     19  C2B      -12.6900   -7.4420   61.8870 C.ar  460  HEM460      0.0000
     20  C3B      -13.0140   -6.7840   60.7450 C.ar  460  HEM460      0.0000
     21  C4B      -14.3900   -6.3580   60.8740 C.ar  460  HEM460      0.0000
     22  CMB      -11.3650   -8.1040   62.2550 C.3   460  HEM460      0.0000
     23  CAB      -12.1400   -6.5060   59.5020 C.3   460  HEM460      0.0000
     24  CBB      -11.8180   -7.7470   58.6600 C.3   460  HEM460      0.0000
     25  NC       -17.2490   -5.4900   61.1520 N.2   460  HEM460      0.0000
     26  C1C      -16.4450   -5.2660   60.0590 C.2   460  HEM460      0.0000
     27  C2C      -17.1880   -4.5340   59.0120 C.2   460  HEM460      0.0000
     28  C3C      -18.4390   -4.3180   59.5040 C.2   460  HEM460      0.0000
     29  C4C      -18.4670   -4.9160   60.8370 C.2   460  HEM460      0.0000
     30  CMC      -16.5590   -4.1330   57.6430 C.3   460  HEM460      0.0000
     31  CAC      -19.6760   -3.6010   58.8930 C.3   460  HEM460      0.0000
     32  CBC      -19.8340   -3.6330   57.3580 C.3   460  HEM460      0.0000
     33  ND       -18.5690   -6.1440   63.5640 N.ar  460  HEM460      0.0000
     34  C1D      -19.6170   -5.4770   62.9440 C.ar  460  HEM460      0.0000
     35  C2D      -20.7810   -5.4550   63.8080 C.ar  460  HEM460      0.0000
     36  C3D      -20.4590   -6.1140   64.9420 C.ar  460  HEM460      0.0000
     37  C4D      -19.0780   -6.5460   64.7890 C.ar  460  HEM460      0.0000
     38  CMD      -22.1250   -4.7860   63.4450 C.3   460  HEM460      0.0000
     39  CAD      -21.3800   -6.3610   66.1600 C.3   460  HEM460      0.0000
     40  CBD      -22.0010   -7.7960   66.1080 C.3   460  HEM460      0.0000
     41  CGD      -22.9190   -8.0900   67.2830 C.2   460  HEM460      0.0000
     42  O1D      -22.5140   -7.9490   68.4610 O.co2 460  HEM460      0.0000
     43  O2D      -24.0640   -8.4780   66.9620 O.co2 460  HEM460      0.0000
@<TRIPOS>BOND
     1    32    31    1
     2    30    27    1
     3    24    23    1
     4    31    28    1
     5    27    28    2
     6    27    26    1
     7    23    20    1
     8    28    29    1
     9     4    26    2
    10     4    21    1
    11    26    25    1
    12    20    21   ar
    13    20    19   ar
    14    29    25    2
    15    29     5    1
    16    21    17   ar
    17    25     1    1
    18     5    34    2
    19    19    22    1
    20    19    18   ar
    21    17    18   ar
    22    17     1    1
    23    18     3    1
    24     1    33    1
    25     1     6    1
    26    34    33   ar
    27    34    35   ar
    28    38    35    1
    29    33    37   ar
    30    35    36   ar
    31     3    10    2
    32     6    10    1
    33     6     7    2
    34    37    36   ar
    35    37     2    2
    36    10     9    1
    37    36    39    1
    38     7     2    1
    39     7     8    1
    40    40    39    1
    41    40    41    1
    42     9     8    2
    43     9    11    1
    44     8    12    1
    45    43    41   ar
    46    41    42   ar
    47    12    13    1
    48    13    14    1
    49    14    15   ar
    50    14    16   ar
