@<TRIPOS>MOLECULE
1h60_STR_A_1.pdb
 23 26 0 0 0
SMALL
GASTEIGER

@<TRIPOS>ATOM
      1  C1        20.4150   11.8220   20.9750 C.3   500  STR500      0.0084
      2  C2        20.2220   10.6980   22.2400 C.3   500  STR500      0.0688
      3  C3        20.1480    9.2870   21.6000 C.2   500  STR500      0.1689
      4  O3        19.4000    8.4530   22.3120 O.2   500  STR500     -0.2917
      5  C4        20.8070    8.9330   20.3650 C.2   500  STR500      0.0109
      6  C5        21.5780    9.8770   19.8040 C.3   500  STR500      0.0249
      7  C6        22.4610    9.4270   18.6640 C.3   500  STR500      0.0044
      8  C7        22.2950   10.4040   17.5000 C.3   500  STR500      0.0003
      9  C8        22.6560   11.8440   17.7920 C.3   500  STR500      0.0000
     10  C9        21.5260   12.2770   18.8680 C.3   500  STR500      0.0003
     11  C10       21.6450   11.4490   20.1680 C.3   500  STR500      0.0043
     12  C11       21.5130   13.7670   19.1630 C.3   500  STR500      0.0000
     13  C12       21.4830   14.6370   17.7300 C.3   500  STR500      0.0004
     14  C13       22.6430   14.3040   16.8740 C.3   500  STR500      0.0065
     15  C14       22.3290   12.6130   16.6370 C.3   500  STR500      0.0004
     16  C15       23.1400   12.4240   15.3370 C.3   500  STR500      0.0004
     17  C16       22.9200   13.6880   14.5250 C.3   500  STR500      0.0073
     18  C17       22.4080   14.7380   15.4550 C.3   500  STR500      0.0576
     19  C18       24.1040   14.4890   17.2930 C.3   500  STR500      0.0004
     20  C19       22.9920   11.6700   20.9330 C.3   500  STR500      0.0003
     21  C20       23.0780   16.1940   15.0590 C.2   500  STR500      0.1507
     22  O20       24.0880   16.2660   14.6060 O.2   500  STR500     -0.2961
     23  C21       22.1630   17.4860   15.8310 C.3   500  STR500      0.0722
@<TRIPOS>BOND
     1    17    16    1
     2    17    18    1
     3    22    21    2
     4    21    18    1
     5    21    23    1
     6    16    15    1
     7    18    14    1
     8    15    14    1
     9    15     9    1
    10    14    19    1
    11    14    13    1
    12     8     9    1
    13     8     7    1
    14    13    12    1
    15     9    10    1
    16     7     6    1
    17    10    12    1
    18    10    11    1
    19     6    11    1
    20     6     5    1
    21    11    20    1
    22    11     1    1
    23     5     3    2
    24     1     2    1
    25     3     2    1
    26     3     4    1
