@<TRIPOS>MOLECULE
1h60_FMN_A_1.pdb
 31 33 0 0 0
SMALL
GASTEIGER

@<TRIPOS>ATOM
      1  N1        21.4490    7.6370   24.4750 N.2   401  FMN401     -0.2887
      2  C2        20.7180    6.5740   24.2630 C.1   401  FMN401      0.3669
      3  O2        19.8300    6.2200   24.9650 O.2   401  FMN401     -0.1744
      4  N3        21.0330    5.7730   23.0970 N.2   401  FMN401     -0.2300
      5  C4        21.9920    5.9540   22.1350 C.1   401  FMN401      0.2513
      6  O4        22.1830    5.2010   21.1860 O.2   401  FMN401     -0.2057
      7  C4A       22.8020    7.2020   22.4280 C.2   401  FMN401      0.2703
      8  N5        23.8190    7.5380   21.6070 N.2   401  FMN401     -0.3882
      9  C5A       24.5740    8.5980   21.8760 C.2   401  FMN401      0.1277
     10  C6        25.7050    8.9110   21.0220 C.3   401  FMN401      0.0820
     11  C7        26.6060   10.0310   21.2680 C.2   401  FMN401     -0.0408
     12  C7M       27.7000   10.2120   20.2650 C.3   401  FMN401      0.0265
     13  C8        26.4620   10.7940   22.3850 C.2   401  FMN401     -0.0280
     14  C8M       27.3040   11.8780   22.7320 C.3   401  FMN401      0.0304
     15  C9        25.3210   10.5590   23.3500 C.2   401  FMN401      0.0123
     16  C9A       24.4420    9.3200   23.0520 C.2   401  FMN401      0.0793
     17  N10       23.3830    9.0280   23.7750 N.pl3 401  FMN401     -0.2545
     18  C10       22.4820    7.9680   23.6280 C.2   401  FMN401      0.2449
     19  C1'       23.1750    9.5920   25.3970 C.3   401  FMN401      0.1336
     20  C2'       24.2710    8.8020   26.1140 C.3   401  FMN401      0.2048
     21  O2'       23.8140    7.4300   26.4080 O.3   401  FMN401     -0.2185
     22  C3'       24.5380    9.5630   27.5250 C.3   401  FMN401      0.2165
     23  O3'       23.1920    9.3080   28.2870 O.3   401  FMN401     -0.2175
     24  C4'       24.8300   11.2410   27.3740 C.3   401  FMN401      0.2147
     25  O4'       26.2200   10.8400   26.6700 O.3   401  FMN401     -0.2176
     26  C5'       25.5640   10.8830   28.9570 C.3   401  FMN401      0.1892
     27  O5'       26.2810   11.7110   29.2670 O.3   401  FMN401     -0.2674
     28  P         27.8230   11.9760   29.2290 P.3   401  FMN401      0.5327
     29  O1P       28.2340   11.6480   27.8620 O.2   401  FMN401     -0.2224
     30  O2P       28.0070   13.4270   29.5330 O.3   401  FMN401     -0.1145
     31  O3P       28.3350   10.9710   30.2250 O.3   401  FMN401     -0.1145
@<TRIPOS>BOND
     1    12    11    1
     2    10    11    1
     3    10     9    1
     4     6     5    2
     5    11    13    2
     6     8     9    2
     7     8     7    2
     8     9    16    1
     9     5     7    1
    10     5     4    2
    11    13    14    1
    12    13    15    1
    13     7    18    1
    14    16    15    2
    15    16    17    1
    16     4     2    2
    17    18    17    1
    18    18     1    2
    19    17    19    1
    20     2     1    2
    21     2     3    2
    22    19    20    1
    23    20    21    1
    24    20    22    1
    25    25    24    1
    26    24    22    1
    27    24    26    1
    28    22    23    1
    29    29    28    2
    30    26    27    1
    31    28    27    1
    32    28    30    1
    33    28    31    1
