@<TRIPOS>MOLECULE
1h61_FMN_A_1.pdb
 31 33 0 0 0
SMALL
GASTEIGER

@<TRIPOS>ATOM
      1  N1        21.5290    7.8520   24.1730 N.2   1365  FMN1365    -0.2890
      2  C2        20.7600    6.7560   23.9560 C.1   1365  FMN1365     0.3669
      3  O2        19.8500    6.4310   24.6710 O.2   1365  FMN1365    -0.1744
      4  N3        21.0590    5.9380   22.8010 N.2   1365  FMN1365    -0.2300
      5  C4        22.0860    6.1510   22.0000 C.1   1365  FMN1365     0.2513
      6  O4        22.2380    5.4560   21.1030 O.2   1365  FMN1365    -0.2057
      7  C4A       22.9120    7.3110   22.2150 C.2   1365  FMN1365     0.2700
      8  N5        23.9000    7.6510   21.3980 N.2   1365  FMN1365    -0.3878
      9  C5A       24.6760    8.6900   21.6740 C.2   1365  FMN1365     0.1320
     10  C6        25.7970    9.0030   20.7760 C.2   1365  FMN1365     0.0250
     11  C7        26.6450   10.0460   21.0550 C.2   1365  FMN1365    -0.0238
     12  C7M       27.8570   10.3210   20.1210 C.3   1365  FMN1365     0.0308
     13  C8        26.5030   10.8770   22.2440 C.2   1365  FMN1365    -0.0280
     14  C8M       27.4620   11.9590   22.5660 C.3   1365  FMN1365     0.0304
     15  C9        25.3720   10.6290   23.0320 C.2   1365  FMN1365    -0.0041
     16  C9A       24.4840    9.5520   22.8230 C.3   1365  FMN1365     0.1497
     17  N10       23.4260    9.1730   23.7000 N.pl3 1365  FMN1365    -0.2691
     18  C10       22.5750    8.1260   23.4130 C.2   1365  FMN1365     0.2416
     19  C1'       23.3650    9.7270   25.0650 C.3   1365  FMN1365     0.1294
     20  C2'       24.3380    8.9910   25.9830 C.3   1365  FMN1365     0.2044
     21  O2'       23.8890    7.6920   26.3370 O.3   1365  FMN1365    -0.2185
     22  C3'       24.6010    9.8070   27.2750 C.3   1365  FMN1365     0.2164
     23  O3'       23.3940    9.8150   28.1080 O.3   1365  FMN1365    -0.2175
     24  C4'       25.1220   11.2030   26.9910 C.3   1365  FMN1365     0.2147
     25  O4'       26.3640   11.0920   26.2670 O.3   1365  FMN1365    -0.2176
     26  C5'       25.2780   12.1940   28.1240 C.3   1365  FMN1365     0.1892
     27  O5'       26.3340   11.7960   29.0110 O.3   1365  FMN1365    -0.2674
     28  P         27.8620   12.2620   28.9020 P.3   1365  FMN1365     0.5327
     29  O1P       28.3760   12.0240   27.5120 O.2   1365  FMN1365    -0.2224
     30  O2P       27.9680   13.6970   29.3540 O.3   1365  FMN1365    -0.1145
     31  O3P       28.5390   11.3210   29.9550 O.3   1365  FMN1365    -0.1145
@<TRIPOS>BOND
     1    12    11    1
     2    10    11    2
     3    10     9    1
     4    11    13    1
     5     6     5    2
     6     8     9    2
     7     8     7    2
     8     9    16    1
     9     5     7    1
    10     5     4    2
    11     7    18    1
    12    13    14    1
    13    13    15    2
    14     4     2    2
    15    16    15    1
    16    16    17    1
    17    18    17    1
    18    18     1    2
    19    17    19    1
    20     2     1    2
    21     2     3    2
    22    19    20    1
    23    20    21    1
    24    20    22    1
    25    25    24    1
    26    24    22    1
    27    24    26    1
    28    22    23    1
    29    29    28    2
    30    26    27    1
    31    28    27    1
    32    28    30    1
    33    28    31    1
