@<TRIPOS>MOLECULE
1h61_PDN_A_1.pdb
 26 29 0 0 0
SMALL
GASTEIGER

@<TRIPOS>ATOM
      1  C1        20.6360   11.8580   21.1480 C.2   1366  PDN1366    -0.0197
      2  C2        19.8830   10.8510   21.7620 C.2   1366  PDN1366     0.0377
      3  C3        19.9560    9.4330   21.3450 C.2   1366  PDN1366     0.1948
      4  C4        20.8590    9.1250   20.2320 C.2   1366  PDN1366     0.0338
      5  C5        21.6370   10.0390   19.5700 C.2   1366  PDN1366    -0.0378
      6  C6        22.6180    9.6090   18.3600 C.3   1366  PDN1366     0.0224
      7  C7        22.3850   10.5890   17.2900 C.3   1366  PDN1366     0.0045
      8  C8        22.3900   11.9700   17.5600 C.3   1366  PDN1366     0.0035
      9  C9        21.3410   12.3580   18.7210 C.3   1366  PDN1366     0.0376
     10  C10       21.6120   11.5620   19.9810 C.3   1366  PDN1366     0.0362
     11  C11       21.3300   13.9430   18.9380 C.3   1366  PDN1366     0.1526
     12  C12       21.1010   14.6660   17.5930 C.3   1366  PDN1366     0.0353
     13  C13       22.1010   14.3630   16.5440 C.3   1366  PDN1366     0.0308
     14  C14       22.0800   12.8410   16.3140 C.3   1366  PDN1366     0.0026
     15  C15       22.9570   12.7100   15.0160 C.3   1366  PDN1366     0.0027
     16  C16       22.7770   13.8840   14.2620 C.3   1366  PDN1366     0.0331
     17  C17       21.7920   14.7760   15.0640 C.3   1366  PDN1366     0.1569
     18  C18       23.4980   14.9490   17.0280 C.3   1366  PDN1366     0.0026
     19  C19       22.9490   11.9490   20.5810 C.3   1366  PDN1366     0.0085
     20  C20       21.8410   16.3270   14.9370 C.3   1366  PDN1366     0.2123
     21  C21       20.8270   16.7680   14.7030 C.3   1366  PDN1366     0.2173
     22  O1        19.3140    8.6000   21.8930 O.2   1366  PDN1366    -0.2866
     23  O2        21.4680   14.5740   20.1450 O.3   1366  PDN1366    -0.2231
     24  O3        20.3400   14.4000   14.8300 O.3   1366  PDN1366    -0.2230
     25  O4        22.8720   16.6590   14.2070 O.3   1366  PDN1366    -0.2177
     26  O5        20.9220   18.1250   15.1440 O.3   1366  PDN1366    -0.2175
@<TRIPOS>BOND
     1    25    20    1
     2    16    15    1
     3    16    17    1
     4    21    20    1
     5    21    26    1
     6    24    17    1
     7    20    17    1
     8    15    14    1
     9    17    13    1
    10    14    13    1
    11    14     8    1
    12    13    18    1
    13    13    12    1
    14     7     8    1
    15     7     6    1
    16     8     9    1
    17    12    11    1
    18     6     5    1
    19     9    11    1
    20     9    10    1
    21    11    23    1
    22     5    10    1
    23     5     4    2
    24    10    19    1
    25    10     1    1
    26     4     3    1
    27     1     2    2
    28     3     2    1
    29     3    22    2
