@<TRIPOS>MOLECULE
1h62_ANB_A_1.pdb
 21 24 0 0 0
SMALL
GASTEIGER

@<TRIPOS>ATOM
      1  C1        20.4160   11.6840   21.3750 C.2   501  ANB501     -0.0197
      2  C10       21.4620   11.3680   20.3070 C.3   501  ANB501      0.0339
      3  C11       21.1220   13.6310   19.1580 C.3   501  ANB501      0.0010
      4  C12       20.8530   14.3810   17.8010 C.3   501  ANB501      0.0069
      5  C13       22.0170   14.1080   16.8370 C.3   501  ANB501      0.0515
      6  C14       22.0480   12.6050   16.5620 C.3   501  ANB501      0.0070
      7  C15       23.0080   12.4420   15.3320 C.3   501  ANB501      0.0082
      8  C16       22.4890   13.6390   14.4970 C.3   501  ANB501      0.0645
      9  C17       21.8480   14.7210   15.4410 C.2   501  ANB501      0.1498
     10  C18       23.3880   14.6970   17.3790 C.3   501  ANB501      0.0073
     11  C19       22.8520   11.8150   20.9410 C.3   501  ANB501      0.0084
     12  C2        19.6430   10.7440   21.9520 C.2   501  ANB501      0.0377
     13  C3        19.7660    9.3090   21.5690 C.2   501  ANB501      0.1948
     14  C4        20.7410    8.9630   20.5510 C.2   501  ANB501      0.0338
     15  C5        21.5560    9.8730   19.9330 C.2   501  ANB501     -0.0379
     16  C6        22.5490    9.4620   18.8880 C.3   501  ANB501      0.0224
     17  C7        22.3380   10.3250   17.6190 C.3   501  ANB501      0.0044
     18  C8        22.3010   11.7680   17.8620 C.3   501  ANB501      0.0013
     19  C9        21.1840   12.1630   18.9690 C.3   501  ANB501      0.0072
     20  O1        19.0740    8.4260   22.0780 O.2   501  ANB501     -0.2866
     21  O2        21.3690   15.7320   15.1630 O.2   501  ANB501     -0.2961
@<TRIPOS>BOND
     1     8     7    1
     2     8     9    1
     3    21     9    2
     4     7     6    1
     5     9     5    1
     6     6     5    1
     7     6    18    1
     8     5    10    1
     9     5     4    1
    10    17    18    1
    11    17    16    1
    12     4     3    1
    13    18    19    1
    14    16    15    1
    15    19     3    1
    16    19     2    1
    17    15     2    1
    18    15    14    2
    19     2    11    1
    20     2     1    1
    21    14    13    1
    22     1    12    2
    23    13    12    1
    24    13    20    2
