@<TRIPOS>MOLECULE
1h62_FMN_A_1.pdb
 31 33 0 0 0
SMALL
GASTEIGER

@<TRIPOS>ATOM
      1  N1        21.5930    7.6800   24.2510 N.2   1365  FMN1365    -0.2890
      2  C2        20.7720    6.6860   23.9800 C.1   1365  FMN1365     0.3669
      3  O2        19.9000    6.3680   24.6890 O.2   1365  FMN1365    -0.1744
      4  N3        20.9070    5.9170   22.8020 N.2   1365  FMN1365    -0.2300
      5  C4        21.9320    6.1810   21.8450 C.1   1365  FMN1365     0.2513
      6  O4        21.9560    5.4380   20.8690 O.2   1365  FMN1365    -0.2057
      7  C4A       22.8290    7.2960   22.1530 C.2   1365  FMN1365     0.2700
      8  N5        23.8440    7.6470   21.2940 N.2   1365  FMN1365    -0.3878
      9  C5A       24.7030    8.6800   21.5930 C.2   1365  FMN1365     0.1320
     10  C6        25.7460    8.9830   20.6390 C.2   1365  FMN1365     0.0250
     11  C7        26.6800   10.0340   20.9190 C.2   1365  FMN1365    -0.0238
     12  C7M       27.7800   10.3380   19.9360 C.3   1365  FMN1365     0.0308
     13  C8        26.5720   10.8040   22.1380 C.2   1365  FMN1365    -0.0280
     14  C8M       27.4940   11.9600   22.5440 C.3   1365  FMN1365     0.0304
     15  C9        25.5660   10.5260   23.0370 C.2   1365  FMN1365    -0.0041
     16  C9A       24.5550    9.4210   22.8160 C.3   1365  FMN1365     0.1497
     17  N10       23.4850    9.0850   23.7170 N.pl3 1365  FMN1365    -0.2691
     18  C10       22.6090    8.0280   23.4170 C.2   1365  FMN1365     0.2416
     19  C1'       23.3150    9.7600   24.9750 C.3   1365  FMN1365     0.1294
     20  C2'       24.3250    9.0970   25.9260 C.3   1365  FMN1365     0.2044
     21  O2'       23.9660    7.7620   26.2980 O.3   1365  FMN1365    -0.2185
     22  C3'       24.4600    9.9180   27.2220 C.3   1365  FMN1365     0.2164
     23  O3'       23.1980    9.8710   27.9680 O.3   1365  FMN1365    -0.2175
     24  C4'       24.9260   11.3410   27.0230 C.3   1365  FMN1365     0.2147
     25  O4'       26.1200   11.3700   26.1970 O.3   1365  FMN1365    -0.2176
     26  C5'       25.1830   12.1310   28.2840 C.3   1365  FMN1365     0.1892
     27  O5'       26.2290   11.5040   29.0310 O.3   1365  FMN1365    -0.2674
     28  P         27.7170   12.0350   29.0540 P.3   1365  FMN1365     0.5327
     29  O1P       28.3410   11.8720   27.7010 O.2   1365  FMN1365    -0.2224
     30  O2P       27.6940   13.4610   29.5420 O.3   1365  FMN1365    -0.1145
     31  O3P       28.3670   11.1030   30.1290 O.3   1365  FMN1365    -0.1145
@<TRIPOS>BOND
     1    12    11    1
     2    10    11    2
     3    10     9    1
     4     6     5    2
     5    11    13    1
     6     8     9    2
     7     8     7    2
     8     9    16    1
     9     5     7    1
    10     5     4    2
    11    13    14    1
    12    13    15    2
    13     7    18    1
    14     4     2    2
    15    16    15    1
    16    16    17    1
    17    18    17    1
    18    18     1    2
    19    17    19    1
    20     2     1    2
    21     2     3    2
    22    19    20    1
    23    20    21    1
    24    20    22    1
    25    25    24    1
    26    24    22    1
    27    24    26    1
    28    22    23    1
    29    29    28    2
    30    26    27    1
    31    27    28    1
    32    28    30    1
    33    28    31    1
