@<TRIPOS>MOLECULE
1h63_FMN_A_1.pdb
 31 33 0 0 0
SMALL
GASTEIGER

@<TRIPOS>ATOM
      1  N1        21.4480    7.9280   24.1860 N.2   401  FMN401     -0.2887
      2  C2        20.7480    6.7150   23.9850 C.1   401  FMN401      0.3669
      3  O2        19.8300    6.3920   24.6670 O.2   401  FMN401     -0.1744
      4  N3        21.0710    5.9410   22.8290 N.2   401  FMN401     -0.2300
      5  C4        21.9590    6.2630   21.8750 C.1   401  FMN401      0.2513
      6  O4        22.1550    5.5250   20.9220 O.2   401  FMN401     -0.2057
      7  C4A       22.6340    7.5660   22.0430 C.2   401  FMN401      0.2703
      8  N5        23.5550    7.9920   21.1270 N.2   401  FMN401     -0.3882
      9  C5A       24.4610    8.9170   21.5570 C.2   401  FMN401      0.1277
     10  C6        25.6440    9.1890   20.7180 C.3   401  FMN401      0.0820
     11  C7        26.6650   10.1100   21.1320 C.2   401  FMN401     -0.0408
     12  C7M       27.8320   10.4170   20.2010 C.3   401  FMN401      0.0265
     13  C8        26.4650   10.8620   22.3360 C.2   401  FMN401     -0.0280
     14  C8M       27.6000   11.7930   22.8700 C.3   401  FMN401      0.0304
     15  C9        25.2780   10.6520   23.1130 C.2   401  FMN401      0.0123
     16  C9A       24.3720    9.6320   22.8130 C.2   401  FMN401      0.0793
     17  N10       23.3530    9.1710   23.6980 N.pl3 401  FMN401     -0.2545
     18  C10       22.4020    8.2640   23.3370 C.2   401  FMN401      0.2449
     19  C1'       23.2360    9.7360   25.0600 C.3   401  FMN401      0.1336
     20  C2'       24.2140    9.0360   25.9960 C.3   401  FMN401      0.2048
     21  O2'       23.8040    7.7150   26.3140 O.3   401  FMN401     -0.2185
     22  C3'       24.3770    9.8370   27.3100 C.3   401  FMN401      0.2165
     23  O3'       23.1110    9.8400   28.0460 O.3   401  FMN401     -0.2175
     24  C4'       24.8990   11.2490   27.1150 C.3   401  FMN401      0.2147
     25  O4'       26.1220   11.2170   26.3430 O.3   401  FMN401     -0.2176
     26  C5'       25.1270   12.0810   28.3550 C.3   401  FMN401      0.1892
     27  O5'       26.1510   11.4860   29.1680 O.3   401  FMN401     -0.2674
     28  P         27.6830   11.9320   29.1390 P.3   401  FMN401      0.5327
     29  O1P       28.2360   11.7690   27.7570 O.2   401  FMN401     -0.2224
     30  O2P       27.7890   13.3320   29.6770 O.3   401  FMN401     -0.1145
     31  O3P       28.3260   10.9290   30.1550 O.3   401  FMN401     -0.1145
@<TRIPOS>BOND
     1    12    11    1
     2    10    11    1
     3    10     9    1
     4     6     5    2
     5     8     9    2
     6     8     7    2
     7    11    13    2
     8     9    16    1
     9     5     7    1
    10     5     4    2
    11     7    18    1
    12    13    14    1
    13    13    15    1
    14    16    15    2
    15    16    17    1
    16     4     2    2
    17    18    17    1
    18    18     1    2
    19    17    19    1
    20     2     1    2
    21     2     3    2
    22    19    20    1
    23    20    21    1
    24    20    22    1
    25    25    24    1
    26    24    22    1
    27    24    26    1
    28    22    23    1
    29    29    28    2
    30    26    27    1
    31    28    27    1
    32    28    30    1
    33    28    31    1
