@<TRIPOS>MOLECULE
1h65_GDP_A_1.pdb
 28 30 0 0 0
SMALL
GASTEIGER

@<TRIPOS>ATOM
      1  PB         9.5220   21.0980   28.1970 P.3   281  GDP281      0.5373
      2  O1B        8.3750   21.6670   27.5340 O.3   281  GDP281     -0.1143
      3  O2B       10.0940   21.8090   29.3470 O.3   281  GDP281     -0.1143
      4  O3B       10.6740   20.8990   27.1780 O.2   281  GDP281     -0.2221
      5  O3A        9.2790   19.6210   28.6430 O.3   281  GDP281     -0.2261
      6  PA        10.3300   18.3880   28.7600 P.3   281  GDP281      0.2231
      7  O1A       11.5000   18.8350   29.5680 O.3   281  GDP281     -0.4370
      8  O2A       10.6030   17.8160   27.4220 O.2   281  GDP281     -0.5169
      9  O5'        9.5350   17.4620   29.5330 O.3   281  GDP281     -0.3111
     10  C5'        9.0350   17.7940   30.8250 C.3   281  GDP281      0.1813
     11  C4'        8.7440   16.5520   31.6070 C.3   281  GDP281      0.1799
     12  O4'        7.6770   15.8150   30.9880 O.3   281  GDP281     -0.3326
     13  C3'        9.8870   15.5660   31.7280 C.3   281  GDP281      0.2158
     14  O3'        9.9450   14.9820   32.9880 O.3   281  GDP281     -0.2175
     15  C2'        9.6020   14.5400   30.6760 C.3   281  GDP281      0.2310
     16  O2'       10.1070   13.2990   31.1480 O.3   281  GDP281     -0.2158
     17  C1'        8.0870   14.4820   30.7470 C.3   281  GDP281      0.2293
     18  N9         7.5150   14.0560   29.4590 N.pl3 281  GDP281     -0.2354
     19  C8         7.5170   14.8010   28.3150 C.3   281  GDP281      0.2246
     20  N7         6.8080   14.3000   27.3670 N.2   281  GDP281     -0.2322
     21  C5         6.1390   13.2460   27.9560 C.2   281  GDP281      0.2182
     22  C6         5.2950   12.4690   27.4260 C.1   281  GDP281      0.2372
     23  O6         4.9530   12.4610   26.2600 O.2   281  GDP281     -0.2069
     24  N1         4.7510   11.5600   28.3090 N.2   281  GDP281     -0.2485
     25  C2         5.1510   11.3970   29.5760 C.1   281  GDP281      0.2531
     26  N2         4.5580   10.4020   30.2330 N.pl3 281  GDP281     -0.0226
     27  N3         6.0860   12.1460   30.1350 N.2   281  GDP281     -0.3074
     28  C4         6.5810   13.0280   29.2310 C.2   281  GDP281      0.2300
@<TRIPOS>BOND
     1    23    22    2
     2     4     1    2
     3    20    21    2
     4    20    19    1
     5     8     6    2
     6    22    21    1
     7    22    24    2
     8     2     1    1
     9    21    28    1
    10     1     5    1
    11     1     3    1
    12    24    25    2
    13    19    18    1
    14     5     6    1
    15     6     9    1
    16     6     7    1
    17    28    18    1
    18    28    27    2
    19    18    17    1
    20     9    10    1
    21    25    27    2
    22    25    26    1
    23    15    17    1
    24    15    16    1
    25    15    13    1
    26    17    12    1
    27    10    11    1
    28    12    11    1
    29    11    13    1
    30    13    14    1
