@<TRIPOS>MOLECULE
1h66_RH1_A_1.pdb
 17 19 0 0 0
SMALL
GASTEIGER

@<TRIPOS>ATOM
      1  O1        -3.9530   13.8500    9.0790 O.2   1274  RH11274    -0.2856
      2  O2        -1.1470   15.9520    5.0840 O.2   1274  RH11274    -0.2855
      3  N1        -3.9260   16.6970    8.8800 N.pl3 1274  RH11274    -0.3017
      4  N2        -1.1950   13.1110    5.3040 N.pl3 1274  RH11274    -0.3018
      5  C1        -3.2980   14.3700    8.1450 C.2   1274  RH11274     0.2060
      6  C2        -3.2530   15.8510    7.9990 C.2   1274  RH11274     0.0887
      7  C3        -2.5340   16.3780    6.9780 C.2   1274  RH11274     0.0672
      8  C4        -1.7980   15.4590    6.0110 C.2   1274  RH11274     0.2084
      9  C5        -1.8680   13.9830    6.1880 C.2   1274  RH11274     0.0863
     10  C6        -2.5940   13.4890    7.2210 C.2   1274  RH11274     0.0347
     11  C7        -5.1060   16.2940    9.6380 C.3   1274  RH11274     0.1123
     12  C8        -5.2130   17.3130    8.5870 C.3   1274  RH11274     0.1123
     13  C9        -1.9090   12.3660    4.2720 C.3   1274  RH11274     0.1123
     14  C10       -0.9610   13.4140    3.8960 C.3   1274  RH11274     0.1123
     15  C11       -2.4300   17.9000    6.7510 C.3   1274  RH11274     0.2131
     16  O3        -2.2750   18.7120    7.8800 O.3   1274  RH11274    -0.2150
     17  C12       -2.6950   11.9760    7.4440 C.3   1274  RH11274     0.0358
@<TRIPOS>BOND
     1    14    13    1
     2    14     4    1
     3    13     4    1
     4     2     8    2
     5     4     9    1
     6     8     9    1
     7     8     7    1
     8     9    10    2
     9    15     7    1
    10    15    16    1
    11     7     6    2
    12    10    17    1
    13    10     5    1
    14     6     5    1
    15     6     3    1
    16     5     1    2
    17    12     3    1
    18    12    11    1
    19     3    11    1
