@<TRIPOS>MOLECULE
1h68_RET_A_1.pdb
 20 20 0 0 0
SMALL
GASTEIGER

@<TRIPOS>ATOM
      1  C1        23.4600   30.3660    6.0600 C.3   300  RET300      0.0183
      2  C2        22.5370   29.4370    6.8990 C.3   300  RET300      0.0044
      3  C3        21.5240   30.1230    7.7650 C.3   300  RET300      0.0047
      4  C4        20.6880   31.0580    6.9330 C.3   300  RET300      0.0217
      5  C5        21.5130   32.0600    6.1450 C.2   300  RET300     -0.0479
      6  C6        22.8130   31.7910    5.7360 C.2   300  RET300     -0.0307
      7  C7        23.5250   32.8350    4.9990 C.2   300  RET300     -0.0052
      8  C8        24.7880   32.9290    4.4900 C.2   300  RET300     -0.0046
      9  C9        25.3530   34.0490    3.7700 C.2   300  RET300     -0.0219
     10  C10       26.6370   33.9360    3.4060 C.2   300  RET300     -0.0043
     11  C11       27.4690   34.8940    2.6950 C.2   300  RET300     -0.0007
     12  C12       28.7540   34.6750    2.4340 C.2   300  RET300     -0.0046
     13  C13       29.6820   35.5630    1.7700 C.2   300  RET300     -0.0261
     14  C14       30.9680   35.1770    1.6290 C.2   300  RET300     -0.0300
     15  C15       32.0060   35.8930    1.0330 C.3   300  RET300      0.0304
     16  C16       24.7370   30.4860    6.9210 C.3   300  RET300      0.0043
     17  C17       23.7920   29.6070    4.7440 C.3   300  RET300      0.0043
     18  C18       20.7650   33.3430    5.8980 C.3   300  RET300      0.0260
     19  C19       24.5030   35.2630    3.4670 C.3   300  RET300      0.0310
     20  C20       29.1800   36.9250    1.2690 C.3   300  RET300      0.0307
@<TRIPOS>BOND
     1    15    14    1
     2    20    13    1
     3    14    13    2
     4    13    12    1
     5    12    11    2
     6    11    10    1
     7    10     9    2
     8    19     9    1
     9     9     8    1
    10     8     7    2
    11    17     1    1
    12     7     6    1
    13     6     1    1
    14     6     5    2
    15    18     5    1
    16     1     2    1
    17     1    16    1
    18     5     4    1
    19     2     3    1
    20     4     3    1
