@<TRIPOS>MOLECULE
1h69_ARH_A_1.pdb
 24 27 0 0 0
SMALL
GASTEIGER

@<TRIPOS>ATOM
      1  C1        19.0860   -7.3040    7.8510 C.2   1275  ARH1275     0.0613
      2  C2        19.0680   -8.8150    7.8810 C.2   1275  ARH1275     0.2127
      3  C3        19.4320   -9.4880    6.6710 C.ar  1275  ARH1275     0.1023
      4  C4        19.7580   -8.7520    5.4960 C.ar  1275  ARH1275     0.0590
      5  C5        19.7610   -7.3130    5.4350 C.2   1275  ARH1275     0.2102
      6  C6        19.4100   -6.5760    6.7180 C.2   1275  ARH1275     0.0906
      7  N7        19.5330  -10.8520    6.4220 N.ar  1275  ARH1275    -0.3228
      8  C8        19.9360  -10.9980    5.0550 C.ar  1275  ARH1275     0.0585
      9  C9        20.0670   -9.6730    4.4740 C.ar  1275  ARH1275     0.0310
     10  O10       20.0490   -6.6950    4.4000 O.2   1275  ARH1275    -0.2852
     11  O11       18.7700   -9.4000    8.9260 O.2   1275  ARH1275    -0.2850
     12  N12       19.5220   -5.2020    6.7000 N.pl3 1275  ARH1275    -0.3032
     13  C13       18.9640   -3.8680    6.3620 C.3   1275  ARH1275     0.1105
     14  C14       19.3340   -4.1190    7.7410 C.3   1275  ARH1275     0.0927
     15  C17       18.1870   -4.3400    8.7010 C.3   1275  ARH1275     0.0232
     16  C25       19.2720  -11.9350    7.4360 C.3   1275  ARH1275     0.1305
     17  C32       20.2020  -12.3370    4.2810 C.ar  1275  ARH1275     0.0156
     18  C33       20.4650   -9.2490    3.0430 C.3   1275  ARH1275     0.2102
     19  O34       21.6840   -8.5420    3.0520 O.3   1275  ARH1275    -0.2151
     20  C38       20.0660  -13.6190    4.8930 C.ar  1275  ARH1275     0.0014
     21  C39       20.3050  -14.8240    4.1870 C.ar  1275  ARH1275     0.0000
     22  C40       20.6950  -14.7880    2.8250 C.ar  1275  ARH1275     0.0000
     23  C41       20.8430  -13.5430    2.1840 C.ar  1275  ARH1275     0.0000
     24  C42       20.6000  -12.3450    2.9050 C.ar  1275  ARH1275     0.0014
@<TRIPOS>BOND
     1    23    22   ar
     2    23    24   ar
     3    22    21   ar
     4    24    17   ar
     5    18    19    1
     6    18     9    1
     7    21    20   ar
     8    17    20   ar
     9    17     8    1
    10    10     5    2
    11     9     8   ar
    12     9     4   ar
    13     8     7   ar
    14     5     4    1
    15     5     6    1
    16     4     3   ar
    17    13    12    1
    18    13    14    1
    19     7     3   ar
    20     7    16    1
    21     3     2    1
    22    12     6    1
    23    12    14    1
    24     6     1    2
    25    14    15    1
    26     1     2    1
    27     2    11    2
