@<TRIPOS>MOLECULE
1h6a_NDP_A_1.pdb
 48 52 0 0 0
SMALL
GASTEIGER

@<TRIPOS>ATOM
      1  PA         0.5450   21.5450   62.9890 P.3   500  NDP500      0.2189
      2  O1A        0.1720   22.9540   62.7640 O.2   500  NDP500     -0.5170
      3  O2A       -0.6360   20.6770   62.8110 O.3   500  NDP500     -0.4371
      4  O5B        1.0580   21.4390   64.4520 O.3   500  NDP500     -0.3112
      5  C5B        2.1460   22.1810   64.9940 C.3   500  NDP500      0.1813
      6  C4B        2.1160   21.7820   66.4750 C.3   500  NDP500      0.1820
      7  O4B        3.1530   22.4040   67.2330 O.3   500  NDP500     -0.3136
      8  C3B        0.7720   22.1920   67.0970 C.3   500  NDP500      0.2157
      9  O3B       -0.1110   21.0750   67.1130 O.3   500  NDP500     -0.2175
     10  C2B        1.1440   22.6860   68.4680 C.3   500  NDP500      0.2314
     11  O2B        0.9740   21.6020   69.3750 O.3   500  NDP500     -0.2630
     12  C1B        2.6030   23.1090   68.3820 C.3   500  NDP500      0.3158
     13  N9A        2.7860   24.5820   68.3650 N.pl3 500  NDP500     -0.1439
     14  C8A        3.4090   25.3380   69.3240 C.3   500  NDP500      0.3377
     15  N7A        3.3900   26.6470   68.9870 N.2   500  NDP500     -0.2095
     16  C5A        2.7620   26.6820   67.8350 C.2   500  NDP500      0.2526
     17  C6A        2.4790   27.7900   67.0720 C.2   500  NDP500      0.4393
     18  N6A        2.8430   28.9990   67.4550 N.pl3 500  NDP500      0.2180
     19  N1A        1.7930   27.6220   65.8680 N.2   500  NDP500      0.0021
     20  C2A        1.4150   26.3860   65.4740 C.3   500  NDP500      0.5254
     21  N3A        1.6980   25.3070   66.2310 N.2   500  NDP500     -0.0055
     22  C4A        2.3710   25.4260   67.4220 C.2   500  NDP500      0.3518
     23  O3         1.5960   21.1820   61.8280 O.3   500  NDP500     -0.2703
     24  PN         2.4140   19.9580   61.3430 P.3   500  NDP500      0.2189
     25  O1N        1.9980   19.7470   59.9800 O.2   500  NDP500     -0.5170
     26  O2N        2.1770   18.7810   62.2290 O.3   500  NDP500     -0.4371
     27  O5D        3.9110   20.5360   61.4040 O.3   500  NDP500     -0.3112
     28  C5D        4.7670   20.3260   62.5400 C.3   500  NDP500      0.1813
     29  C4D        6.1720   20.0180   62.0380 C.3   500  NDP500      0.1799
     30  O4D        6.1540   18.7380   61.3860 O.3   500  NDP500     -0.3327
     31  C3D        6.6930   21.0410   60.9850 C.3   500  NDP500      0.2158
     32  O3D        8.0780   21.4210   61.2440 O.3   500  NDP500     -0.2175
     33  C2D        6.5450   20.3040   59.6430 C.3   500  NDP500      0.2309
     34  O2D        7.4760   20.7480   58.6580 O.3   500  NDP500     -0.2158
     35  C1D        6.7200   18.8610   60.0390 C.3   500  NDP500      0.2263
     36  N1N        6.0450   17.9720   59.0930 N.pl3 500  NDP500     -0.2787
     37  C2N        6.7890   16.8860   58.5880 C.3   500  NDP500      0.1244
     38  C3N        6.1640   16.0160   57.6650 C.2   500  NDP500      0.0544
     39  C7N        6.9300   14.8130   57.0870 C.2   500  NDP500      0.2818
     40  O7N        6.3680   14.0700   56.2850 O.2   500  NDP500     -0.2670
     41  N7N        8.1670   14.6740   57.5230 N.am  500  NDP500     -0.0839
     42  C4N        4.8030   16.2450   57.2460 C.2   500  NDP500      0.0033
     43  C5N        4.0380   17.3450   57.7580 C.2   500  NDP500      0.0157
     44  C6N        4.6730   18.2070   58.6860 C.2   500  NDP500      0.0633
     45  P2B        0.1140   21.6240   70.7780 P.3   500  NDP500      0.5328
     46  O1X        0.7250   22.6980   71.7440 O.3   500  NDP500     -0.1145
     47  O2X       -0.1640   20.3910   71.3090 O.3   500  NDP500     -0.1145
     48  O3X       -1.2360   22.1880   70.3590 O.2   500  NDP500     -0.2224
@<TRIPOS>BOND
     1    40    39    2
     2    39    41   am
     3    39    38    1
     4    42    38    2
     5    42    43    1
     6    38    37    1
     7    43    44    2
     8    37    36    1
     9    34    33    1
    10    44    36    1
    11    36    35    1
    12    33    35    1
    13    33    31    1
    14    25    24    2
    15    35    30    1
    16    31    32    1
    17    31    29    1
    18    24    27    1
    19    24    23    1
    20    24    26    1
    21    30    29    1
    22    27    28    1
    23    23     1    1
    24    29    28    1
    25     2     1    2
    26     3     1    1
    27     1     4    1
    28     4     5    1
    29     5     6    1
    30    20    19    1
    31    20    21    1
    32    19    17    2
    33    21    22    2
    34     6     8    1
    35     6     7    1
    36    17    18    1
    37    17    16    1
    38     8     9    1
    39     8    10    1
    40     7    12    1
    41    22    16    1
    42    22    13    1
    43    16    15    2
    44    13    12    1
    45    13    14    1
    46    12    10    1
    47    10    11    1
    48    15    14    1
    49    11    45    1
    50    48    45    2
    51    45    47    1
    52    45    46    1
