@<TRIPOS>MOLECULE
1h6b_NDP_A_1.pdb
 48 52 0 0 0
SMALL
GASTEIGER

@<TRIPOS>ATOM
      1  PA         0.5670   21.5570   62.9780 P.3   500  NDP500      0.2189
      2  O1A        0.2020   22.9690   62.7100 O.2   500  NDP500     -0.5170
      3  O2A       -0.6280   20.7050   62.8410 O.3   500  NDP500     -0.4371
      4  O5B        1.0880   21.4760   64.4290 O.3   500  NDP500     -0.3112
      5  C5B        2.1420   22.2610   64.9540 C.3   500  NDP500      0.1813
      6  C4B        2.1610   21.8700   66.4400 C.3   500  NDP500      0.1820
      7  O4B        3.1960   22.5500   67.1470 O.3   500  NDP500     -0.3136
      8  C3B        0.8280   22.2430   67.1120 C.3   500  NDP500      0.2157
      9  O3B       -0.0240   21.1090   67.1950 O.3   500  NDP500     -0.2175
     10  C2B        1.2410   22.7820   68.4530 C.3   500  NDP500      0.2314
     11  O2B        1.1570   21.7160   69.4030 O.3   500  NDP500     -0.2630
     12  C1B        2.6700   23.2470   68.3020 C.3   500  NDP500      0.3158
     13  N9A        2.8070   24.7090   68.2800 N.pl3 500  NDP500     -0.1439
     14  C8A        3.3830   25.4800   69.2630 C.3   500  NDP500      0.3377
     15  N7A        3.3390   26.7860   68.9260 N.2   500  NDP500     -0.2095
     16  C5A        2.7370   26.8090   67.7450 C.2   500  NDP500      0.2526
     17  C6A        2.4480   27.9110   66.9730 C.2   500  NDP500      0.4393
     18  N6A        2.7690   29.1260   67.3760 N.pl3 500  NDP500      0.2180
     19  N1A        1.8050   27.7300   65.7490 N.2   500  NDP500      0.0021
     20  C2A        1.4750   26.4880   65.3410 C.3   500  NDP500      0.5254
     21  N3A        1.7610   25.4120   66.1030 N.2   500  NDP500     -0.0055
     22  C4A        2.3950   25.5430   67.3160 C.2   500  NDP500      0.3518
     23  O3         1.5970   21.1440   61.8160 O.3   500  NDP500     -0.2703
     24  PN         2.4000   19.9010   61.3660 P.3   500  NDP500      0.2189
     25  O1N        1.9690   19.6130   60.0080 O.2   500  NDP500     -0.5170
     26  O2N        2.1750   18.7570   62.3010 O.3   500  NDP500     -0.4371
     27  O5D        3.8830   20.5050   61.3920 O.3   500  NDP500     -0.3112
     28  C5D        4.7690   20.2640   62.4880 C.3   500  NDP500      0.1813
     29  C4D        6.1610   19.9910   61.9430 C.3   500  NDP500      0.1799
     30  O4D        6.1590   18.6930   61.3260 O.3   500  NDP500     -0.3327
     31  C3D        6.6060   21.0010   60.8530 C.3   500  NDP500      0.2158
     32  O3D        7.9590   21.4680   61.0910 O.3   500  NDP500     -0.2175
     33  C2D        6.5100   20.2220   59.5250 C.3   500  NDP500      0.2309
     34  O2D        7.4950   20.6550   58.5750 O.3   500  NDP500     -0.2158
     35  C1D        6.6820   18.7830   59.9580 C.3   500  NDP500      0.2263
     36  N1N        5.9830   17.8560   59.0560 N.pl3 500  NDP500     -0.2787
     37  C2N        6.7370   16.7780   58.5220 C.3   500  NDP500      0.1244
     38  C3N        6.0960   15.8730   57.6480 C.2   500  NDP500      0.0544
     39  C7N        6.8660   14.6830   57.0490 C.2   500  NDP500      0.2818
     40  O7N        6.2930   13.9030   56.2920 O.2   500  NDP500     -0.2670
     41  N7N        8.1270   14.5920   57.4180 N.am  500  NDP500     -0.0839
     42  C4N        4.7120   16.0520   57.3110 C.2   500  NDP500      0.0033
     43  C5N        3.9360   17.1380   57.8470 C.2   500  NDP500      0.0157
     44  C6N        4.5880   18.0360   58.7240 C.2   500  NDP500      0.0633
     45  P2B        0.1500   21.6520   70.7010 P.3   500  NDP500      0.5328
     46  O1X        0.6130   22.7130   71.7720 O.3   500  NDP500     -0.1145
     47  O2X       -0.1310   20.3960   71.1510 O.3   500  NDP500     -0.1145
     48  O3X       -1.1640   22.1810   70.1620 O.2   500  NDP500     -0.2224
@<TRIPOS>BOND
     1    40    39    2
     2    39    41   am
     3    39    38    1
     4    42    38    2
     5    42    43    1
     6    38    37    1
     7    43    44    2
     8    37    36    1
     9    34    33    1
    10    44    36    1
    11    36    35    1
    12    33    35    1
    13    33    31    1
    14    35    30    1
    15    25    24    2
    16    31    32    1
    17    31    29    1
    18    30    29    1
    19    24    27    1
    20    24    23    1
    21    24    26    1
    22    27    28    1
    23    23     1    1
    24    29    28    1
    25     2     1    2
    26     3     1    1
    27     1     4    1
    28     4     5    1
    29     5     6    1
    30    20    19    1
    31    20    21    1
    32    19    17    2
    33    21    22    2
    34     6     8    1
    35     6     7    1
    36    17    18    1
    37    17    16    1
    38     8     9    1
    39     8    10    1
    40     7    12    1
    41    22    16    1
    42    22    13    1
    43    16    15    2
    44    13    12    1
    45    13    14    1
    46    12    10    1
    47    10    11    1
    48    15    14    1
    49    11    45    1
    50    48    45    2
    51    45    47    1
    52    45    46    1
