@<TRIPOS>MOLECULE
1h6c_NDP_A_1.pdb
 48 52 0 0 0
SMALL
GASTEIGER

@<TRIPOS>ATOM
      1  PA         0.5240   21.6530   62.8990 P.3   500  NDP500      0.2189
      2  O1A        0.2120   23.0940   62.6790 O.3   500  NDP500     -0.4371
      3  O2A       -0.6870   20.8400   62.6770 O.2   500  NDP500     -0.5170
      4  O5B        0.9860   21.5190   64.3780 O.3   500  NDP500     -0.3112
      5  C5B        2.0800   22.2390   64.9470 C.3   500  NDP500      0.1813
      6  C4B        2.0170   21.8570   66.4280 C.3   500  NDP500      0.1820
      7  O4B        3.0670   22.4550   67.1900 O.3   500  NDP500     -0.3136
      8  C3B        0.6830   22.3290   67.0400 C.3   500  NDP500      0.2157
      9  O3B       -0.3000   21.2890   67.0330 O.3   500  NDP500     -0.2175
     10  C2B        1.0700   22.7820   68.4190 C.3   500  NDP500      0.2314
     11  O2B        0.8590   21.6810   69.3050 O.3   500  NDP500     -0.2630
     12  C1B        2.5440   23.1730   68.3290 C.3   500  NDP500      0.3158
     13  N9A        2.7510   24.6400   68.3320 N.pl3 500  NDP500     -0.1439
     14  C8A        3.4060   25.3730   69.2990 C.3   500  NDP500      0.3377
     15  N7A        3.3980   26.6910   68.9920 N.2   500  NDP500     -0.2095
     16  C5A        2.7460   26.7620   67.8510 C.2   500  NDP500      0.2526
     17  C6A        2.4620   27.8980   67.1120 C.2   500  NDP500      0.4393
     18  N6A        2.8440   29.0940   67.5190 N.pl3 500  NDP500      0.2180
     19  N1A        1.7550   27.7650   65.9210 N.2   500  NDP500      0.0021
     20  C2A        1.3560   26.5450   65.4980 C.3   500  NDP500      0.5254
     21  N3A        1.6320   25.4380   66.2200 N.2   500  NDP500     -0.0055
     22  C4A        2.3330   25.5200   67.4050 C.2   500  NDP500      0.3518
     23  O3         1.5790   21.2480   61.7490 O.3   500  NDP500     -0.2703
     24  PN         2.3590   19.9780   61.2750 P.3   500  NDP500      0.2189
     25  O1N        1.8900   19.7450   59.9240 O.2   500  NDP500     -0.5170
     26  O2N        2.0840   18.8400   62.1820 O.3   500  NDP500     -0.4371
     27  O5D        3.8770   20.5030   61.2300 O.3   500  NDP500     -0.3112
     28  C5D        4.7710   20.3560   62.3450 C.3   500  NDP500      0.1813
     29  C4D        6.1720   20.0800   61.8140 C.3   500  NDP500      0.1799
     30  O4D        6.2110   18.7540   61.2540 O.3   500  NDP500     -0.3327
     31  C3D        6.6120   21.0450   60.6800 C.3   500  NDP500      0.2158
     32  O3D        7.9910   21.4580   60.8660 O.3   500  NDP500     -0.2175
     33  C2D        6.4470   20.2230   59.3900 C.3   500  NDP500      0.2309
     34  O2D        7.3640   20.6170   58.3610 O.3   500  NDP500     -0.2158
     35  C1D        6.6630   18.8110   59.8610 C.3   500  NDP500      0.2263
     36  N1N        5.9360   17.8610   59.0220 N.pl3 500  NDP500     -0.2787
     37  C2N        6.6830   16.7850   58.4680 C.3   500  NDP500      0.1244
     38  C3N        6.0100   15.8590   57.6500 C.2   500  NDP500      0.0544
     39  C7N        6.7570   14.6630   57.0170 C.2   500  NDP500      0.2818
     40  O7N        6.1430   13.8840   56.3090 O.2   500  NDP500     -0.2670
     41  N7N        8.0410   14.5740   57.3020 N.am  500  NDP500     -0.0839
     42  C4N        4.6030   16.0110   57.3890 C.2   500  NDP500      0.0033
     43  C5N        3.8430   17.0950   57.9490 C.2   500  NDP500      0.0157
     44  C6N        4.5240   18.0150   58.7690 C.2   500  NDP500      0.0633
     45  P2B        0.1160   21.7470   70.7720 P.3   500  NDP500      0.5328
     46  O1X        0.7380   22.9210   71.6180 O.3   500  NDP500     -0.1145
     47  O2X       -0.0420   20.5350   71.4020 O.3   500  NDP500     -0.1145
     48  O3X       -1.3050   22.2090   70.4330 O.2   500  NDP500     -0.2224
@<TRIPOS>BOND
     1    40    39    2
     2    39    41   am
     3    39    38    1
     4    42    38    2
     5    42    43    1
     6    38    37    1
     7    43    44    2
     8    34    33    1
     9    37    36    1
    10    44    36    1
    11    36    35    1
    12    33    35    1
    13    33    31    1
    14    35    30    1
    15    25    24    2
    16    31    32    1
    17    31    29    1
    18    27    24    1
    19    27    28    1
    20    30    29    1
    21    24    23    1
    22    24    26    1
    23    23     1    1
    24    29    28    1
    25     3     1    2
    26     2     1    1
    27     1     4    1
    28     4     5    1
    29     5     6    1
    30    20    19    1
    31    20    21    1
    32    19    17    2
    33    21    22    2
    34     6     8    1
    35     6     7    1
    36     9     8    1
    37     8    10    1
    38    17    18    1
    39    17    16    1
    40     7    12    1
    41    22    16    1
    42    22    13    1
    43    16    15    2
    44    12    13    1
    45    12    10    1
    46    13    14    1
    47    10    11    1
    48    15    14    1
    49    11    45    1
    50    48    45    2
    51    45    47    1
    52    45    46    1
