@<TRIPOS>MOLECULE
1h6d_NDP_A_1.pdb
 48 52 0 0 0
SMALL
GASTEIGER

@<TRIPOS>ATOM
      1  PA        64.0990   -7.8140   44.7350 P.3   500  NDP500      0.2189
      2  O1A       63.9250   -8.1820   46.1640 O.3   500  NDP500     -0.4371
      3  O2A       63.8860   -9.0070   43.8750 O.2   500  NDP500     -0.5170
      4  O5B       65.5560   -7.3180   44.5810 O.3   500  NDP500     -0.3112
      5  C5B       66.1180   -6.2120   45.2660 C.3   500  NDP500      0.1813
      6  C4B       67.5830   -6.2980   44.8450 C.3   500  NDP500      0.1820
      7  O4B       68.3620   -5.2340   45.4030 O.3   500  NDP500     -0.3136
      8  C3B       68.1950   -7.6260   45.3510 C.3   500  NDP500      0.2157
      9  O3B       68.1330   -8.6610   44.3770 O.3   500  NDP500     -0.2175
     10  C2B       69.5920   -7.2380   45.7320 C.3   500  NDP500      0.2314
     11  O2B       70.4160   -7.4550   44.5870 O.3   500  NDP500     -0.2630
     12  C1B       69.5120   -5.7620   46.1230 C.3   500  NDP500      0.3158
     13  N9A       69.5270   -5.5580   47.5970 N.pl3 500  NDP500     -0.1439
     14  C8A       70.4840   -4.8790   48.3080 C.3   500  NDP500      0.3377
     15  N7A       70.2020   -4.8990   49.6320 N.2   500  NDP500     -0.2095
     16  C5A       69.0780   -5.5830   49.7300 C.2   500  NDP500      0.2526
     17  C6A       68.3740   -5.8900   50.8820 C.2   500  NDP500      0.4393
     18  N6A       68.7920   -5.5040   52.0760 N.pl3 500  NDP500      0.2180
     19  N1A       67.2030   -6.6260   50.7710 N.2   500  NDP500      0.0021
     20  C2A       66.7670   -7.0330   49.5510 C.3   500  NDP500      0.5254
     21  N3A       67.4590   -6.7350   48.4330 N.2   500  NDP500     -0.0055
     22  C4A       68.6260   -6.0040   48.4920 C.2   500  NDP500      0.3518
     23  O3        62.9230   -6.7850   44.3650 O.3   500  NDP500     -0.2703
     24  PN        62.4510   -6.0090   43.1050 P.3   500  NDP500      0.2189
     25  O1N       61.1040   -6.4870   42.8330 O.3   500  NDP500     -0.4371
     26  O2N       63.3730   -6.2480   41.9570 O.2   500  NDP500     -0.5170
     27  O5D       62.4300   -4.5180   43.6630 O.3   500  NDP500     -0.3112
     28  C5D       63.5440   -3.6320   43.4980 C.3   500  NDP500      0.1813
     29  C4D       62.9990   -2.2440   43.1910 C.3   500  NDP500      0.1799
     30  O4D       62.3740   -2.2790   41.8970 O.3   500  NDP500     -0.3327
     31  C3D       61.9040   -1.7550   44.1860 C.3   500  NDP500      0.2158
     32  O3D       62.1210   -0.3510   44.5140 O.3   500  NDP500     -0.2175
     33  C2D       60.5720   -1.9450   43.4190 C.3   500  NDP500      0.2309
     34  O2D       59.5650   -0.9970   43.8430 O.3   500  NDP500     -0.2158
     35  C1D       61.0070   -1.7670   41.9820 C.3   500  NDP500      0.2263
     36  N1N       60.1280   -2.4730   41.0410 N.pl3 500  NDP500     -0.2787
     37  C2N       59.6150   -1.7140   39.9470 C.3   500  NDP500      0.1244
     38  C3N       58.7620   -2.3590   39.0240 C.2   500  NDP500      0.0544
     39  C7N       58.1730   -1.5940   37.8130 C.2   500  NDP500      0.2818
     40  O7N       57.4310   -2.1850   37.0330 O.2   500  NDP500     -0.2670
     41  N7N       58.5310   -0.3200   37.7070 N.am  500  NDP500     -0.0839
     42  C4N       58.4300   -3.7480   39.2020 C.2   500  NDP500      0.0033
     43  C5N       58.9510   -4.5200   40.3020 C.2   500  NDP500      0.0157
     44  C6N       59.8040   -3.8660   41.2150 C.2   500  NDP500      0.0633
     45  P2B       71.8740   -8.2350   44.5720 P.3   500  NDP500      0.5328
     46  O1X       72.8410   -7.5410   45.6080 O.3   500  NDP500     -0.1145
     47  O2X       72.3740   -8.4990   43.3280 O.2   500  NDP500     -0.2224
     48  O3X       71.5630   -9.6020   45.1750 O.3   500  NDP500     -0.1145
@<TRIPOS>BOND
     1    40    39    2
     2    41    39   am
     3    39    38    1
     4    38    42    2
     5    38    37    1
     6    42    43    1
     7    37    36    1
     8    43    44    2
     9    36    44    1
    10    36    35    1
    11    30    35    1
    12    30    29    1
    13    26    24    2
    14    35    33    1
    15    25    24    1
    16    24    27    1
    17    24    23    1
    18    29    28    1
    19    29    31    1
    20    47    45    2
    21    33    34    1
    22    33    31    1
    23    28    27    1
    24     3     1    2
    25    31    32    1
    26    23     1    1
    27     9     8    1
    28    45    11    1
    29    45    48    1
    30    45    46    1
    31     4     1    1
    32     4     5    1
    33    11    10    1
    34     1     2    1
    35     6     5    1
    36     6     8    1
    37     6     7    1
    38     8    10    1
    39     7    12    1
    40    10    12    1
    41    12    13    1
    42    13    14    1
    43    13    22    1
    44    14    15    1
    45    21    22    2
    46    21    20    1
    47    22    16    1
    48    20    19    1
    49    15    16    2
    50    16    17    1
    51    19    17    2
    52    17    18    1
