@<TRIPOS>MOLECULE
1h6h_PIB_A_1.pdb
 35 35 0 0 0
SMALL
GASTEIGER

@<TRIPOS>ATOM
      1  C1        10.9490   20.3160    5.6510 C.3   150  PIB150      0.1873
      2  C2        11.8630   19.2320    5.0310 C.3   150  PIB150      0.2120
      3  C3        11.9670   18.0000    6.0020 C.3   150  PIB150      0.1918
      4  C4        10.5280   17.4240    6.3000 C.3   150  PIB150      0.2148
      5  C5         9.6500   18.5310    6.9530 C.3   150  PIB150      0.2173
      6  C6         9.5400   19.7450    5.9740 C.3   150  PIB150      0.2147
      7  O1        10.8220   21.3850    4.7020 O.3   150  PIB150     -0.3111
      8  O2        11.3240   18.8240    3.7830 O.3   150  PIB150     -0.2177
      9  O3        12.8210   17.0480    5.3580 O.3   150  PIB150     -0.2673
     10  O4        10.6080   16.3110    7.2060 O.3   150  PIB150     -0.2176
     11  O5         8.3450   18.0280    7.1970 O.3   150  PIB150     -0.2175
     12  O6         8.7370   20.7580    6.5800 O.3   150  PIB150     -0.2176
     13  P1        11.7070   22.6980    4.6800 P.3   150  PIB150      0.2142
     14  O11       11.7850   23.2070    3.1700 O.2   150  PIB150     -0.5172
     15  O12       13.1300   22.4370    5.2810 O.3   150  PIB150     -0.4373
     16  O13       10.9450   23.7970    5.5800 O.3   150  PIB150     -0.3100
     17  P3        13.8080   16.0370    6.1510 P.3   150  PIB150      0.5327
     18  O31       12.9260   15.0260    6.9970 O.3   150  PIB150     -0.1145
     19  O32       14.6980   16.9070    7.1270 O.3   150  PIB150     -0.1145
     20  O33       14.6690   15.2550    5.0630 O.2   150  PIB150     -0.2224
     21  C7         9.8960   24.5900    5.0580 C.3   150  PIB150      0.1964
     22  C8        10.5070   25.9650    4.8440 C.3   150  PIB150      0.2420
     23  C9        10.3390   26.8560    6.1000 C.3   150  PIB150      0.2543
     24  C10        9.1200   28.8350    6.7970 C.2   150  PIB150      0.3171
     25  C11        8.9280   30.3190    6.4550 C.3   150  PIB150      0.1096
     26  C12        9.1290   31.3280    7.6060 C.3   150  PIB150      0.0116
     27  C13        9.1150   32.7900    7.1320 C.3   150  PIB150      0.0006
     28  C14       10.8730   26.6200    2.4930 C.2   150  PIB150      0.3171
     29  C15       10.3650   27.6260    1.4670 C.3   150  PIB150      0.1096
     30  C16       10.9480   29.0420    1.6070 C.3   150  PIB150      0.0116
     31  C17        9.9960   29.9850    2.3420 C.3   150  PIB150      0.0006
     32  O14       10.0380   26.5760    3.6160 O.3   150  PIB150     -0.4457
     33  O15        9.8700   28.1910    5.8160 O.3   150  PIB150     -0.4444
     34  O16        8.8100   28.3660    7.9060 O.2   150  PIB150     -0.2501
     35  O17       12.0210   26.1790    2.4290 O.2   150  PIB150     -0.2501
@<TRIPOS>BOND
     1    29    30    1
     2    29    28    1
     3    30    31    1
     4    35    28    2
     5    28    32    1
     6    14    13    2
     7    32    22    1
     8     8     2    1
     9    13     7    1
    10    13    15    1
    11    13    16    1
    12     7     1    1
    13    22    21    1
    14    22    23    1
    15     2     1    1
    16     2     3    1
    17    21    16    1
    18    20    17    2
    19     9     3    1
    20     9    17    1
    21     1     6    1
    22    33    23    1
    23    33    24    1
    24     6    12    1
    25     6     5    1
    26     3     4    1
    27    17    18    1
    28    17    19    1
    29     4     5    1
    30     4    10    1
    31    25    24    1
    32    25    26    1
    33    24    34    2
    34     5    11    1
    35    27    26    1
