@<TRIPOS>MOLECULE
1h6m_G2F_A_1.pdb
 11 11 0 0 0
SMALL
GASTEIGER

@<TRIPOS>ATOM
      1  C1         8.5820   23.2870   21.4140 C.3   1131  G2F1131     0.1801
      2  C2         9.4150   23.5440   22.6410 C.3   1131  G2F1131     0.2230
      3  C3         8.5470   23.4410   23.8620 C.3   1131  G2F1131     0.2194
      4  C4         7.1030   24.0320   23.6860 C.3   1131  G2F1131     0.2144
      5  C5         6.4600   23.5570   22.3810 C.3   1131  G2F1131     0.1810
      6  C6         5.1420   24.2720   22.0810 C.3   1131  G2F1131     0.2141
      7  O3         9.2520   24.1770   24.8870 O.3   1131  G2F1131    -0.2173
      8  O4         6.4370   23.5510   24.8260 O.3   1131  G2F1131    -0.2176
      9  O5         7.2990   23.8490   21.3470 O.3   1131  G2F1131    -0.3479
     10  O6         5.4300   25.6340   21.7580 O.3   1131  G2F1131    -0.2176
     11  F2        10.4670   22.6400   22.6970 F     1131  G2F1131    -0.2317
@<TRIPOS>BOND
     1     9     1    1
     2     9     5    1
     3     1     2    1
     4    10     6    1
     5     6     5    1
     6     5     4    1
     7     2    11    1
     8     2     3    1
     9     4     3    1
    10     4     8    1
    11     3     7    1
