@<TRIPOS>MOLECULE
1h6v_NDP_A_1.pdb
 39 42 0 0 0
SMALL
GASTEIGER

@<TRIPOS>ATOM
      1  PA        31.6430   25.3930  133.4660 P.3   601  NDP601      0.2189
      2  O1A       30.1540   25.6160  133.7270 O.2   601  NDP601     -0.5170
      3  O2A       32.6880   26.0280  134.6500 O.3   601  NDP601     -0.4371
      4  O5B       31.8810   23.8120  133.3450 O.3   601  NDP601     -0.3112
      5  C5B       33.1810   23.4440  133.7690 C.3   601  NDP601      0.1813
      6  C4B       33.3120   22.5800  135.0180 C.3   601  NDP601      0.1820
      7  O4B       34.6830   22.1930  134.9890 O.3   601  NDP601     -0.3136
      8  C3B       33.2240   23.2820  136.3580 C.3   601  NDP601      0.2157
      9  O3B       33.1700   22.2980  137.3980 O.3   601  NDP601     -0.2175
     10  C2B       34.5720   23.9240  136.5540 C.3   601  NDP601      0.2314
     11  O2B       34.9170   24.0630  137.9260 O.3   601  NDP601     -0.2630
     12  C1B       35.4680   22.8760  135.9700 C.3   601  NDP601      0.3158
     13  N9A       36.6450   23.5050  135.3530 N.pl3 601  NDP601     -0.1439
     14  C8A       36.6710   24.5160  134.4500 C.3   601  NDP601      0.3377
     15  N7A       37.9430   24.8240  134.0760 N.2   601  NDP601     -0.2095
     16  C5A       38.7520   24.0030  134.7580 C.2   601  NDP601      0.2526
     17  C6A       40.2090   23.7920  134.8490 C.2   601  NDP601      0.4393
     18  N6A       41.0620   24.5550  134.1150 N.pl3 601  NDP601      0.2180
     19  N1A       40.6360   22.8270  135.6770 N.2   601  NDP601      0.0021
     20  C2A       39.7910   22.0570  136.4000 C.3   601  NDP601      0.5254
     21  N3A       38.4510   22.1920  136.3770 N.2   601  NDP601     -0.0055
     22  C4A       37.8960   23.1290  135.5980 C.2   601  NDP601      0.3518
     23  O3        32.1090   26.1760  132.1360 O.3   601  NDP601     -0.2703
     24  PN        31.4610   25.6590  130.7860 P.3   601  NDP601      0.2189
     25  O1N       32.4060   25.8020  129.6240 O.2   601  NDP601     -0.5170
     26  O2N       31.1140   24.0340  131.2160 O.3   601  NDP601     -0.4371
     27  O5D       30.1570   26.5900  130.5680 O.3   601  NDP601     -0.3112
     28  C5D       29.7220   27.5930  131.4900 C.3   601  NDP601      0.1812
     29  C4D       28.2060   27.5040  131.6790 C.3   601  NDP601      0.1780
     30  O4D       27.8860   27.1990  133.0440 O.3   601  NDP601     -0.3482
     31  C3D       27.4850   28.8090  131.3570 C.3   601  NDP601      0.2140
     32  O3D       26.9880   28.8130  130.0120 O.3   601  NDP601     -0.2176
     33  C2D       26.3710   28.9280  132.3960 C.3   601  NDP601      0.2140
     34  O2D       25.0740   28.6840  131.8340 O.3   601  NDP601     -0.2176
     35  C1D       26.6900   27.8780  133.4560 C.3   601  NDP601      0.1777
     36  P2B       34.7700   25.4990  138.6080 P.3   601  NDP601      0.5328
     37  O1X       33.4360   25.6360  139.3160 O.3   601  NDP601     -0.1145
     38  O2X       34.7300   26.7230  137.4300 O.2   601  NDP601     -0.2224
     39  O3X       36.0200   25.6230  139.7150 O.3   601  NDP601     -0.1145
@<TRIPOS>BOND
     1    25    24    2
     2    32    31    1
     3    27    24    1
     4    27    28    1
     5    24    26    1
     6    24    23    1
     7    31    29    1
     8    31    33    1
     9    28    29    1
    10    29    30    1
    11    34    33    1
    12    23     1    1
    13    33    35    1
    14    30    35    1
    15     4     1    1
    16     4     5    1
    17     1     2    2
    18     1     3    1
    19     5     6    1
    20    15    14    1
    21    15    16    2
    22    18    17    1
    23    14    13    1
    24    16    17    1
    25    16    22    1
    26    17    19    2
    27     7     6    1
    28     7    12    1
    29     6     8    1
    30    13    22    1
    31    13    12    1
    32    22    21    2
    33    19    20    1
    34    12    10    1
    35     8    10    1
    36     8     9    1
    37    21    20    1
    38    10    11    1
    39    38    36    2
    40    11    36    1
    41    36    37    1
    42    36    39    1
