@<TRIPOS>MOLECULE
1h70_CIR_A_1.pdb
 12 11 0 0 0
SMALL
GASTEIGER

@<TRIPOS>ATOM
      1  C1        26.3950    3.9040    4.9230 C.2   500  CIR500      0.3819
      2  O1        26.4310    2.6380    5.0020 O.co2 500  CIR500     -0.2441
      3  O2        26.0850    4.4710    3.7960 O.co2 500  CIR500     -0.2441
      4  C2        26.6420    4.7430    6.1480 C.3   500  CIR500      0.1944
      5  N2        27.2210    6.0420    5.7560 N.3   500  CIR500     -0.1208
      6  C3        25.3150    4.9440    6.9210 C.3   500  CIR500      0.0324
      7  C4        24.8590    3.6010    7.5200 C.3   500  CIR500      0.0256
      8  C5        23.5390    3.7980    8.2450 C.3   500  CIR500      0.1169
      9  N6        23.1030    2.5520    8.8910 N.am  500  CIR500     -0.1859
     10  C7        22.0820    2.4480    9.7260 C.2   500  CIR500      0.3589
     11  O7        21.3820    3.4170   10.0600 O.2   500  CIR500     -0.2474
     12  N8        21.8070    1.2360   10.2460 N.am  500  CIR500     -0.0679
@<TRIPOS>BOND
     1     3     1   ar
     2     1     2   ar
     3     1     4    1
     4     5     4    1
     5     4     6    1
     6     6     7    1
     7     7     8    1
     8     8     9    1
     9     9    10   am
    10    10    11    2
    11    10    12   am
