@<TRIPOS>MOLECULE
1h72_ANP_C_1.pdb
 31 33 0 0 0
SMALL
GASTEIGER

@<TRIPOS>ATOM
      1  PG        58.8470   42.7090   18.1900 P.3   1301  ANP1301     0.4884
      2  O1G       59.6460   43.4870   19.2090 O.3   1301  ANP1301    -0.1240
      3  O2G       57.7090   43.4950   17.5530 O.3   1301  ANP1301    -0.1240
      4  O3G       59.7400   42.0820   17.1170 O.2   1301  ANP1301    -0.2331
      5  PB        58.4370   39.7400   19.0640 P.3   1301  ANP1301     0.4669
      6  O1B       58.1480   39.3270   17.6640 O.2   1301  ANP1301    -0.2351
      7  O2B       57.8070   38.8430   20.0430 O.3   1301  ANP1301    -0.1253
      8  N3B       58.0890   41.3630   19.0540 N.3   1301  ANP1301    -0.0163
      9  PA        61.2500   39.4430   19.9500 P.3   1301  ANP1301     0.2220
     10  O1A       62.1480   40.4100   19.2200 O.2   1301  ANP1301    -0.5170
     11  O2A       60.9680   39.9090   21.3630 O.3   1301  ANP1301    -0.4370
     12  O3A       59.9960   39.4120   19.0770 O.3   1301  ANP1301    -0.2360
     13  O5'       61.6410   37.8280   19.7940 O.3   1301  ANP1301    -0.3111
     14  C5'       60.7230   37.0200   20.5500 C.3   1301  ANP1301     0.1813
     15  C4'       60.9410   35.4630   20.4790 C.3   1301  ANP1301     0.1821
     16  O4'       62.2660   34.9850   20.1200 O.3   1301  ANP1301    -0.3135
     17  C3'       60.7650   34.6910   21.7510 C.3   1301  ANP1301     0.2184
     18  O3'       60.3340   33.4340   21.3050 O.3   1301  ANP1301    -0.2174
     19  C2'       62.1840   34.5560   22.3180 C.3   1301  ANP1301     0.2570
     20  O2'       62.4590   33.5850   23.2750 O.3   1301  ANP1301    -0.2130
     21  C1'       63.0550   34.3330   21.1590 C.3   1301  ANP1301     0.3186
     22  N9        64.4920   34.7390   21.3530 N.pl3 1301  ANP1301    -0.1439
     23  C8        65.5600   33.9310   21.0920 C.3   1301  ANP1301     0.3377
     24  N7        66.7120   34.5510   21.3370 N.2   1301  ANP1301    -0.2095
     25  C5        66.3620   35.7920   21.7550 C.2   1301  ANP1301     0.2526
     26  C6        67.1950   36.8900   22.1620 C.2   1301  ANP1301     0.4393
     27  N6        68.5350   36.7540   22.1620 N.pl3 1301  ANP1301     0.2180
     28  N1        66.5970   38.0730   22.5520 N.2   1301  ANP1301     0.0021
     29  C2        65.2230   38.1440   22.5380 C.3   1301  ANP1301     0.5254
     30  N3        64.4380   37.1210   22.1700 N.2   1301  ANP1301    -0.0055
     31  C4        64.9570   35.9280   21.7580 C.2   1301  ANP1301     0.3518
@<TRIPOS>BOND
     1     4     1    2
     2     3     1    1
     3     6     5    2
     4     1     8    1
     5     1     2    1
     6     8     5    1
     7     5    12    1
     8     5     7    1
     9    12     9    1
    10    10     9    2
    11    13     9    1
    12    13    14    1
    13     9    11    1
    14    16    15    1
    15    16    21    1
    16    15    14    1
    17    15    17    1
    18    23    24    1
    19    23    22    1
    20    21    22    1
    21    21    19    1
    22    18    17    1
    23    24    25    2
    24    22    31    1
    25    17    19    1
    26    25    31    1
    27    25    26    1
    28    31    30    2
    29    26    27    1
    30    26    28    2
    31    30    29    1
    32    19    20    1
    33    29    28    1
