@<TRIPOS>MOLECULE
1h73_ANP_A_1.pdb
 31 33 0 0 0
SMALL
GASTEIGER

@<TRIPOS>ATOM
      1  PG        60.1000   42.8890   18.0600 P.3   418  ANP418      0.4884
      2  O1G       59.5090   42.4770   16.7260 O.2   418  ANP418     -0.2331
      3  O2G       60.5300   44.3330   18.1130 O.3   418  ANP418     -0.1240
      4  O3G       59.1870   42.5430   19.2310 O.3   418  ANP418     -0.1240
      5  PB        61.8400   41.0750   19.4230 P.3   418  ANP418      0.4669
      6  O1B       63.4490   40.5810   18.9060 O.2   418  ANP418     -0.2351
      7  O2B       62.0940   41.6400   20.8740 O.3   418  ANP418     -0.1253
      8  N3B       61.4100   42.0570   18.1670 N.3   418  ANP418     -0.0163
      9  PA        60.6790   38.9230   19.4330 P.3   418  ANP418      0.2220
     10  O1A       59.3180   38.9630   20.1240 O.3   418  ANP418     -0.4370
     11  O2A       60.5110   39.1950   17.9310 O.2   418  ANP418     -0.5170
     12  O3A       61.6720   40.0980   19.9910 O.3   418  ANP418     -0.2360
     13  O5'       61.2170   37.4420   19.8770 O.3   418  ANP418     -0.3111
     14  C5'       62.4450   36.9210   19.4650 C.3   418  ANP418      0.1813
     15  C4'       62.4530   35.4570   20.0030 C.3   418  ANP418      0.1821
     16  O4'       63.7500   34.9130   19.8380 O.3   418  ANP418     -0.3135
     17  C3'       62.2290   35.1600   21.4700 C.3   418  ANP418      0.2184
     18  O3'       61.5260   33.9120   21.4260 O.3   418  ANP418     -0.2174
     19  C2'       63.6070   34.8930   22.0770 C.3   418  ANP418      0.2570
     20  O2'       63.7280   33.9240   23.0870 O.3   418  ANP418     -0.2130
     21  C1'       64.5130   34.5070   20.9720 C.3   418  ANP418      0.3186
     22  N9        65.9300   35.0630   21.1110 N.pl3 418  ANP418     -0.1439
     23  C8        67.0670   34.3770   20.8140 C.3   418  ANP418      0.3377
     24  N7        68.1490   35.0990   21.0430 N.2   418  ANP418     -0.2095
     25  C5        67.7030   36.2830   21.4970 C.2   418  ANP418      0.2526
     26  C6        68.4580   37.4440   21.9100 C.2   418  ANP418      0.4393
     27  N6        69.8420   37.4020   21.8590 N.pl3 418  ANP418      0.2180
     28  N1        67.7680   38.5750   22.3540 N.2   418  ANP418      0.0021
     29  C2        66.3960   38.5190   22.3770 C.3   418  ANP418      0.5254
     30  N3        65.6790   37.4260   21.9930 N.2   418  ANP418     -0.0055
     31  C4        66.2980   36.2850   21.5480 C.2   418  ANP418      0.3518
@<TRIPOS>BOND
     1     2     1    2
     2    11     9    2
     3     1     3    1
     4     1     8    1
     5     1     4    1
     6     8     5    1
     7     6     5    2
     8     5    12    1
     9     5     7    1
    10     9    13    1
    11     9    12    1
    12     9    10    1
    13    14    13    1
    14    14    15    1
    15    16    15    1
    16    16    21    1
    17    15    17    1
    18    23    24    1
    19    23    22    1
    20    21    22    1
    21    21    19    1
    22    24    25    2
    23    22    31    1
    24    18    17    1
    25    17    19    1
    26    25    31    1
    27    25    26    1
    28    31    30    2
    29    27    26    1
    30    26    28    2
    31    30    29    1
    32    19    20    1
    33    28    29    1
