@<TRIPOS>MOLECULE
1h74_AGS_B_1.pdb
 31 33 0 0 0
SMALL
GASTEIGER

@<TRIPOS>ATOM
      1  PG        48.7100   17.7980  103.6020 P.3   400  AGS400      0.4340
      2  S1G       46.8610   17.8190  102.9290 S.3   400  AGS400      0.0416
      3  O2G       49.5910   16.6690  102.9500 O.2   400  AGS400     -0.2423
      4  O3G       49.3950   19.1070  103.3110 O.3   400  AGS400     -0.1305
      5  PB        49.5320   17.5710  106.3920 P.3   400  AGS400      0.2262
      6  O1B       48.9430   18.3520  107.5440 O.3   400  AGS400     -0.4369
      7  O2B       50.8880   17.9410  105.9050 O.2   400  AGS400     -0.5168
      8  O3B       48.5680   17.6460  105.2320 O.3   400  AGS400     -0.2405
      9  PA        50.3140   14.6780  106.2010 P.3   400  AGS400      0.2189
     10  O1A       49.5700   13.4690  106.7130 O.3   400  AGS400     -0.4371
     11  O2A       50.4710   14.7130  104.7050 O.2   400  AGS400     -0.5170
     12  O3A       49.5050   16.0070  106.7260 O.3   400  AGS400     -0.2701
     13  O5'       51.7850   14.9300  106.9280 O.3   400  AGS400     -0.3112
     14  C5'       51.8870   14.5460  108.3240 C.3   400  AGS400      0.1813
     15  C4'       52.6750   13.2400  108.5230 C.3   400  AGS400      0.1821
     16  O4'       54.1300   13.4930  108.5600 O.3   400  AGS400     -0.3135
     17  C3'       52.4130   12.4530  109.8090 C.3   400  AGS400      0.2184
     18  O3'       52.4080   11.0470  109.6020 O.3   400  AGS400     -0.2174
     19  C2'       53.4960   12.9910  110.7760 C.3   400  AGS400      0.2570
     20  O2'       53.8450   12.1270  111.8470 O.3   400  AGS400     -0.2130
     21  C1'       54.6650   13.3270  109.8860 C.3   400  AGS400      0.3186
     22  N9        55.4310   14.5720  110.2920 N.pl3 400  AGS400     -0.1439
     23  C8        56.8060   14.5510  110.3570 C.3   400  AGS400      0.3377
     24  N7        57.3810   15.6960  110.7280 N.2   400  AGS400     -0.2095
     25  C5        56.3190   16.5420  110.9290 C.2   400  AGS400      0.2526
     26  C6        56.2290   17.9270  111.3410 C.2   400  AGS400      0.4393
     27  N6        57.3020   18.6920  111.6390 N.pl3 400  AGS400      0.2180
     28  N1        54.9720   18.4790  111.4400 N.2   400  AGS400      0.0021
     29  C2        53.8700   17.7250  111.1470 C.3   400  AGS400      0.5254
     30  N3        53.8330   16.4110  110.7500 N.2   400  AGS400     -0.0055
     31  C4        55.0940   15.8690  110.6540 C.2   400  AGS400      0.3518
@<TRIPOS>BOND
     1     2     1    1
     2     3     1    2
     3     4     1    1
     4     1     8    1
     5    11     9    2
     6     8     5    1
     7     7     5    2
     8     9    10    1
     9     9    12    1
    10     9    13    1
    11     5    12    1
    12     5     6    1
    13    13    14    1
    14    14    15    1
    15    15    16    1
    16    15    17    1
    17    16    21    1
    18    18    17    1
    19    17    19    1
    20    21    22    1
    21    21    19    1
    22    22    23    1
    23    22    31    1
    24    23    24    1
    25    31    30    2
    26    31    25    1
    27    24    25    2
    28    30    29    1
    29    19    20    1
    30    25    26    1
    31    29    28    1
    32    26    28    2
    33    26    27    1
