@<TRIPOS>MOLECULE
1h74_ADP_A_1.pdb
 27 29 0 0 0
SMALL
GASTEIGER

@<TRIPOS>ATOM
      1  PB        36.0910   27.6780   59.8590 P.3   400  ADP400      0.5373
      2  O1B       36.4930   28.6890   58.8320 O.2   400  ADP400     -0.2221
      3  O2B       34.8520   27.9530   60.7600 O.3   400  ADP400     -0.1143
      4  O3B       37.2400   27.4260   60.7580 O.3   400  ADP400     -0.1143
      5  PA        34.8920   25.1190   59.5010 P.3   400  ADP400      0.2231
      6  O1A       35.1670   23.9600   58.5380 O.2   400  ADP400     -0.5169
      7  O2A       34.9640   24.7270   60.9880 O.3   400  ADP400     -0.4370
      8  O3A       35.9280   26.2920   59.1930 O.3   400  ADP400     -0.2261
      9  O5'       33.5220   25.9960   59.2190 O.3   400  ADP400     -0.3111
     10  C5'       33.2770   26.4760   57.8750 C.3   400  ADP400      0.1813
     11  C4'       31.9780   25.9200   57.3610 C.3   400  ADP400      0.1821
     12  O4'       30.8120   26.8330   57.4770 O.3   400  ADP400     -0.3135
     13  C3'       31.9070   25.4990   55.8690 C.3   400  ADP400      0.2184
     14  O3'       31.0720   24.3680   55.6460 O.3   400  ADP400     -0.2174
     15  C2'       31.4600   26.7870   55.2140 C.3   400  ADP400      0.2570
     16  O2'       31.0270   26.7760   53.8780 O.3   400  ADP400     -0.2130
     17  C1'       30.4430   27.3270   56.1820 C.3   400  ADP400      0.3186
     18  N9        30.3250   28.8090   56.0740 N.pl3 400  ADP400     -0.1439
     19  C8        29.0850   29.3610   55.9740 C.3   400  ADP400      0.3377
     20  N7        29.0570   30.6850   55.8680 N.2   400  ADP400     -0.2095
     21  C5        30.3450   31.0240   55.9020 C.2   400  ADP400      0.2526
     22  C6        30.9820   32.2790   55.8350 C.2   400  ADP400      0.4393
     23  N6        30.2890   33.4290   55.6940 N.pl3 400  ADP400      0.2180
     24  N1        32.3750   32.3000   55.9050 N.2   400  ADP400      0.0021
     25  C2        33.1080   31.1380   56.0390 C.3   400  ADP400      0.5254
     26  N3        32.5890   29.8660   56.1100 N.2   400  ADP400     -0.0055
     27  C4        31.1830   29.8790   56.0460 C.2   400  ADP400      0.3518
@<TRIPOS>BOND
     1    16    15    1
     2    15    13    1
     3    15    17    1
     4    14    13    1
     5    23    22    1
     6    22    21    1
     7    22    24    2
     8    20    21    2
     9    20    19    1
    10    13    11    1
    11    21    27    1
    12    24    25    1
    13    19    18    1
    14    25    26    1
    15    27    18    1
    16    27    26    2
    17    18    17    1
    18    17    12    1
    19    11    12    1
    20    11    10    1
    21    10     9    1
    22     6     5    2
    23     2     1    2
    24     8     5    1
    25     8     1    1
    26     9     5    1
    27     5     7    1
    28     1     4    1
    29     1     3    1
