@<TRIPOS>MOLECULE
1h78_DCP_A_1.pdb
 28 29 0 0 0
SMALL
GASTEIGER

@<TRIPOS>ATOM
      1  N1        33.7110   79.8960   72.2680 N.am  1588  DCP1588    -0.1802
      2  C2        34.1170   81.1250   71.7280 C.1   1588  DCP1588     0.2756
      3  N3        34.2680   82.2460   72.4760 N.2   1588  DCP1588    -0.3024
      4  C4        34.0310   82.2340   73.8150 C.2   1588  DCP1588     0.2346
      5  C5        33.6190   81.0550   74.4720 C.2   1588  DCP1588     0.0687
      6  C6        33.4720   79.9050   73.6470 C.2   1588  DCP1588     0.0835
      7  O2        34.3700   81.2760   70.5030 O.2   1588  DCP1588    -0.1925
      8  N4        34.2120   83.3800   74.4380 N.pl3 1588  DCP1588    -0.0921
      9  C1'       33.5580   78.6750   71.3620 C.3   1588  DCP1588     0.2090
     10  C2'       34.8530   77.8960   71.2260 C.3   1588  DCP1588     0.0874
     11  C3'       34.5200   76.4310   71.4540 C.3   1588  DCP1588     0.1857
     12  C4'       33.0720   76.3830   71.8800 C.3   1588  DCP1588     0.1773
     13  O4'       32.5910   77.7590   71.8480 O.3   1588  DCP1588    -0.3339
     14  O3'       34.5650   75.5910   70.2770 O.3   1588  DCP1588    -0.2203
     15  C5'       33.1930   75.8260   73.2630 C.3   1588  DCP1588     0.1812
     16  O5'       32.8550   76.8600   74.1070 O.3   1588  DCP1588    -0.3112
     17  PA        32.8140   76.9420   75.7090 P.3   1588  DCP1588     0.2189
     18  O1A       32.9140   75.4880   76.2900 O.3   1588  DCP1588    -0.4371
     19  O2A       31.4550   77.5890   75.8160 O.2   1588  DCP1588    -0.5170
     20  O3A       34.1050   77.9730   76.2030 O.3   1588  DCP1588    -0.2700
     21  PB        35.6970   77.4650   76.3940 P.3   1588  DCP1588     0.2277
     22  O1B       36.6150   78.7040   76.7480 O.3   1588  DCP1588    -0.4368
     23  O2B       36.1930   76.7530   75.0350 O.2   1588  DCP1588    -0.5168
     24  O3B       35.9150   76.6270   77.8040 O.3   1588  DCP1588    -0.2258
     25  PG        36.8230   75.2230   78.0140 P.3   1588  DCP1588     0.5373
     26  O1G       36.0180   74.1020   77.1720 O.2   1588  DCP1588    -0.2221
     27  O2G       36.7340   75.0000   79.5820 O.3   1588  DCP1588    -0.1143
     28  O3G       38.3420   75.3870   77.4140 O.3   1588  DCP1588    -0.1143
@<TRIPOS>BOND
     1    14    11    1
     2     7     2    2
     3    10     9    1
     4    10    11    1
     5     9    13    1
     6     9     1    1
     7    11    12    1
     8     2     1   am
     9     2     3    2
    10    13    12    1
    11    12    15    1
    12     1     6    1
    13     3     4    2
    14    15    16    1
    15     6     5    2
    16     4     8    1
    17     4     5    1
    18    16    17    1
    19    23    21    2
    20    17    19    2
    21    17    20    1
    22    17    18    1
    23    20    21    1
    24    21    22    1
    25    21    24    1
    26    26    25    2
    27    28    25    1
    28    24    25    1
    29    25    27    1
