@<TRIPOS>MOLECULE
1h79_TTP_A_1.pdb
 29 30 0 0 0
SMALL
GASTEIGER

@<TRIPOS>ATOM
      1  PA        42.8360   40.7050   63.3530 P.3   1586  TTP1586     0.2189
      2  O1A       42.4550   39.2800   63.4790 O.2   1586  TTP1586    -0.5170
      3  O2A       43.9980   41.1620   64.1570 O.3   1586  TTP1586    -0.4371
      4  O3A       43.0130   41.1450   61.8040 O.3   1586  TTP1586    -0.2700
      5  PB        44.2470   40.6210   60.8780 P.3   1586  TTP1586     0.2277
      6  O1B       45.0150   41.8050   60.4030 O.3   1586  TTP1586    -0.4368
      7  O2B       43.6030   39.7770   59.8270 O.2   1586  TTP1586    -0.5168
      8  O3B       45.1690   39.7250   61.8710 O.3   1586  TTP1586    -0.2258
      9  PG        45.2890   38.1250   61.7460 P.3   1586  TTP1586     0.5373
     10  O1G       43.9470   37.5370   61.8720 O.3   1586  TTP1586    -0.1143
     11  O2G       46.2790   37.7360   62.7840 O.3   1586  TTP1586    -0.1143
     12  O3G       45.8970   37.8750   60.2810 O.2   1586  TTP1586    -0.2221
     13  O5'       41.6050   41.5780   63.8540 O.3   1586  TTP1586    -0.3112
     14  C5'       40.5530   40.9520   64.5810 C.3   1586  TTP1586     0.1812
     15  C4'       39.2710   41.7820   64.5260 C.3   1586  TTP1586     0.1773
     16  O4'       39.5830   43.1670   64.4550 O.3   1586  TTP1586    -0.3339
     17  C3'       38.4370   41.5660   63.2890 C.3   1586  TTP1586     0.1857
     18  O3'       37.0730   41.2390   63.6060 O.3   1586  TTP1586    -0.2203
     19  C2'       38.4820   42.9140   62.5540 C.3   1586  TTP1586     0.0874
     20  C1'       38.9540   43.8790   63.3710 C.3   1586  TTP1586     0.2090
     21  N1        39.6950   44.9020   62.7400 N.am  1586  TTP1586    -0.1794
     22  C2        39.3310   46.2450   63.0020 C.1   1586  TTP1586     0.2844
     23  O2        38.3410   46.5160   63.6920 O.2   1586  TTP1586    -0.1918
     24  N3        40.1140   47.2900   62.4710 N.2   1586  TTP1586    -0.2455
     25  C4        41.2470   47.0040   61.6880 C.1   1586  TTP1586     0.2134
     26  O4        41.9060   47.9350   61.2450 O.2   1586  TTP1586    -0.2088
     27  C5        41.6190   45.6800   61.4160 C.2   1586  TTP1586     0.0891
     28  C5M       42.8710   45.3690   60.5820 C.3   1586  TTP1586     0.0462
     29  C6        40.8510   44.6350   61.9310 C.2   1586  TTP1586     0.0877
@<TRIPOS>BOND
     1     7     5    2
     2    12     9    2
     3     6     5    1
     4    28    27    1
     5     5     4    1
     6     5     8    1
     7    26    25    2
     8    27    25    1
     9    27    29    2
    10    25    24    2
    11     9     8    1
    12     9    10    1
    13     9    11    1
    14     4     1    1
    15    29    21    1
    16    24    22    2
    17    19    17    1
    18    19    20    1
    19    21    22   am
    20    21    20    1
    21    22    23    2
    22    17    18    1
    23    17    15    1
    24     1     2    2
    25     1    13    1
    26     1     3    1
    27    20    16    1
    28    13    14    1
    29    16    15    1
    30    15    14    1
