@<TRIPOS>MOLECULE
1h7a_DTP_A_1.pdb
 30 32 0 0 0
SMALL
GASTEIGER

@<TRIPOS>ATOM
      1  PG        44.0960   39.5060   62.3610 P.3   1590  DTP1590     0.5373
      2  O1G       42.8480   39.0640   63.0020 O.3   1590  DTP1590    -0.1143
      3  O2G       45.2740   39.4090   63.2330 O.3   1590  DTP1590    -0.1143
      4  O3G       44.2540   38.9760   60.9710 O.2   1590  DTP1590    -0.2221
      5  PB        43.0210   42.1250   61.4110 P.3   1590  DTP1590     0.2277
      6  O1B       43.9250   43.1950   60.8060 O.3   1590  DTP1590    -0.4368
      7  O2B       42.1760   41.2940   60.5320 O.2   1590  DTP1590    -0.5168
      8  O3B       44.0050   41.1170   62.2600 O.3   1590  DTP1590    -0.2258
      9  PA        42.1320   42.6180   64.1780 P.3   1590  DTP1590     0.2189
     10  O1A       41.8160   41.1970   64.4040 O.2   1590  DTP1590    -0.5170
     11  O2A       43.3500   43.2100   64.8100 O.3   1590  DTP1590    -0.4371
     12  O3A       42.1930   42.8100   62.5950 O.3   1590  DTP1590    -0.2700
     13  O5'       40.8830   43.3720   64.6240 O.3   1590  DTP1590    -0.3112
     14  C5'       39.7120   43.1210   63.9290 C.3   1590  DTP1590     0.1813
     15  C4'       38.5000   43.7840   64.4870 C.3   1590  DTP1590     0.1795
     16  O4'       38.7020   45.2140   64.4180 O.3   1590  DTP1590    -0.3155
     17  C3'       37.3280   43.4950   63.6230 C.3   1590  DTP1590     0.1883
     18  O3'       36.1240   43.7560   64.3870 O.3   1590  DTP1590    -0.2202
     19  C2'       37.6510   44.4330   62.4650 C.3   1590  DTP1590     0.1151
     20  C1'       38.2050   45.7160   63.1570 C.3   1590  DTP1590     0.2873
     21  N9        39.3700   46.4140   62.5080 N.pl3 1590  DTP1590    -0.1460
     22  C8        40.4790   45.9000   61.9030 C.3   1590  DTP1590     0.3377
     23  N7        41.3250   46.7780   61.4560 N.2   1590  DTP1590    -0.2095
     24  C5        40.7280   47.9810   61.7860 C.2   1590  DTP1590     0.2526
     25  C6        41.1120   49.3610   61.5930 C.2   1590  DTP1590     0.4393
     26  N6        42.2460   49.6900   61.0070 N.pl3 1590  DTP1590     0.2180
     27  N1        40.2990   50.3380   62.0350 N.2   1590  DTP1590     0.0021
     28  C2        39.1530   50.0060   62.6350 C.3   1590  DTP1590     0.5254
     29  N3        38.6700   48.7600   62.8820 N.2   1590  DTP1590    -0.0055
     30  C4        39.5300   47.7760   62.4170 C.2   1590  DTP1590     0.3518
@<TRIPOS>BOND
     1     7     5    2
     2     6     5    1
     3     4     1    2
     4    26    25    1
     5     5     8    1
     6     5    12    1
     7    23    24    2
     8    23    22    1
     9    25    24    1
    10    25    27    2
    11    24    30    1
    12    22    21    1
    13    27    28    1
    14     8     1    1
    15     1     2    1
    16     1     3    1
    17    30    21    1
    18    30    29    2
    19    19    20    1
    20    19    17    1
    21    21    20    1
    22    12     9    1
    23    28    29    1
    24    20    16    1
    25    17    18    1
    26    17    15    1
    27    14    15    1
    28    14    13    1
    29     9    10    2
    30     9    13    1
    31     9    11    1
    32    16    15    1
