@<TRIPOS>MOLECULE
1h7f_C5P_B_1.pdb
 21 22 0 0 0
SMALL
GASTEIGER

@<TRIPOS>ATOM
      1  O3P       40.0430   48.0290   56.4520 O.3   1242  C5P1242    -0.1145
      2  P         39.0570   48.5290   55.4440 P.3   1242  C5P1242     0.5327
      3  O1P       37.7400   48.7410   56.1150 O.3   1242  C5P1242    -0.1145
      4  O2P       38.8740   47.4530   54.2730 O.2   1242  C5P1242    -0.2224
      5  O5'       39.5580   49.9240   54.8310 O.3   1242  C5P1242    -0.2675
      6  C5'       39.4890   50.4460   53.4980 C.3   1242  C5P1242     0.1859
      7  C4'       40.8710   50.5790   52.7770 C.3   1242  C5P1242     0.1801
      8  O4'       41.9020   50.9830   53.7130 O.3   1242  C5P1242    -0.3320
      9  C3'       41.3620   49.2670   52.1310 C.3   1242  C5P1242     0.2158
     10  O3'       41.9160   49.5890   50.8420 O.3   1242  C5P1242    -0.2175
     11  C2'       42.4340   48.7840   53.1190 C.3   1242  C5P1242     0.2319
     12  O2'       43.4310   47.9280   52.5540 O.3   1242  C5P1242    -0.2157
     13  C1'       43.0430   50.0960   53.6410 C.3   1242  C5P1242     0.2400
     14  N1        43.7210   49.9070   54.9250 N.am  1242  C5P1242    -0.1778
     15  C2        45.0710   49.8050   54.9910 C.1   1242  C5P1242     0.2756
     16  N3        45.7260   49.6230   56.2700 N.2   1242  C5P1242    -0.3024
     17  C4        45.0660   49.5500   57.3720 C.2   1242  C5P1242     0.2346
     18  C5        43.5920   49.6600   57.2730 C.2   1242  C5P1242     0.0687
     19  C6        42.9900   49.8300   56.0820 C.2   1242  C5P1242     0.0836
     20  O2        45.7960   49.8640   54.0110 O.2   1242  C5P1242    -0.1925
     21  N4        45.6500   49.3860   58.5280 N.pl3 1242  C5P1242    -0.0921
@<TRIPOS>BOND
     1    10     9    1
     2     9     7    1
     3     9    11    1
     4    12    11    1
     5     7     6    1
     6     7     8    1
     7    11    13    1
     8     6     5    1
     9    13     8    1
    10    13    14    1
    11    20    15    2
    12     4     2    2
    13     5     2    1
    14    14    15   am
    15    14    19    1
    16    15    16    2
    17     2     3    1
    18     2     1    1
    19    19    18    2
    20    16    17    2
    21    18    17    1
    22    17    21    1
