@<TRIPOS>MOLECULE
1h7g_CTP_B_1.pdb
 29 30 0 0 0
SMALL
GASTEIGER

@<TRIPOS>ATOM
      1  N1        43.6940   49.8110   55.0160 N.am  1243  CTP1243    -0.1778
      2  C2        45.0410   49.6750   55.1260 C.1   1243  CTP1243     0.2756
      3  N3        45.6550   49.5300   56.4280 N.2   1243  CTP1243    -0.3024
      4  C4        44.9690   49.5400   57.5100 C.2   1243  CTP1243     0.2346
      5  C5        43.4990   49.6850   57.3600 C.2   1243  CTP1243     0.0687
      6  C6        42.9330   49.8120   56.1470 C.2   1243  CTP1243     0.0836
      7  O2        45.7910   49.6590   54.1610 O.2   1243  CTP1243    -0.1925
      8  N4        45.5230   49.4070   58.6820 N.pl3 1243  CTP1243    -0.0921
      9  C1'       43.0790   49.9430   53.6930 C.3   1243  CTP1243     0.2400
     10  C2'       42.4210   48.6420   53.2170 C.3   1243  CTP1243     0.2319
     11  O2'       43.3780   47.7140   52.7130 O.3   1243  CTP1243    -0.2157
     12  C3'       41.3810   49.0830   52.1840 C.3   1243  CTP1243     0.2158
     13  C4'       41.0300   50.5080   52.5880 C.3   1243  CTP1243     0.1799
     14  O4'       41.9880   50.8930   53.6000 O.3   1243  CTP1243    -0.3320
     15  O3'       41.9040   49.1360   50.8600 O.3   1243  CTP1243    -0.2175
     16  C5'       39.5510   50.5760   53.0530 C.3   1243  CTP1243     0.1813
     17  O5'       39.4510   51.1760   54.3490 O.3   1243  CTP1243    -0.3112
     18  PA        38.9550   50.3340   55.6060 P.3   1243  CTP1243     0.2189
     19  O1A       39.5610   50.8750   56.8560 O.3   1243  CTP1243    -0.4371
     20  O2A       37.4670   50.5030   55.6590 O.2   1243  CTP1243    -0.5170
     21  O3A       39.3610   48.7940   55.3690 O.3   1243  CTP1243    -0.2700
     22  PB        39.1170   47.8230   56.6350 P.3   1243  CTP1243     0.2277
     23  O1B       40.2470   46.8500   56.6770 O.3   1243  CTP1243    -0.4368
     24  O2B       37.8490   47.0560   56.4200 O.2   1243  CTP1243    -0.5168
     25  O3B       39.1410   48.6900   58.0140 O.3   1243  CTP1243    -0.2258
     26  PG        37.7450   48.8670   58.8370 P.3   1243  CTP1243     0.5373
     27  O1G       37.3080   47.5740   59.4440 O.3   1243  CTP1243    -0.1143
     28  O2G       36.6690   49.3930   57.9490 O.2   1243  CTP1243    -0.2221
     29  O3G       37.9860   49.9340   60.0070 O.3   1243  CTP1243    -0.1143
@<TRIPOS>BOND
     1    15    12    1
     2    12    13    1
     3    12    10    1
     4    13    16    1
     5    13    14    1
     6    11    10    1
     7    16    17    1
     8    10     9    1
     9    14     9    1
    10     9     1    1
    11     7     2    2
    12    17    18    1
    13     1     2   am
    14     1     6    1
    15     2     3    2
    16    21    18    1
    17    21    22    1
    18    18    20    2
    19    18    19    1
    20     6     5    2
    21    24    22    2
    22     3     4    2
    23    22    23    1
    24    22    25    1
    25     5     4    1
    26     4     8    1
    27    28    26    2
    28    25    26    1
    29    26    27    1
    30    26    29    1
