@<TRIPOS>MOLECULE
1h7h_CDP_A_1.pdb
 25 26 0 0 0
SMALL
GASTEIGER

@<TRIPOS>ATOM
      1  N1        15.3220   89.9790   68.4730 N.am  1246  CDP1246    -0.1778
      2  C2        15.0760   91.1130   67.7430 C.1   1246  CDP1246     0.2756
      3  N3        14.2810   91.0480   66.5300 N.2   1246  CDP1246    -0.3024
      4  C4        13.7840   89.9470   66.0950 C.2   1246  CDP1246     0.2346
      5  C5        14.0650   88.7220   66.9010 C.2   1246  CDP1246     0.0687
      6  C6        14.8060   88.7860   68.0330 C.2   1246  CDP1246     0.0836
      7  O2        15.4960   92.2220   68.0570 O.2   1246  CDP1246    -0.1925
      8  N4        13.0640   89.8940   64.9960 N.pl3 1246  CDP1246    -0.0921
      9  C1'       16.1310   90.0550   69.7130 C.3   1246  CDP1246     0.2400
     10  C2'       15.3520   89.5300   70.9510 C.3   1246  CDP1246     0.2319
     11  O2'       14.4460   90.5140   71.4860 O.3   1246  CDP1246    -0.2157
     12  C3'       16.4570   89.0770   71.9170 C.3   1246  CDP1246     0.2158
     13  C4'       17.5110   88.4910   70.9480 C.3   1246  CDP1246     0.1799
     14  O4'       17.3630   89.2480   69.7150 O.3   1246  CDP1246    -0.3320
     15  O3'       17.0480   90.1840   72.6360 O.3   1246  CDP1246    -0.2175
     16  C5'       17.3570   86.9460   70.7080 C.3   1246  CDP1246     0.1813
     17  O5'       15.9860   86.5720   70.5010 O.3   1246  CDP1246    -0.3111
     18  PA        15.3860   85.1770   71.0330 P.3   1246  CDP1246     0.2231
     19  O1A       16.2510   84.0420   70.5830 O.2   1246  CDP1246    -0.5169
     20  O2A       15.3860   85.2220   72.5330 O.3   1246  CDP1246    -0.4370
     21  O3A       13.8880   84.9910   70.4550 O.3   1246  CDP1246    -0.2261
     22  PB        12.8190   86.1340   70.8700 P.3   1246  CDP1246     0.5373
     23  O1B       13.4320   87.1580   71.7810 O.3   1246  CDP1246    -0.1143
     24  O2B       11.6670   85.4890   71.5770 O.3   1246  CDP1246    -0.1143
     25  O3B       12.2700   86.8560   69.5410 O.2   1246  CDP1246    -0.2221
@<TRIPOS>BOND
     1     8     4    1
     2     4     3    2
     3     4     5    1
     4     3     2    2
     5     5     6    2
     6     2     7    2
     7     2     1   am
     8     6     1    1
     9     1     9    1
    10    25    22    2
    11     9    14    1
    12     9    10    1
    13    14    13    1
    14    21    22    1
    15    21    18    1
    16    17    16    1
    17    17    18    1
    18    19    18    2
    19    16    13    1
    20    22    24    1
    21    22    23    1
    22    13    12    1
    23    10    11    1
    24    10    12    1
    25    18    20    1
    26    12    15    1
