@<TRIPOS>MOLECULE
1h7l_TYD_A_1.pdb
 25 26 0 0 0
SMALL
GASTEIGER

@<TRIPOS>ATOM
      1  PA        16.8720   14.5280   34.7530 P.3   1258  TYD1258     0.2231
      2  O1A       18.1500   14.0630   34.1050 O.3   1258  TYD1258    -0.4370
      3  O2A       15.5750   14.2180   34.0650 O.2   1258  TYD1258    -0.5169
      4  O3A       16.7500   14.0030   36.2650 O.3   1258  TYD1258    -0.2261
      5  PB        16.1760   12.5290   36.6110 P.3   1258  TYD1258     0.5373
      6  O1B       15.4050   12.6790   37.9020 O.3   1258  TYD1258    -0.1143
      7  O2B       17.4940   11.8210   36.7120 O.3   1258  TYD1258    -0.1143
      8  O3B       15.3250   12.0650   35.4660 O.2   1258  TYD1258    -0.2221
      9  O5'       17.0480   16.1090   35.0210 O.3   1258  TYD1258    -0.3111
     10  C5'       16.1200   16.8920   35.7670 C.3   1258  TYD1258     0.1812
     11  C4'       15.9100   18.1930   35.0000 C.3   1258  TYD1258     0.1773
     12  O4'       17.1450   18.9060   34.9150 O.3   1258  TYD1258    -0.3339
     13  C3'       15.4580   17.9210   33.5800 C.3   1258  TYD1258     0.1857
     14  O3'       14.2630   18.6520   33.3770 O.3   1258  TYD1258    -0.2203
     15  C2'       16.5950   18.4200   32.7210 C.3   1258  TYD1258     0.0874
     16  C1'       17.2550   19.4640   33.6280 C.3   1258  TYD1258     0.2090
     17  N1        18.6670   19.7020   33.3910 N.am  1258  TYD1258    -0.1794
     18  C2        19.1100   20.9340   33.1100 C.1   1258  TYD1258     0.2844
     19  O2        18.2760   21.8700   33.0620 O.2   1258  TYD1258    -0.1918
     20  N3        20.4180   21.1850   32.8850 N.2   1258  TYD1258    -0.2455
     21  C4        21.3600   20.2130   32.9260 C.1   1258  TYD1258     0.2134
     22  O4        22.5860   20.4370   32.7020 O.2   1258  TYD1258    -0.2088
     23  C5        20.8830   18.8550   33.2560 C.2   1258  TYD1258     0.0891
     24  C5M       21.8510   17.6880   33.3260 C.3   1258  TYD1258     0.0462
     25  C6        19.5210   18.6740   33.4660 C.2   1258  TYD1258     0.0877
@<TRIPOS>BOND
     1    22    21    2
     2    15    13    1
     3    15    16    1
     4    20    21    2
     5    20    18    2
     6    21    23    1
     7    19    18    2
     8    18    17   am
     9    23    24    1
    10    23    25    2
    11    14    13    1
    12    17    25    1
    13    17    16    1
    14    13    11    1
    15    16    12    1
    16     3     1    2
    17     2     1    1
    18     1     9    1
    19     1     4    1
    20    12    11    1
    21    11    10    1
    22     9    10    1
    23     8     5    2
    24     4     5    1
    25     5     7    1
    26     5     6    1
