@<TRIPOS>MOLECULE
1h7p_KAH_A_1.pdb
 10 9 0 0 0
SMALL
GASTEIGER

@<TRIPOS>ATOM
      1  C4        20.4120   24.3750   16.6370 C.3   1341  KAH1341     0.1700
      2  C5        19.7760   24.1990   18.0160 C.3   1341  KAH1341     0.1221
      3  N5        18.4710   24.9000   18.1230 N.3   1341  KAH1341    -0.1302
      4  C6        20.7340   24.6300   19.1170 C.3   1341  KAH1341     0.0232
      5  C3        20.9340   25.7320   16.2610 C.3   1341  KAH1341     0.0462
      6  C2        20.4490   26.3450   14.9720 C.3   1341  KAH1341     0.1167
      7  C1        21.5070   27.0410   14.1310 C.2   1341  KAH1341     0.3649
      8  O1        21.2340   28.0140   13.3930 O.co2 1341  KAH1341    -0.2457
      9  OH1       22.6870   26.6300   14.1730 O.co2 1341  KAH1341    -0.2457
     10  OXT       21.4600   23.3290   16.4890 O.3   1341  KAH1341    -0.2216
@<TRIPOS>BOND
     1     8     7   ar
     2     7     9   ar
     3     7     6    1
     4     6     5    1
     5     5     1    1
     6    10     1    1
     7     1     2    1
     8     2     3    1
     9     2     4    1
