@<TRIPOS>MOLECULE
1h7q_TYD_A_1.pdb
 25 26 0 0 0
SMALL
GASTEIGER

@<TRIPOS>ATOM
      1  PA        16.8720   14.5390   34.5680 P.3   1258  TYD1258     0.2231
      2  O1A       17.9850   14.2350   33.6000 O.2   1258  TYD1258    -0.5169
      3  O2A       15.4690   14.1620   34.2000 O.3   1258  TYD1258    -0.4370
      4  O3A       17.1710   13.9220   36.0080 O.3   1258  TYD1258    -0.2261
      5  PB        16.4220   12.6060   36.5770 P.3   1258  TYD1258     0.5373
      6  O1B       15.8180   12.9820   37.9110 O.3   1258  TYD1258    -0.1143
      7  O2B       17.6400   11.7350   36.5960 O.3   1258  TYD1258    -0.1143
      8  O3B       15.3420   12.1000   35.6510 O.2   1258  TYD1258    -0.2221
      9  O5'       17.0030   16.1420   34.8350 O.3   1258  TYD1258    -0.3111
     10  C5'       16.0330   16.8580   35.5900 C.3   1258  TYD1258     0.1812
     11  C4'       15.7190   18.1460   34.8310 C.3   1258  TYD1258     0.1773
     12  O4'       16.9410   18.9020   34.7620 O.3   1258  TYD1258    -0.3339
     13  C3'       15.2800   17.8540   33.4060 C.3   1258  TYD1258     0.1857
     14  O3'       14.0920   18.6090   33.1600 O.3   1258  TYD1258    -0.2203
     15  C2'       16.4800   18.2920   32.5790 C.3   1258  TYD1258     0.0874
     16  C1'       17.1050   19.3750   33.4400 C.3   1258  TYD1258     0.2090
     17  N1        18.5260   19.6270   33.2400 N.am  1258  TYD1258    -0.1794
     18  C2        18.9600   20.8720   33.0230 C.1   1258  TYD1258     0.2844
     19  O2        18.1620   21.8460   32.9820 O.2   1258  TYD1258    -0.1918
     20  N3        20.2750   21.1000   32.8470 N.2   1258  TYD1258    -0.2455
     21  C4        21.1570   20.1060   32.8890 C.1   1258  TYD1258     0.2134
     22  O4        22.3520   20.3080   32.7020 O.2   1258  TYD1258    -0.2088
     23  C5        20.7220   18.7450   33.1350 C.2   1258  TYD1258     0.0891
     24  C5M       21.7360   17.6140   33.1870 C.3   1258  TYD1258     0.0462
     25  C6        19.3710   18.5760   33.2800 C.2   1258  TYD1258     0.0877
@<TRIPOS>BOND
     1    15    13    1
     2    15    16    1
     3    22    21    2
     4    20    21    2
     5    20    18    2
     6    21    23    1
     7    19    18    2
     8    18    17   am
     9    23    24    1
    10    23    25    2
    11    14    13    1
    12    17    25    1
    13    17    16    1
    14    13    11    1
    15    16    12    1
    16     2     1    2
    17     3     1    1
    18     1     9    1
    19     1     4    1
    20    12    11    1
    21    11    10    1
    22     9    10    1
    23     8     5    2
    24     4     5    1
    25     5     7    1
    26     5     6    1
