@<TRIPOS>MOLECULE
1h7r_SHU_A_1.pdb
 10 9 0 0 0
SMALL
GASTEIGER

@<TRIPOS>ATOM
      1  C4        19.6220   24.7000   15.9400 C.3   1343  SHU1343     0.0083
      2  C5        19.6780   25.1420   17.3880 C.3   1343  SHU1343     0.0645
      3  C6        19.1280   24.0750   18.3280 C.2   1343  SHU1343     0.1511
      4  O6        18.4910   24.3260   19.3670 O.2   1343  SHU1343    -0.2960
      5  C7        19.3870   22.6190   17.9520 C.3   1343  SHU1343     0.0722
      6  C3        19.9730   25.7370   14.8800 C.3   1343  SHU1343     0.0122
      7  C2        21.4700   25.9690   14.8300 C.3   1343  SHU1343     0.1141
      8  C1        21.8640   26.9560   13.7510 C.2   1343  SHU1343     0.3649
      9  O1        21.0510   27.8360   13.4040 O.co2 1343  SHU1343    -0.2457
     10  OH1       23.0050   26.8540   13.2490 O.co2 1343  SHU1343    -0.2457
@<TRIPOS>BOND
     1    10     8   ar
     2     9     8   ar
     3     8     7    1
     4     7     6    1
     5     6     1    1
     6     1     2    1
     7     2     3    1
     8     5     3    1
     9     3     4    2
