@<TRIPOS>MOLECULE
1h7t_SIA_B_1.pdb
 20 20 0 0 0
SMALL
GASTEIGER

@<TRIPOS>ATOM
      1  C1        35.4330   48.5960   55.3460 C.2   1243  SIA1243     0.3914
      2  C2        36.0920   49.6470   54.4880 C.3   1243  SIA1243     0.2203
      3  C3        36.0260   51.0650   55.1620 C.3   1243  SIA1243     0.0760
      4  C4        36.6800   52.1040   54.2040 C.3   1243  SIA1243     0.1773
      5  C5        35.8170   52.0810   52.9120 C.3   1243  SIA1243     0.1552
      6  C6        35.8940   50.6520   52.2750 C.3   1243  SIA1243     0.1710
      7  C7        35.0480   50.5130   50.9740 C.3   1243  SIA1243     0.2134
      8  C8        33.5320   50.7350   51.3030 C.3   1243  SIA1243     0.2173
      9  C9        32.7320   51.4590   50.1820 C.3   1243  SIA1243     0.2175
     10  C10       35.4810   54.0860   51.4910 C.2   1243  SIA1243     0.2420
     11  C11       36.0580   55.0610   50.5120 C.3   1243  SIA1243     0.0964
     12  N5        36.3080   53.0920   51.9590 N.am  1243  SIA1243    -0.2020
     13  O1A       34.1300   48.7670   55.5650 O.co2 1243  SIA1243    -0.2430
     14  O1B       36.0320   47.6260   55.8010 O.co2 1243  SIA1243    -0.2430
     15  O4        36.6340   53.4140   54.8190 O.3   1243  SIA1243    -0.2211
     16  O6        35.3950   49.6670   53.2140 O.3   1243  SIA1243    -0.3429
     17  O7        35.5690   51.4790   50.0330 O.3   1243  SIA1243    -0.2176
     18  O8        32.9360   49.4420   51.5350 O.3   1243  SIA1243    -0.2175
     19  O9        31.4990   51.9830   50.7030 O.3   1243  SIA1243    -0.2175
     20  O10       34.2990   54.2110   51.8230 O.2   1243  SIA1243    -0.2733
@<TRIPOS>BOND
     1    17     7    1
     2     9    19    1
     3     9     8    1
     4    11    10    1
     5     7     8    1
     6     7     6    1
     7     8    18    1
     8    10    20    2
     9    10    12   am
    10    12     5    1
    11     6     5    1
    12     6    16    1
    13     5     4    1
    14    16     2    1
    15     4    15    1
    16     4     3    1
    17     2     3    1
    18     2     1    1
    19     1    13   ar
    20     1    14   ar
