@<TRIPOS>MOLECULE
1h7t_C5P_B_1.pdb
 21 22 0 0 0
SMALL
GASTEIGER

@<TRIPOS>ATOM
      1  O3P       39.4580   47.6960   54.7410 O.3   1242  C5P1242    -0.1145
      2  P         38.7770   48.9560   55.1810 P.3   1242  C5P1242     0.5327
      3  O1P       38.3670   48.8140   56.6160 O.3   1242  C5P1242    -0.1145
      4  O2P       37.4710   49.2070   54.2410 O.2   1242  C5P1242    -0.2224
      5  O5'       39.7390   50.2430   55.0410 O.3   1242  C5P1242    -0.2675
      6  C5'       39.8810   51.1430   53.9220 C.3   1242  C5P1242     0.1859
      7  C4'       41.0940   50.8620   52.9860 C.3   1242  C5P1242     0.1801
      8  O4'       42.3130   51.1740   53.6900 O.3   1242  C5P1242    -0.3320
      9  C3'       41.2040   49.4020   52.4950 C.3   1242  C5P1242     0.2158
     10  O3'       41.5080   49.4010   51.0800 O.3   1242  C5P1242    -0.2175
     11  C2'       42.3620   48.8190   53.3380 C.3   1242  C5P1242     0.2319
     12  O2'       43.1900   47.8640   52.6530 O.3   1242  C5P1242    -0.2157
     13  C1'       43.2070   50.0420   53.7750 C.3   1242  C5P1242     0.2400
     14  N1        43.7620   49.8700   55.1230 N.am  1242  C5P1242    -0.1778
     15  C2        45.1080   49.9010   55.3250 C.1   1242  C5P1242     0.2756
     16  N3        45.6420   49.7270   56.6640 N.2   1242  C5P1242    -0.3024
     17  C4        44.8800   49.5430   57.6830 C.2   1242  C5P1242     0.2346
     18  C5        43.4090   49.5170   57.4330 C.2   1242  C5P1242     0.0687
     19  C6        42.9200   49.6790   56.1920 C.2   1242  C5P1242     0.0836
     20  O2        45.9170   50.0700   54.4200 O.2   1242  C5P1242    -0.1925
     21  N4        45.3580   49.3830   58.8870 N.pl3 1242  C5P1242    -0.0921
@<TRIPOS>BOND
     1    10     9    1
     2     9     7    1
     3     9    11    1
     4    12    11    1
     5     7     8    1
     6     7     6    1
     7    11    13    1
     8     8    13    1
     9    13    14    1
    10     6     5    1
    11     4     2    2
    12    20    15    2
    13     1     2    1
    14     5     2    1
    15    14    15   am
    16    14    19    1
    17     2     3    1
    18    15    16    2
    19    19    18    2
    20    16    17    2
    21    18    17    1
    22    17    21    1
