@<TRIPOS>MOLECULE
1h7u_AGS_A_1.pdb
 31 33 0 0 0
SMALL
GASTEIGER

@<TRIPOS>ATOM
      1  PG        31.1870   59.6060   39.2970 P.3   1366  AGS1366     0.4340
      2  O2G       30.3340   59.6540   40.3370 O.3   1366  AGS1366    -0.1305
      3  O3G       31.8940   60.8270   38.8010 O.2   1366  AGS1366    -0.2423
      4  S1G       32.4740   58.2170   39.4170 S.3   1366  AGS1366     0.0416
      5  PB        29.2070   58.7160   37.3290 P.3   1366  AGS1366     0.2262
      6  O1B       29.3640   58.3910   35.9730 O.2   1366  AGS1366    -0.5168
      7  O2B       27.9470   58.0760   38.1210 O.3   1366  AGS1366    -0.4369
      8  O3B       30.4330   59.3060   37.8140 O.3   1366  AGS1366    -0.2405
      9  PA        28.4610   61.4650   36.4350 P.3   1366  AGS1366     0.2189
     10  O1A       29.6370   62.0380   36.0540 O.2   1366  AGS1366    -0.5170
     11  O2A       27.3090   62.5570   36.6170 O.3   1366  AGS1366    -0.4371
     12  O3A       28.5700   59.9250   36.4580 O.3   1366  AGS1366    -0.2701
     13  O5'       27.8870   60.9840   35.2690 O.3   1366  AGS1366    -0.3112
     14  C5'       27.0100   60.3990   34.5310 C.3   1366  AGS1366     0.1813
     15  C4'       25.8370   59.9300   33.7090 C.3   1366  AGS1366     0.1821
     16  O4'       25.9790   60.6370   32.4160 O.3   1366  AGS1366    -0.3135
     17  C3'       26.3590   58.5770   33.6960 C.3   1366  AGS1366     0.2184
     18  O3'       25.8150   57.6240   34.5800 O.3   1366  AGS1366    -0.2174
     19  C2'       26.3560   58.2010   32.1960 C.3   1366  AGS1366     0.2570
     20  O2'       25.2650   57.3380   31.9170 O.3   1366  AGS1366    -0.2130
     21  C1'       26.2720   59.5650   31.4120 C.3   1366  AGS1366     0.3186
     22  N9        27.5100   59.9390   30.6810 N.pl3 1366  AGS1366    -0.1439
     23  C8        28.4500   60.9520   30.9430 C.3   1366  AGS1366     0.3377
     24  N7        29.4220   61.0160   30.0910 N.2   1366  AGS1366    -0.2095
     25  C5        29.1110   59.9860   29.2060 C.2   1366  AGS1366     0.2526
     26  C6        29.7560   59.4810   28.0150 C.2   1366  AGS1366     0.4393
     27  N6        30.8770   60.0100   27.5450 N.pl3 1366  AGS1366     0.2180
     28  N1        29.1740   58.4110   27.3430 N.2   1366  AGS1366     0.0021
     29  C2        28.0340   57.8530   27.7960 C.3   1366  AGS1366     0.5254
     30  N3        27.3370   58.2320   28.8950 N.2   1366  AGS1366    -0.0055
     31  C4        27.9540   59.3300   29.5620 C.2   1366  AGS1366     0.3518
@<TRIPOS>BOND
     1    28    29    1
     2    28    26    2
     3    27    26    1
     4    29    30    1
     5    26    25    1
     6    30    31    2
     7    25    31    1
     8    25    24    2
     9    31    22    1
    10    24    23    1
    11    22    23    1
    12    22    21    1
    13    21    19    1
    14    21    16    1
    15    20    19    1
    16    19    17    1
    17    16    15    1
    18    17    15    1
    19    17    18    1
    20    15    14    1
    21    14    13    1
    22    13     9    1
    23     6     5    2
    24    10     9    2
    25     9    12    1
    26     9    11    1
    27    12     5    1
    28     5     8    1
    29     5     7    1
    30     8     1    1
    31     3     1    2
    32     1     4    1
    33     1     2    1
