@<TRIPOS>MOLECULE
1h7w_FMN_A_1.pdb
 31 33 0 0 0
SMALL
GASTEIGER

@<TRIPOS>ATOM
      1  N1        61.9650   44.8480   49.3910 N.2   1030  FMN1030    -0.2890
      2  C2        61.0800   44.4120   48.4360 C.1   1030  FMN1030     0.3669
      3  O2        60.9780   44.9310   47.3430 O.2   1030  FMN1030    -0.1744
      4  N3        60.2840   43.3200   48.8120 N.2   1030  FMN1030    -0.2300
      5  C4        60.3070   42.6460   50.0420 C.1   1030  FMN1030     0.2513
      6  O4        59.5140   41.6930   50.1950 O.2   1030  FMN1030    -0.2057
      7  C4A       61.2870   43.2100   50.9690 C.2   1030  FMN1030     0.2700
      8  N5        61.3520   42.5950   52.2260 N.2   1030  FMN1030    -0.3878
      9  C5A       62.2390   43.0730   53.1930 C.2   1030  FMN1030     0.1320
     10  C6        62.2430   42.4480   54.4230 C.2   1030  FMN1030     0.0250
     11  C7        63.1280   42.9460   55.4150 C.2   1030  FMN1030    -0.0238
     12  C7M       63.1810   42.2750   56.8580 C.3   1030  FMN1030     0.0308
     13  C8        63.9860   44.0740   55.1260 C.2   1030  FMN1030    -0.0280
     14  C8M       64.9480   44.6340   56.1960 C.3   1030  FMN1030     0.0304
     15  C9        63.9690   44.6790   53.8890 C.2   1030  FMN1030    -0.0041
     16  C9A       63.1000   44.2080   52.9040 C.3   1030  FMN1030     0.1497
     17  N10       63.0320   44.8220   51.5840 N.pl3 1030  FMN1030    -0.2691
     18  C10       62.1390   44.3330   50.6480 C.2   1030  FMN1030     0.2416
     19  C1'       63.8140   45.9050   51.2240 C.3   1030  FMN1030     0.1294
     20  C2'       63.1060   47.2460   51.5830 C.3   1030  FMN1030     0.2044
     21  O2'       61.8740   47.5430   50.9540 O.3   1030  FMN1030    -0.2185
     22  C3'       64.0300   48.4820   51.5260 C.3   1030  FMN1030     0.2164
     23  O3'       64.2250   48.5810   50.1040 O.3   1030  FMN1030    -0.2175
     24  C4'       65.3630   48.2500   52.3560 C.3   1030  FMN1030     0.2147
     25  O4'       65.2580   47.7290   53.6700 O.3   1030  FMN1030    -0.2176
     26  C5'       66.1640   49.5550   52.2570 C.3   1030  FMN1030     0.1892
     27  O5'       65.4820   50.5500   53.1150 O.3   1030  FMN1030    -0.2674
     28  P         65.7980   50.8640   54.6730 P.3   1030  FMN1030     0.5327
     29  O1P       65.5560   49.5560   55.3820 O.3   1030  FMN1030    -0.1145
     30  O2P       67.2270   51.2900   54.6670 O.2   1030  FMN1030    -0.2224
     31  O3P       64.8940   51.9490   55.1350 O.3   1030  FMN1030    -0.1145
@<TRIPOS>BOND
     1     3     2    2
     2     2     4    2
     3     2     1    2
     4     4     5    2
     5     1    18    2
     6     5     6    2
     7     5     7    1
     8    23    22    1
     9    18     7    1
    10    18    17    1
    11    21    20    1
    12     7     8    2
    13    19    20    1
    14    19    17    1
    15    22    20    1
    16    22    24    1
    17    17    16    1
    18     8     9    2
    19    26    24    1
    20    26    27    1
    21    24    25    1
    22    16     9    1
    23    16    15    1
    24    27    28    1
    25     9    10    1
    26    15    13    2
    27    10    11    2
    28    30    28    2
    29    28    31    1
    30    28    29    1
    31    13    11    1
    32    13    14    1
    33    11    12    1
