@<TRIPOS>MOLECULE
1h7x_NDP_A_1.pdb
 48 52 0 0 0
SMALL
GASTEIGER

@<TRIPOS>ATOM
      1  PA        61.0510   72.9180  103.3490 P.3   1032  NDP1032     0.2189
      2  O1A       61.2690   71.7710  102.4890 O.2   1032  NDP1032    -0.5170
      3  O2A       59.7530   73.0710  104.1120 O.3   1032  NDP1032    -0.4371
      4  O5B       62.3080   72.9240  104.3640 O.3   1032  NDP1032    -0.3112
      5  C5B       62.4390   73.8880  105.4180 C.3   1032  NDP1032     0.1813
      6  C4B       63.5890   73.4760  106.0160 C.3   1032  NDP1032     0.1820
      7  O4B       63.8020   74.3650  107.1490 O.3   1032  NDP1032    -0.3136
      8  C3B       63.6240   72.0560  106.5530 C.3   1032  NDP1032     0.2157
      9  O3B       64.9180   71.4480  106.3500 O.3   1032  NDP1032    -0.2175
     10  C2B       63.3480   72.1940  108.0140 C.3   1032  NDP1032     0.2314
     11  O2B       63.7620   71.1620  108.9250 O.3   1032  NDP1032    -0.2630
     12  C1B       63.9620   73.5110  108.2760 C.3   1032  NDP1032     0.3158
     13  N9A       63.4150   74.0950  109.5170 N.pl3 1032  NDP1032    -0.1439
     14  C8A       62.1030   74.5520  109.7890 C.3   1032  NDP1032     0.3377
     15  N7A       62.0130   75.0070  111.0220 N.2   1032  NDP1032    -0.2095
     16  C5A       63.2560   74.8560  111.5770 C.2   1032  NDP1032     0.2526
     17  C6A       63.8110   75.1450  112.8390 C.2   1032  NDP1032     0.4393
     18  N6A       63.0520   75.6890  113.7900 N.pl3 1032  NDP1032     0.2180
     19  N1A       65.1190   74.8660  113.0740 N.2   1032  NDP1032     0.0021
     20  C2A       65.8780   74.3150  112.0990 C.3   1032  NDP1032     0.5254
     21  N3A       65.4530   74.0040  110.8760 N.2   1032  NDP1032    -0.0055
     22  C4A       64.1200   74.3020  110.6730 C.2   1032  NDP1032     0.3518
     23  O3        61.1280   74.2030  102.4470 O.3   1032  NDP1032    -0.2703
     24  PN        61.2600   74.3560  100.8750 P.3   1032  NDP1032     0.2189
     25  O1N       62.6680   74.6200  101.2230 O.3   1032  NDP1032    -0.4371
     26  O2N       59.9670   75.0100  101.2110 O.2   1032  NDP1032    -0.5170
     27  O5D       61.2950   75.6200   99.9200 O.3   1032  NDP1032    -0.3112
     28  C5D       60.9780   75.3410   98.4860 C.3   1032  NDP1032     0.1813
     29  C4D       59.6150   74.5030   98.4600 C.3   1032  NDP1032     0.1799
     30  O4D       59.8090   73.1000   98.7080 O.3   1032  NDP1032    -0.3327
     31  C3D       58.9490   74.6450   97.1310 C.3   1032  NDP1032     0.2158
     32  O3D       58.2230   75.8710   97.1610 O.3   1032  NDP1032    -0.2175
     33  C2D       58.1390   73.4080   97.0140 C.3   1032  NDP1032     0.2309
     34  O2D       56.8300   73.6870   97.4900 O.3   1032  NDP1032    -0.2158
     35  C1D       58.9510   72.2840   97.8740 C.3   1032  NDP1032     0.2263
     36  N1N       58.1180   71.3870   98.8210 N.pl3 1032  NDP1032    -0.2787
     37  C2N       56.7060   71.2170   98.5930 C.3   1032  NDP1032     0.1244
     38  C3N       55.9870   70.3320   99.5050 C.2   1032  NDP1032     0.0544
     39  C7N       54.5440   70.1080   99.3290 C.2   1032  NDP1032     0.2818
     40  O7N       53.7930   70.9160   98.7550 O.2   1032  NDP1032    -0.2670
     41  N7N       53.9670   68.9760   99.7940 N.am  1032  NDP1032    -0.0839
     42  C4N       56.7000   69.7100  100.5300 C.2   1032  NDP1032     0.0033
     43  C5N       58.0270   69.8840  100.7260 C.2   1032  NDP1032     0.0157
     44  C6N       58.7360   70.7120   99.8860 C.2   1032  NDP1032     0.0633
     45  P2B       63.2700   69.6950  108.9280 P.3   1032  NDP1032     0.5328
     46  O1X       64.0060   69.0980  110.0570 O.3   1032  NDP1032    -0.1145
     47  O2X       63.5860   69.0710  107.6240 O.2   1032  NDP1032    -0.2224
     48  O3X       61.7640   69.6770  109.1880 O.3   1032  NDP1032    -0.1145
@<TRIPOS>BOND
     1    33    31    1
     2    33    34    1
     3    33    35    1
     4    31    32    1
     5    31    29    1
     6    35    30    1
     7    35    36    1
     8    29    28    1
     9    29    30    1
    10    28    27    1
    11    37    36    1
    12    37    38    1
    13    40    39    2
    14    36    44    1
    15    39    38    1
    16    39    41   am
    17    38    42    2
    18    44    43    2
    19    27    24    1
    20    42    43    1
    21    24    26    2
    22    24    25    1
    23    24    23    1
    24    23     1    1
    25     2     1    2
    26     1     3    1
    27     1     4    1
    28     4     5    1
    29     5     6    1
    30     6     8    1
    31     6     7    1
    32     9     8    1
    33     8    10    1
    34     7    12    1
    35    47    45    2
    36    10    12    1
    37    10    11    1
    38    12    13    1
    39    11    45    1
    40    45    48    1
    41    45    46    1
    42    13    14    1
    43    13    22    1
    44    14    15    1
    45    22    21    2
    46    22    16    1
    47    21    20    1
    48    15    16    2
    49    16    17    1
    50    20    19    1
    51    17    19    2
    52    17    18    1
