@<TRIPOS>MOLECULE
1h7x_FMN_A_1.pdb
 31 33 0 0 0
SMALL
GASTEIGER

@<TRIPOS>ATOM
      1  N1        61.9250   44.8680   49.2630 N.2   1030  FMN1030    -0.2890
      2  C2        61.0140   44.4550   48.3180 C.1   1030  FMN1030     0.3669
      3  O2        60.9120   44.9690   47.2230 O.2   1030  FMN1030    -0.1744
      4  N3        60.1910   43.3800   48.7090 N.2   1030  FMN1030    -0.2300
      5  C4        60.2130   42.7120   49.9440 C.1   1030  FMN1030     0.2513
      6  O4        59.4040   41.7780   50.1150 O.2   1030  FMN1030    -0.2057
      7  C4A       61.2240   43.2450   50.8520 C.2   1030  FMN1030     0.2700
      8  N5        61.2860   42.6260   52.1060 N.2   1030  FMN1030    -0.3878
      9  C5A       62.2040   43.0700   53.0570 C.2   1030  FMN1030     0.1320
     10  C6        62.2160   42.4320   54.2830 C.2   1030  FMN1030     0.0250
     11  C7        63.1290   42.8870   55.2630 C.2   1030  FMN1030    -0.0238
     12  C7M       63.1790   42.1930   56.6830 C.3   1030  FMN1030     0.0308
     13  C8        64.0210   43.9860   54.9770 C.2   1030  FMN1030    -0.0280
     14  C8M       65.0170   44.4940   56.0360 C.3   1030  FMN1030     0.0304
     15  C9        64.0030   44.6120   53.7480 C.2   1030  FMN1030    -0.0041
     16  C9A       63.1030   44.1820   52.7610 C.3   1030  FMN1030     0.1497
     17  N10       63.0300   44.8130   51.4500 N.pl3 1030  FMN1030    -0.2691
     18  C10       62.1020   44.3530   50.5230 C.2   1030  FMN1030     0.2416
     19  C1'       63.8390   45.8810   51.0860 C.3   1030  FMN1030     0.1294
     20  C2'       63.1490   47.2300   51.4740 C.3   1030  FMN1030     0.2044
     21  O2'       61.9120   47.5400   50.8670 O.3   1030  FMN1030    -0.2185
     22  C3'       64.0810   48.4660   51.4210 C.3   1030  FMN1030     0.2164
     23  O3'       64.2620   48.5900   49.9990 O.3   1030  FMN1030    -0.2175
     24  C4'       65.4190   48.2170   52.2400 C.3   1030  FMN1030     0.2147
     25  O4'       65.3220   47.6910   53.5490 O.3   1030  FMN1030    -0.2176
     26  C5'       66.2210   49.5130   52.1470 C.3   1030  FMN1030     0.1892
     27  O5'       65.5300   50.5090   53.0000 O.3   1030  FMN1030    -0.2674
     28  P         65.8390   50.8430   54.5530 P.3   1030  FMN1030     0.5327
     29  O1P       65.5970   49.5500   55.2890 O.3   1030  FMN1030    -0.1145
     30  O2P       67.2700   51.2710   54.5300 O.2   1030  FMN1030    -0.2224
     31  O3P       64.9320   51.9350   55.0050 O.3   1030  FMN1030    -0.1145
@<TRIPOS>BOND
     1     3     2    2
     2     2     4    2
     3     2     1    2
     4     4     5    2
     5     1    18    2
     6     5     6    2
     7     5     7    1
     8    23    22    1
     9    18     7    1
    10    18    17    1
    11     7     8    2
    12    21    20    1
    13    19    17    1
    14    19    20    1
    15    22    20    1
    16    22    24    1
    17    17    16    1
    18     8     9    2
    19    26    24    1
    20    26    27    1
    21    24    25    1
    22    16     9    1
    23    16    15    1
    24    27    28    1
    25     9    10    1
    26    15    13    2
    27    10    11    2
    28    30    28    2
    29    28    31    1
    30    28    29    1
    31    13    11    1
    32    13    14    1
    33    11    12    1
