@<TRIPOS>MOLECULE
1h82_GZZ_A_1.pdb
 25 24 0 0 0
SMALL
GASTEIGER

@<TRIPOS>ATOM
      1  NH1      132.4020   68.4520   -5.2350 N.pl3 590  GZZ590      0.1354
      2  NH2      131.8600   69.5030   -7.2900 N.pl3 590  GZZ590      0.1354
      3  CZ1      132.0130   68.3920   -6.5180 C.cat 590  GZZ590      0.5346
      4  NE1      131.7820   67.1470   -6.9680 N.pl3 590  GZZ590     -0.0865
      5  C1       131.9620   65.9310   -6.1830 C.3   590  GZZ590      0.2204
      6  C2       131.5670   64.7600   -7.1040 C.3   590  GZZ590      0.0469
      7  C3       132.1790   63.4300   -6.6000 C.3   590  GZZ590      0.0037
      8  C4       131.5400   62.3550   -7.5030 C.3   590  GZZ590      0.0001
      9  C5       132.0530   60.9070   -7.3130 C.3   590  GZZ590      0.0000
     10  C6       130.8090   59.9930   -7.4300 C.3   590  GZZ590      0.0015
     11  C7       130.6490   58.9490   -6.2850 C.3   590  GZZ590      0.0188
     12  C8       129.2060   59.1770   -5.7930 C.3   590  GZZ590      0.0887
     13  N9       128.5980   57.8090   -5.4410 N.3   590  GZZ590     -0.2181
     14  C10      127.2500   58.2080   -4.8000 C.3   590  GZZ590      0.0887
     15  C11      126.2480   57.0320   -4.6940 C.3   590  GZZ590      0.0188
     16  C12      125.3400   57.0930   -5.9430 C.3   590  GZZ590      0.0015
     17  C13      123.9420   57.6010   -5.5040 C.3   590  GZZ590      0.0000
     18  C14      123.3700   58.5350   -6.6070 C.3   590  GZZ590      0.0001
     19  C15      122.4160   59.6380   -6.0640 C.3   590  GZZ590      0.0037
     20  C16      121.5060   60.1670   -7.2020 C.3   590  GZZ590      0.0469
     21  C17      121.8130   61.6500   -7.5280 C.3   590  GZZ590      0.2204
     22  NE2      120.6020   62.2270   -8.1250 N.pl3 590  GZZ590     -0.0865
     23  CZ2      120.3910   63.5110   -8.4410 C.cat 590  GZZ590      0.5346
     24  NH3      121.0300   64.4610   -7.7470 N.pl3 590  GZZ590      0.1354
     25  NH4      119.5650   63.8270   -9.4400 N.pl3 590  GZZ590      0.1354
@<TRIPOS>BOND
     1    25    23    1
     2    23    22    2
     3    23    24    1
     4    22    21    1
     5    21    20    1
     6     8     9    1
     7     8     7    1
     8    10     9    1
     9    10    11    1
    10     2     3    1
    11    20    19    1
    12     6     7    1
    13     6     5    1
    14     4     3    2
    15     4     5    1
    16    18    19    1
    17    18    17    1
    18     3     1    1
    19    11    12    1
    20    16    17    1
    21    16    15    1
    22    12    13    1
    23    13    14    1
    24    14    15    1
