@<TRIPOS>MOLECULE
1h83_DIA_A_1.pdb
 10 9 0 0 0
SMALL
GASTEIGER

@<TRIPOS>ATOM
      1  N1       127.3900   57.9590   -5.4590 N.3   590  DIA590     -0.1314
      2  C1       128.8170   57.8910   -5.8050 C.3   590  DIA590      0.1093
      3  C2       129.2960   59.1910   -6.4740 C.3   590  DIA590      0.0205
      4  C3       130.8040   59.1470   -6.7810 C.3   590  DIA590      0.0015
      5  C4       131.2980   60.2210   -7.7710 C.3   590  DIA590      0.0000
      6  C5       132.0100   61.4400   -7.1620 C.3   590  DIA590      0.0000
      7  C6       131.2810   62.7560   -7.4850 C.3   590  DIA590      0.0015
      8  C7       131.2540   63.7730   -6.3320 C.3   590  DIA590      0.0205
      9  C8       131.8470   65.1390   -6.7250 C.3   590  DIA590      0.1093
     10  N8       131.0020   65.9510   -7.6100 N.3   590  DIA590     -0.1314
@<TRIPOS>BOND
     1     5     6    1
     2     5     4    1
     3    10     9    1
     4     7     6    1
     5     7     8    1
     6     4     3    1
     7     9     8    1
     8     3     2    1
     9     2     1    1
