@<TRIPOS>MOLECULE
1h84_NBA_A_1.pdb
 14 13 0 0 0
SMALL
GASTEIGER

@<TRIPOS>ATOM
      1  O4       129.5620   55.7420   -6.1880 O.3   591  NBA591     -0.2204
      2  C4       130.6350   56.6770   -6.2220 C.3   591  NBA591      0.1836
      3  C5       130.0100   58.0600   -6.5700 C.3   591  NBA591      0.0543
      4  C6       129.1520   58.6950   -5.4640 C.3   591  NBA591      0.0914
      5  N7       128.1330   57.7320   -5.0250 N.3   591  NBA591     -0.2179
      6  C8       126.9840   57.9140   -5.9280 C.3   591  NBA591      0.0902
      7  C9       125.8400   57.2990   -5.0790 C.3   591  NBA591      0.0376
      8  C10      124.5060   57.2170   -5.8480 C.3   591  NBA591      0.0902
      9  N11      123.5370   58.2800   -5.5040 N.3   591  NBA591     -0.2180
     10  C12      122.9620   58.8850   -6.7270 C.3   591  NBA591      0.0902
     11  C13      121.6050   59.5990   -6.5210 C.3   591  NBA591      0.0376
     12  C14      121.4320   60.8480   -7.4220 C.3   591  NBA591      0.0902
     13  N15      120.0240   61.0760   -7.7920 N.3   591  NBA591     -0.2165
     14  C16      119.7280   62.3140   -8.5940 C.3   591  NBA591      0.1075
@<TRIPOS>BOND
     1    14    13    1
     2    13    12    1
     3    12    11    1
     4    10    11    1
     5    10     9    1
     6     3     2    1
     7     3     4    1
     8     2     1    1
     9     6     7    1
    10     6     5    1
    11     8     9    1
    12     8     7    1
    13     4     5    1
