@<TRIPOS>MOLECULE
1h86_NBA_A_1.pdb
 14 13 0 0 0
SMALL
GASTEIGER

@<TRIPOS>ATOM
      1  O4       129.2960   55.8220   -6.0100 O.3   591  NBA591     -0.2204
      2  C4       130.4010   56.7490   -6.0310 C.3   591  NBA591      0.1836
      3  C5       129.8880   58.1490   -6.4390 C.3   591  NBA591      0.0543
      4  C6       129.0930   58.7590   -5.2770 C.3   591  NBA591      0.0914
      5  N7       128.0460   57.8450   -4.7850 N.3   591  NBA591     -0.2179
      6  C8       126.9070   57.9380   -5.7130 C.3   591  NBA591      0.0902
      7  C9       125.7610   56.9960   -5.2930 C.3   591  NBA591      0.0376
      8  C10      124.7890   57.7350   -4.3580 C.3   591  NBA591      0.0902
      9  N11      123.4720   57.5420   -4.9560 N.3   591  NBA591     -0.2180
     10  C12      122.9970   58.9110   -5.1330 C.3   591  NBA591      0.0902
     11  C13      121.5940   58.8560   -5.7630 C.3   591  NBA591      0.0376
     12  C14      121.5920   59.8550   -6.9420 C.3   591  NBA591      0.0902
     13  N15      120.2030   60.1950   -7.3020 N.3   591  NBA591     -0.2165
     14  C16      120.1210   61.4680   -8.0400 C.3   591  NBA591      0.1075
@<TRIPOS>BOND
     1    14    13    1
     2    13    12    1
     3    12    11    1
     4     3     2    1
     5     3     4    1
     6     2     1    1
     7    11    10    1
     8     6     7    1
     9     6     5    1
    10     7     8    1
    11     4     5    1
    12    10     9    1
    13     9     8    1
