@<TRIPOS>MOLECULE
1h87_DO3_A_1.pdb
 28 28 0 0 0
SMALL
GASTEIGER

@<TRIPOS>ATOM
      1  N1         2.4320   24.9550   34.5050 N.3   284  DO3284     -0.2607
      2  N2         3.6860   25.2210   37.0460 N.3   284  DO3284     -0.2607
      3  N3         2.6530   22.5840   37.8580 N.3   284  DO3284     -0.2607
      4  N4         1.2890   22.3630   35.3240 N.3   284  DO3284     -0.2682
      5  O1         0.6360   26.5760   35.9420 O.co2 284  DO3284     -0.2441
      6  O3         1.5520   25.8270   38.6620 O.co2 284  DO3284     -0.2441
      7  O5        -0.0220   22.9590   38.5430 O.co2 284  DO3284     -0.2441
      8  O7        -0.8330   24.0260   35.6940 O.3   284  DO3284     -0.2217
      9  C1         3.7310   25.6510   34.5380 C.3   284  DO3284      0.0901
     10  C2         4.5250   25.3200   35.7630 C.3   284  DO3284      0.0901
     11  C3         4.3920   24.3340   37.9650 C.3   284  DO3284      0.0901
     12  C4         4.0240   22.8600   37.8530 C.3   284  DO3284      0.0901
     13  C5         2.4530   21.2940   37.1950 C.3   284  DO3284      0.0901
     14  C6         2.1380   21.2790   35.7480 C.3   284  DO3284      0.0897
     15  C7         1.6470   22.6350   33.9070 C.3   284  DO3284      0.0897
     16  C8         2.6470   23.7790   33.6890 C.3   284  DO3284      0.0901
     17  C9         0.8600   26.9020   34.7400 C.2   284  DO3284      0.3809
     18  C10        1.4510   25.8220   33.8710 C.3   284  DO3284      0.1878
     19  C11        2.5180   26.6800   38.6820 C.2   284  DO3284      0.3809
     20  C12        3.5360   26.5940   37.6240 C.3   284  DO3284      0.1878
     21  C13        0.6890   22.4890   39.4750 C.2   284  DO3284      0.3809
     22  C14        2.1820   22.5190   39.2620 C.3   284  DO3284      0.1878
     23  C15       -1.1710   22.8330   35.1760 C.3   284  DO3284      0.1680
     24  C16       -0.1310   21.8890   35.4710 C.3   284  DO3284      0.1054
     25  C17       -2.4180   22.4100   35.7010 C.3   284  DO3284      0.0370
     26  O2         0.6640   28.0010   34.2750 O.co2 284  DO3284     -0.2441
     27  O4         2.6340   27.5720   39.5460 O.co2 284  DO3284     -0.2441
     28  O6         0.2650   22.0280   40.5140 O.co2 284  DO3284     -0.2441
@<TRIPOS>BOND
     1    16    15    1
     2    16     1    1
     3    18     1    1
     4    18    17    1
     5    15     4    1
     6    26    17   ar
     7     1     9    1
     8     9    10    1
     9    17     5   ar
    10    23    24    1
    11    23     8    1
    12    23    25    1
    13     4    24    1
    14     4    14    1
    15    14    13    1
    16    10     2    1
    17     2    20    1
    18     2    11    1
    19    13     3    1
    20    20    19    1
    21    12     3    1
    22    12    11    1
    23     3    22    1
    24     7    21   ar
    25     6    19   ar
    26    19    27   ar
    27    22    21    1
    28    21    28   ar
