@<TRIPOS>MOLECULE
1h8e_ADP_A_1.pdb
 27 29 0 0 0
SMALL
GASTEIGER

@<TRIPOS>ATOM
      1  PB        99.2660   66.4300   45.7070 P.3   600  ADP600      0.5373
      2  O1B       98.7840   67.5890   46.4220 O.3   600  ADP600     -0.1143
      3  O2B      100.2230   66.7730   44.6150 O.2   600  ADP600     -0.2221
      4  O3B       99.7880   65.2850   46.4600 O.3   600  ADP600     -0.1143
      5  PA        97.6960   65.1850   43.5580 P.3   600  ADP600      0.2231
      6  O1A       97.8070   66.1220   42.4550 O.2   600  ADP600     -0.5169
      7  O2A       98.6120   64.0330   43.3540 O.3   600  ADP600     -0.4370
      8  O3A       97.9300   65.7960   45.0080 O.3   600  ADP600     -0.2261
      9  O5'       96.2050   64.5980   43.6500 O.3   600  ADP600     -0.3111
     10  C5'       95.8150   63.7390   44.7960 C.3   600  ADP600      0.1813
     11  C4'       94.6170   62.8650   44.4160 C.3   600  ADP600      0.1821
     12  O4'       93.4800   63.7300   44.1400 O.3   600  ADP600     -0.3135
     13  C3'       94.8590   62.0570   43.1280 C.3   600  ADP600      0.2184
     14  O3'       94.2300   60.8060   43.1520 O.3   600  ADP600     -0.2174
     15  C2'       94.2220   62.9740   42.0620 C.3   600  ADP600      0.2570
     16  O2'       93.9240   62.2750   40.8840 O.3   600  ADP600     -0.2130
     17  C1'       93.0080   63.5190   42.8170 C.3   600  ADP600      0.3186
     18  N9        92.4860   64.7620   42.2300 N.pl3 600  ADP600     -0.1439
     19  C8        93.1760   65.8980   41.9550 C.3   600  ADP600      0.3377
     20  N7        92.4390   66.8370   41.3670 N.2   600  ADP600     -0.2095
     21  C5        91.2020   66.2740   41.2470 C.2   600  ADP600      0.2526
     22  C6        90.0010   66.7760   40.6900 C.2   600  ADP600      0.4393
     23  N6        89.8990   68.0020   40.1720 N.pl3 600  ADP600      0.2180
     24  N1        88.9220   65.9670   40.7320 N.2   600  ADP600      0.0021
     25  C2        89.0830   64.7070   41.2480 C.3   600  ADP600      0.5254
     26  N3        90.1220   64.1580   41.7730 N.2   600  ADP600     -0.0055
     27  C4        91.1940   64.9940   41.7490 C.2   600  ADP600      0.3518
@<TRIPOS>BOND
     1    23    22    1
     2    22    24    2
     3    22    21    1
     4    24    25    1
     5    16    15    1
     6    21    20    2
     7    21    27    1
     8    25    26    1
     9    20    19    1
    10    27    26    2
    11    27    18    1
    12    19    18    1
    13    15    17    1
    14    15    13    1
    15    18    17    1
    16     6     5    2
    17    17    12    1
    18    13    14    1
    19    13    11    1
    20     7     5    1
    21     5     9    1
    22     5     8    1
    23     9    10    1
    24    12    11    1
    25    11    10    1
    26     3     1    2
    27     8     1    1
    28     1     2    1
    29     1     4    1
