@<TRIPOS>MOLECULE
1h8h_ATP_A_1.pdb
 31 33 0 0 0
SMALL
GASTEIGER

@<TRIPOS>ATOM
      1  PG       103.1290   64.2940   49.5540 P.3   600  ATP600      0.5373
      2  O1G      103.2820   65.0510   50.8600 O.3   600  ATP600     -0.1143
      3  O2G      104.0850   64.8170   48.5830 O.2   600  ATP600     -0.2221
      4  O3G      103.1910   62.8680   49.7570 O.3   600  ATP600     -0.1143
      5  PB       101.1320   66.0900   48.5110 P.3   600  ATP600      0.2277
      6  O1B      100.8950   67.0270   49.6280 O.3   600  ATP600     -0.4368
      7  O2B      102.2390   66.5600   47.6360 O.2   600  ATP600     -0.5168
      8  O3B      101.5910   64.5860   49.0750 O.3   600  ATP600     -0.2258
      9  PA        99.4710   64.8290   46.5010 P.3   600  ATP600      0.2189
     10  O1A       99.7870   65.3470   45.1590 O.2   600  ATP600     -0.5170
     11  O2A      100.3210   63.5710   46.5790 O.3   600  ATP600     -0.4371
     12  O3A       99.7590   65.7800   47.7560 O.3   600  ATP600     -0.2700
     13  O5'       97.9490   64.4240   46.6270 O.3   600  ATP600     -0.3112
     14  C5'       97.4360   63.5880   47.7230 C.3   600  ATP600      0.1813
     15  C4'       96.3600   62.6770   47.1520 C.3   600  ATP600      0.1821
     16  O4'       95.0900   63.3130   47.2530 O.3   600  ATP600     -0.3135
     17  C3'       96.5330   62.2110   45.7120 C.3   600  ATP600      0.2184
     18  O3'       96.5640   60.7560   45.9910 O.3   600  ATP600     -0.2174
     19  C2'       95.1970   62.3140   45.0440 C.3   600  ATP600      0.2570
     20  O2'       94.7500   60.9180   44.9780 O.3   600  ATP600     -0.2130
     21  C1'       94.3820   63.1360   46.0490 C.3   600  ATP600      0.3186
     22  N9        94.1130   64.4550   45.4660 N.pl3 600  ATP600     -0.1439
     23  C8        94.9890   65.4410   45.1480 C.3   600  ATP600      0.3377
     24  N7        94.4020   66.4880   44.5620 N.2   600  ATP600     -0.2095
     25  C5        93.0670   66.1290   44.5260 C.2   600  ATP600      0.2526
     26  C6        91.9150   66.7920   44.0530 C.2   600  ATP600      0.4393
     27  N6        91.8910   67.9950   43.5140 N.pl3 600  ATP600      0.2180
     28  N1        90.7320   66.1460   44.1390 N.2   600  ATP600      0.0021
     29  C2        90.7320   64.8720   44.6880 C.3   600  ATP600      0.5254
     30  N3        91.7180   64.1540   45.1540 N.2   600  ATP600     -0.0055
     31  C4        92.8620   64.8710   45.0730 C.2   600  ATP600      0.3518
@<TRIPOS>BOND
     1    27    26    1
     2    26    28    2
     3    26    25    1
     4    28    29    1
     5    25    24    2
     6    25    31    1
     7    24    23    1
     8    29    30    1
     9    20    19    1
    10    19    17    1
    11    19    21    1
    12    31    30    2
    13    31    22    1
    14    23    22    1
    15    10     9    2
    16    22    21    1
    17    17    18    1
    18    17    15    1
    19    21    16    1
    20     9    11    1
    21     9    13    1
    22     9    12    1
    23    13    14    1
    24    15    16    1
    25    15    14    1
    26     7     5    2
    27    12     5    1
    28     5     8    1
    29     5     6    1
    30     3     1    2
    31     8     1    1
    32     1     4    1
    33     1     2    1
