@<TRIPOS>MOLECULE
1h8h_ADP_D_1.pdb
 27 29 0 0 0
SMALL
GASTEIGER

@<TRIPOS>ATOM
      1  PB       103.5810   47.7420   68.5140 P.3   600  ADP600      0.5373
      2  O1B      102.7750   48.4090   67.5160 O.2   600  ADP600     -0.2221
      3  O2B      104.3980   46.6570   67.8410 O.3   600  ADP600     -0.1143
      4  O3B      104.4630   48.5430   69.3770 O.3   600  ADP600     -0.1143
      5  PA       101.8600   45.6060   69.3660 P.3   600  ADP600      0.2231
      6  O1A      101.7090   45.2000   67.9370 O.2   600  ADP600     -0.5169
      7  O2A      102.6350   44.6360   70.1250 O.3   600  ADP600     -0.4370
      8  O3A      102.5020   47.1030   69.5520 O.3   600  ADP600     -0.2261
      9  O5'      100.4070   45.7860   70.0500 O.3   600  ADP600     -0.3111
     10  C5'      100.3830   46.2140   71.4840 C.3   600  ADP600      0.1813
     11  C4'       99.2670   45.5130   72.2400 C.3   600  ADP600      0.1821
     12  O4'       97.9970   46.0680   71.8190 O.3   600  ADP600     -0.3135
     13  C3'       99.0820   43.9950   71.9950 C.3   600  ADP600      0.2184
     14  O3'       99.7980   43.2190   72.9330 O.3   600  ADP600     -0.2174
     15  C2'       97.5940   43.7980   72.2780 C.3   600  ADP600      0.2570
     16  O2'       97.2910   43.6910   73.6690 O.3   600  ADP600     -0.2130
     17  C1'       97.0000   45.0850   71.7290 C.3   600  ADP600      0.3186
     18  N9        96.6450   44.8810   70.3430 N.pl3 600  ADP600     -0.1439
     19  C8        97.4010   45.0630   69.2370 C.3   600  ADP600      0.3377
     20  N7        96.7040   44.7010   68.1280 N.2   600  ADP600     -0.2095
     21  C5        95.4800   44.2970   68.5870 C.2   600  ADP600      0.2526
     22  C6        94.3680   43.8000   67.9070 C.2   600  ADP600      0.4393
     23  N6        94.4030   43.6970   66.5920 N.pl3 600  ADP600      0.2180
     24  N1        93.3000   43.4400   68.6460 N.2   600  ADP600      0.0021
     25  C2        93.3790   43.5780   70.0100 C.3   600  ADP600      0.5254
     26  N3        94.3720   44.0400   70.7490 N.2   600  ADP600     -0.0055
     27  C4        95.4070   44.3880   69.9550 C.2   600  ADP600      0.3518
@<TRIPOS>BOND
     1    23    22    1
     2     2     1    2
     3     3     1    1
     4    22    21    1
     5    22    24    2
     6     6     5    2
     7    20    21    2
     8    20    19    1
     9     1     4    1
    10     1     8    1
    11    21    27    1
    12    24    25    1
    13    19    18    1
    14     5     8    1
    15     5     9    1
    16     5     7    1
    17    27    18    1
    18    27    26    2
    19    25    26    1
    20     9    10    1
    21    18    17    1
    22    10    11    1
    23    17    12    1
    24    17    15    1
    25    12    11    1
    26    13    11    1
    27    13    15    1
    28    13    14    1
    29    15    16    1
