@<TRIPOS>MOLECULE
1h8l_GEM_A_1.pdb
 15 14 0 0 0
SMALL
GASTEIGER

@<TRIPOS>ATOM
      1  C8         7.0100   32.2560   20.7660 C.3   801  GEM801      0.1621
      2  S7         7.5360   33.2220   19.3330 S.3   801  GEM801     -0.1255
      3  C6         9.3180   33.2250   19.5500 C.3   801  GEM801      0.1049
      4  C5         9.9740   32.2230   18.6110 C.3   801  GEM801      0.2320
      5  N3        10.1420   30.9160   19.2300 N.pl3 801  GEM801     -0.0856
      6  C1        10.2990   29.7810   18.5560 C.cat 801  GEM801      0.5346
      7  N4        10.2990   29.7750   17.2320 N.pl3 801  GEM801      0.1354
      8  N2        10.4840   28.6500   19.2140 N.pl3 801  GEM801      0.1354
      9  C9         5.5250   31.9020   20.6560 C.2   801  GEM801      0.3748
     10  O14        4.9870   31.7710   19.5460 O.co2 801  GEM801     -0.2447
     11  O15        4.8890   31.7880   21.7140 O.co2 801  GEM801     -0.2447
     12  C10        7.2940   32.9380   22.1230 C.3   801  GEM801      0.1362
     13  C11        6.3480   34.0760   22.4230 C.2   801  GEM801      0.3663
     14  O12        6.8520   35.1110   22.8660 O.co2 801  GEM801     -0.2456
     15  O13        5.1100   33.9240   22.3490 O.co2 801  GEM801     -0.2456
@<TRIPOS>BOND
     1     7     6    1
     2     6     8    1
     3     6     5    2
     4     4     5    1
     5     4     3    1
     6     2     3    1
     7     2     1    1
     8    10     9   ar
     9     9     1    1
    10     9    11   ar
    11     1    12    1
    12    12    13    1
    13    15    13   ar
    14    13    14   ar
