@<TRIPOS>MOLECULE
1h8p_PC_A_1.pdb
 11 10 0 0 0
SMALL
GASTEIGER

@<TRIPOS>ATOM
      1  P1        19.2980   25.5420    7.8350 P.3   1110  PC1110      0.5325
      2  O1        18.2030   26.4370    7.3460 O.3   1110  PC1110     -0.1145
      3  O3        20.6060   26.2560    7.9820 O.3   1110  PC1110     -0.1145
      4  O4        19.3750   24.2550    6.7990 O.2   1110  PC1110     -0.2224
      5  O2        18.9580   25.0380    9.3370 O.3   1110  PC1110     -0.2725
      6  C1        19.0970   23.6420    9.6380 C.3   1110  PC1110      0.1317
      7  C2        17.9210   23.3360   10.6130 C.3   1110  PC1110     -0.0401
      8  N1        18.0850   23.5180   12.0870 N.4   1110  PC1110      0.3874
      9  C3        18.7920   24.7680   12.4050 C.3   1110  PC1110     -0.0959
     10  C4        16.7540   23.5540   12.6880 C.3   1110  PC1110     -0.0959
     11  C5        18.8350   22.3760   12.6300 C.3   1110  PC1110     -0.0959
@<TRIPOS>BOND
     1     4     1    2
     2     2     1    1
     3     1     3    1
     4     1     5    1
     5     5     6    1
     6     6     7    1
     7     7     8    1
     8     8     9    1
     9     8    11    1
    10     8    10    1
