@<TRIPOS>MOLECULE
1h8s_AIC_A_1.pdb
 24 26 0 0 0
SMALL
GASTEIGER

@<TRIPOS>ATOM
      1  C8        22.0380   39.3580   10.4860 C.ar  1000  AIC1000    -0.0003
      2  C5        21.4780   38.6520   12.7700 C.ar  1000  AIC1000     0.0038
      3  C6        15.4860   36.1150   10.4730 C.3   1000  AIC1000     0.0681
      4  N1        18.8390   36.6500   12.7590 N.am  1000  AIC1000    -0.1937
      5  C2        14.7200   33.7270   10.8250 C.2   1000  AIC1000     0.3833
      6  N3        16.9520   34.4130   11.6170 N.am  1000  AIC1000    -0.2594
      7  C4        20.5060   38.2190   13.7650 C.3   1000  AIC1000     0.1915
      8  C1        13.9960   36.4000   10.1720 C.3   1000  AIC1000     0.0131
      9  C3        20.0350   36.8540   13.5140 C.2   1000  AIC1000     0.2635
     10  C7        21.0810   38.9440   11.4370 C.ar  1000  AIC1000    -0.0024
     11  C9        23.3850   39.5030   10.8710 C.ar  1000  AIC1000    -0.0000
     12  C10       23.7690   39.2510   12.2090 C.ar  1000  AIC1000    -0.0003
     13  C11       22.8270   38.7900   13.1460 C.ar  1000  AIC1000    -0.0024
     14  C12       15.8760   34.6060   10.5490 C.3   1000  AIC1000     0.1888
     15  C13       16.8220   35.3550   12.7360 C.3   1000  AIC1000     0.1529
     16  C14       18.3260   35.3360   12.8020 C.3   1000  AIC1000     0.1996
     17  C15       18.3210   34.7670   11.4940 C.2   1000  AIC1000     0.2491
     18  C16       16.3510   36.8010    9.4180 C.3   1000  AIC1000     0.0131
     19  N2        19.4300   39.1090   13.7820 N.3   1000  AIC1000    -0.1182
     20  O1        14.5590   33.2500   11.9750 O.co2 1000  AIC1000    -0.2438
     21  O2        13.8850   33.4570    9.9080 O.co2 1000  AIC1000    -0.2438
     22  O3        20.7130   35.8860   13.9490 O.2   1000  AIC1000    -0.2714
     23  O4        19.1640   34.6650   10.5840 O.2   1000  AIC1000    -0.2729
     24  S1        15.8480   36.7080   12.0890 S.3   1000  AIC1000    -0.1184
@<TRIPOS>BOND
     1    18     3    1
     2    21     5   ar
     3     8     3    1
     4     3    14    1
     5     3    24    1
     6     1    11   ar
     7     1    10   ar
     8    14     5    1
     9    14     6    1
    10    23    17    2
    11     5    20   ar
    12    11    12   ar
    13    10     2   ar
    14    17     6   am
    15    17    16    1
    16     6    15    1
    17    24    15    1
    18    12    13   ar
    19    15    16    1
    20     4    16    1
    21     4     9   am
    22     2    13   ar
    23     2     7    1
    24     9     7    1
    25     9    22    2
    26     7    19    1
