@<TRIPOS>MOLECULE
1h8t_DOA_A_1.pdb
 15 14 0 0 0
SMALL
GASTEIGER

@<TRIPOS>ATOM
      1  N         86.7390   21.0080  466.2340 N.3   1000  DOA1000    -0.1314
      2  CA        86.3200   19.5400  466.1720 C.3   1000  DOA1000     0.1093
      3  C2        87.2860   18.6350  465.4000 C.3   1000  DOA1000     0.0205
      4  C3        86.5290   17.3360  465.3060 C.3   1000  DOA1000     0.0015
      5  C4        87.2380   16.2320  464.5710 C.3   1000  DOA1000     0.0000
      6  C5        86.5250   15.0530  465.1340 C.3   1000  DOA1000     0.0000
      7  C6        86.7760   13.7400  464.4660 C.3   1000  DOA1000     0.0000
      8  C7        85.9590   12.8140  465.3180 C.3   1000  DOA1000     0.0000
      9  C8        86.1110   11.4560  464.8480 C.3   1000  DOA1000     0.0000
     10  C9        85.3370   10.5080  465.7070 C.3   1000  DOA1000     0.0006
     11  C10       86.3120    9.3850  465.9260 C.3   1000  DOA1000     0.0118
     12  CA2       85.6900    8.3040  466.7620 C.3   1000  DOA1000     0.1141
     13  C         86.3060    6.8940  466.5360 C.2   1000  DOA1000     0.3649
     14  O         85.5490    5.9180  466.4660 O.co2 1000  DOA1000    -0.2457
     15  OXT       87.5710    6.7520  466.4310 O.co2 1000  DOA1000    -0.2457
@<TRIPOS>BOND
     1     7     6    1
     2     7     8    1
     3     5     6    1
     4     5     4    1
     5     9     8    1
     6     9    10    1
     7     4     3    1
     8     3     2    1
     9    10    11    1
    10    11    12    1
    11     2     1    1
    12    15    13   ar
    13    14    13   ar
    14    13    12    1
