@<TRIPOS>MOLECULE
1h8v_NAG_A_1.pdb
 14 14 0 0 0
SMALL
GASTEIGER

@<TRIPOS>ATOM
      1  C1        52.0730   16.6570   46.1930 C.3   301  NAG301      0.1665
      2  C2        51.7600   18.0080   45.5280 C.3   301  NAG301      0.1576
      3  C3        52.9230   18.9970   45.6580 C.3   301  NAG301      0.2069
      4  C4        53.3930   19.0850   47.1050 C.3   301  NAG301      0.2134
      5  C5        53.7250   17.6910   47.6180 C.3   301  NAG301      0.1809
      6  C6        54.1470   17.7270   49.0750 C.3   301  NAG301      0.2141
      7  C7        50.2100   17.8980   43.6790 C.2   301  NAG301      0.2420
      8  C8        49.9690   17.5550   42.2140 C.3   301  NAG301      0.0964
      9  N2        51.4610   17.8040   44.1230 N.am  301  NAG301     -0.2019
     10  O3        52.5000   20.2830   45.2290 O.3   301  NAG301     -0.2184
     11  O4        54.5380   19.9160   47.1900 O.3   301  NAG301     -0.2176
     12  O5        52.5520   16.8510   47.5370 O.3   301  NAG301     -0.3489
     13  O6        53.1610   18.3730   49.8660 O.3   301  NAG301     -0.2176
     14  O7        49.2670   18.2460   44.3890 O.2   301  NAG301     -0.2733
@<TRIPOS>BOND
     1     8     7    1
     2     7     9   am
     3     7    14    2
     4     9     2    1
     5    10     3    1
     6     2     3    1
     7     2     1    1
     8     3     4    1
     9     1    12    1
    10     4    11    1
    11     4     5    1
    12    12     5    1
    13     5     6    1
    14     6    13    1
