@<TRIPOS>MOLECULE
1h8y_MER_A_1.pdb
 26 27 0 0 0
SMALL
GASTEIGER

@<TRIPOS>ATOM
      1  C1        28.7060   93.2980   53.4930 C.2   300  MER300      0.2115
      2  C2        32.7090   91.6290   55.3000 C.3   300  MER300      0.0957
      3  C3        29.1420   91.9070   54.0820 C.3   300  MER300      0.1175
      4  C4        30.4480   92.2160   54.9300 C.3   300  MER300      0.1141
      5  C5        32.6210   92.7510   54.5390 C.2   300  MER300      0.1428
      6  O6        29.1870   93.6300   52.4070 O.2   300  MER300     -0.2882
      7  C7        27.9080   91.6250   55.0420 C.3   300  MER300      0.1613
      8  O8        28.2300   90.9800   56.1840 O.3   300  MER300     -0.2226
      9  C9        26.6500   91.2640   54.3030 C.3   300  MER300      0.0360
     10  N10       31.3550   93.1690   54.4520 N.2   300  MER300     -0.2688
     11  C11       33.7210   93.4460   53.9490 C.2   300  MER300      0.4014
     12  O13       33.7550   93.5540   52.7030 O.co2 300  MER300     -0.2392
     13  O12       34.8790   93.7130   54.6530 O.co2 300  MER300     -0.2392
     14  S14       34.0400   90.4070   54.9360 S.3   300  MER300     -0.1341
     15  C15       35.6920   91.1430   55.2400 C.3   300  MER300      0.0673
     16  C16       35.7440   92.0400   56.4920 C.3   300  MER300      0.0389
     17  C17       35.3590   91.0110   57.6260 C.3   300  MER300      0.1498
     18  C18       31.3000   91.0710   55.4210 C.3   300  MER300      0.0387
     19  N19       35.6290   89.7210   56.9900 N.3   300  MER300     -0.2094
     20  C20       31.3630   89.9300   54.3310 C.3   300  MER300      0.0033
     21  C21       36.5250   89.9290   55.8300 C.3   300  MER300      0.1000
     22  C22       36.2410   91.2820   58.9050 C.2   300  MER300      0.2416
     23  N23       36.7470   92.6250   59.1490 N.am  300  MER300     -0.2749
     24  O24       37.0770   90.3760   59.1300 O.2   300  MER300     -0.2734
     25  C26       38.0680   93.0240   58.7190 C.3   300  MER300      0.1149
     26  C25       36.1810   93.3040   60.2790 C.3   300  MER300      0.1149
@<TRIPOS>BOND
     1     6     1    2
     2    12    11   ar
     3     1     3    1
     4    11     5    1
     5    11    13   ar
     6     3     4    1
     7     3     7    1
     8     9     7    1
     9    20    18    1
    10    10     5    2
    11    10     4    1
    12     5     2    1
    13     4    18    1
    14    14    15    1
    15    14     2    1
    16     7     8    1
    17    15    21    1
    18    15    16    1
    19     2    18    1
    20    21    19    1
    21    16    17    1
    22    19    17    1
    23    17    22    1
    24    25    23    1
    25    22    24    2
    26    22    23   am
    27    23    26    1
