@<TRIPOS>MOLECULE
1h94_NAD_A_1.pdb
 44 48 0 0 0
SMALL
GASTEIGER

@<TRIPOS>ATOM
      1  PA        92.2430  -10.5100   35.7590 P.3   799  NAD799      0.2189
      2  O1A       91.1810   -9.7740   36.4970 O.3   799  NAD799     -0.4371
      3  O2A       92.2630  -11.9290   36.1720 O.2   799  NAD799     -0.5170
      4  O5B       93.6880   -9.9960   36.2660 O.3   799  NAD799     -0.3112
      5  C5B       94.5510   -9.5400   35.2170 C.3   799  NAD799      0.1813
      6  C4B       95.9900   -9.3260   35.6440 C.3   799  NAD799      0.1821
      7  O4B       96.0560   -8.3560   36.7110 O.3   799  NAD799     -0.3135
      8  C3B       96.6490  -10.5810   36.1850 C.3   799  NAD799      0.2184
      9  O3B       97.7750  -10.8780   35.3690 O.3   799  NAD799     -0.2174
     10  C2B       97.1050  -10.1870   37.5980 C.3   799  NAD799      0.2570
     11  O2B       98.3760  -10.7510   37.9010 O.3   799  NAD799     -0.2130
     12  C1B       97.2020   -8.6740   37.4480 C.3   799  NAD799      0.3186
     13  N9A       97.3050   -7.9630   38.7370 N.pl3 799  NAD799     -0.1439
     14  C8A       96.4130   -7.9430   39.7790 C.3   799  NAD799      0.3377
     15  N7A       96.7380   -7.1220   40.7530 N.2   799  NAD799     -0.2095
     16  C5A       97.9100   -6.5710   40.3290 C.2   799  NAD799      0.2526
     17  C6A       98.7090   -5.6480   40.9730 C.2   799  NAD799      0.4393
     18  N6A       98.3670   -5.2940   42.2460 N.pl3 799  NAD799      0.2180
     19  N1A       99.8120   -5.2640   40.2800 N.2   799  NAD799      0.0021
     20  C2A      100.0910   -5.8050   39.0970 C.3   799  NAD799      0.5254
     21  N3A       99.4090   -6.7180   38.4240 N.2   799  NAD799     -0.0055
     22  C4A       98.3030   -7.0530   39.1010 C.2   799  NAD799      0.3518
     23  O3        92.0760  -10.3990   34.1770 O.3   799  NAD799     -0.2703
     24  PN        91.5670   -9.7460   32.8240 P.3   799  NAD799      0.2189
     25  O1N       90.4750  -10.5310   32.2020 O.3   799  NAD799     -0.4371
     26  O2N       92.6670   -9.5740   31.8380 O.2   799  NAD799     -0.5170
     27  O5D       90.9300   -8.3250   33.0610 O.3   799  NAD799     -0.3112
     28  C5D       89.5720   -8.0530   32.8630 C.3   799  NAD799      0.1813
     29  C4D       89.4800   -6.8430   31.9770 C.3   799  NAD799      0.1799
     30  O4D       88.2120   -6.8870   31.2790 O.3   799  NAD799     -0.3327
     31  C3D       89.4300   -5.6200   32.8790 C.3   799  NAD799      0.2158
     32  O3D       90.3930   -4.6500   32.4790 O.3   799  NAD799     -0.2175
     33  C2D       88.0070   -5.1050   32.7110 C.3   799  NAD799      0.2309
     34  O2D       87.9740   -3.6870   32.7410 O.3   799  NAD799     -0.2158
     35  C1D       87.6620   -5.6080   31.3160 C.3   799  NAD799      0.2263
     36  N1N       86.2300   -5.6020   30.9540 N.pl3 799  NAD799     -0.2787
     37  C2N       85.3040   -5.1630   31.8130 C.3   799  NAD799      0.1244
     38  C3N       83.9850   -5.4550   31.6400 C.2   799  NAD799      0.0544
     39  C7N       82.8350   -5.2340   32.5420 C.2   799  NAD799      0.2818
     40  O7N       81.9600   -4.4460   32.1900 O.2   799  NAD799     -0.2670
     41  N7N       82.9530   -5.9090   33.7140 N.am  799  NAD799     -0.0839
     42  C4N       83.5880   -6.1070   30.4950 C.2   799  NAD799      0.0033
     43  C5N       84.5330   -6.4740   29.5750 C.2   799  NAD799      0.0157
     44  C6N       85.8370   -6.1900   29.8160 C.2   799  NAD799      0.0633
@<TRIPOS>BOND
     1    43    44    2
     2    43    42    1
     3    44    36    1
     4    42    38    2
     5    36    35    1
     6    36    37    1
     7    30    35    1
     8    30    29    1
     9    35    33    1
    10    38    37    1
    11    38    39    1
    12    26    24    2
    13    29    28    1
    14    29    31    1
    15    40    39    2
    16    25    24    1
    17    32    31    1
    18    39    41   am
    19    33    34    1
    20    33    31    1
    21    24    27    1
    22    24    23    1
    23    28    27    1
    24    23     1    1
    25     5     6    1
    26     5     4    1
    27     9     8    1
    28     6     8    1
    29     6     7    1
    30     1     3    2
    31     1     4    1
    32     1     2    1
    33     8    10    1
    34     7    12    1
    35    12    10    1
    36    12    13    1
    37    10    11    1
    38    21    20    1
    39    21    22    2
    40    13    22    1
    41    13    14    1
    42    20    19    1
    43    22    16    1
    44    14    15    1
    45    19    17    2
    46    16    15    2
    47    16    17    1
    48    17    18    1
