@<TRIPOS>MOLECULE
1h97_HEM_A_1.pdb
 43 50 0 0 0
SMALL
GASTEIGER

@<TRIPOS>ATOM
      1 FE         25.7720   28.6990   22.6590 Fe    148  HEM148      0.0000
      2  CHA       26.1810   31.6470   20.9590 C.2   148  HEM148      0.0000
      3  CHB       28.8630   27.6190   21.4830 C.2   148  HEM148      0.0000
      4  CHC       25.3450   25.7600   24.2800 C.2   148  HEM148      0.0000
      5  CHD       22.6630   29.7570   23.7470 C.2   148  HEM148      0.0000
      6  NA        27.1950   29.4850   21.4550 N.ar  148  HEM148      0.0000
      7  C1A       27.1910   30.7040   20.8100 C.ar  148  HEM148      0.0000
      8  C2A       28.3840   30.7990   19.9920 C.ar  148  HEM148      0.0000
      9  C3A       29.0620   29.6660   20.1060 C.ar  148  HEM148      0.0000
     10  C4A       28.3470   28.8430   21.0680 C.ar  148  HEM148      0.0000
     11  CMA       30.3980   29.3160   19.4260 C.3   148  HEM148      0.0000
     12  CAA       28.6720   32.0030   19.0640 C.3   148  HEM148      0.0000
     13  CBA       27.8390   31.9220   17.7770 C.3   148  HEM148      0.0000
     14  CGA       28.3590   32.7150   16.6040 C.2   148  HEM148      0.0000
     15  O1A       29.6220   32.7670   16.3880 O.co2 148  HEM148      0.0000
     16  O2A       27.4020   33.1840   15.9090 O.co2 148  HEM148      0.0000
     17  NB        26.9130   27.0650   22.9260 N.2   148  HEM148      0.0000
     18  C1B       28.1420   26.8090   22.3460 C.2   148  HEM148      0.0000
     19  C2B       28.5980   25.5170   22.7500 C.2   148  HEM148      0.0000
     20  C3B       27.6550   24.9690   23.5500 C.2   148  HEM148      0.0000
     21  C4B       26.5470   25.9120   23.6120 C.2   148  HEM148      0.0000
     22  CMB       29.9980   24.9120   22.3960 C.3   148  HEM148      0.0000
     23  CAB       27.6270   23.6300   24.2360 C.2   148  HEM148      0.0000
     24  CBB       28.1620   22.5100   23.7360 C.2   148  HEM148      0.0000
     25  NC        24.3300   27.9380   23.8270 N.ar  148  HEM148      0.0000
     26  C1C       24.2740   26.6330   24.3080 C.ar  148  HEM148      0.0000
     27  C2C       22.9950   26.3860   24.9430 C.ar  148  HEM148      0.0000
     28  C3C       22.2480   27.5000   24.7820 C.ar  148  HEM148      0.0000
     29  C4C       23.0750   28.4800   24.0850 C.ar  148  HEM148      0.0000
     30  CMC       22.5980   25.0630   25.5930 C.3   148  HEM148      0.0000
     31  CAC       20.8240   27.7090   25.2720 C.2   148  HEM148      0.0000
     32  CBC       19.8320   28.3910   24.7340 C.2   148  HEM148      0.0000
     33  ND        24.6440   30.3430   22.3920 N.2   148  HEM148      0.0000
     34  C1D       23.4220   30.6020   22.9540 C.2   148  HEM148      0.0000
     35  C2D       22.9890   31.9400   22.6100 C.2   148  HEM148      0.0000
     36  C3D       23.9530   32.4530   21.8190 C.2   148  HEM148      0.0000
     37  C4D       25.0260   31.5050   21.7160 C.2   148  HEM148      0.0000
     38  CMD       21.6400   32.5780   22.9910 C.3   148  HEM148      0.0000
     39  CAD       24.0280   33.8580   21.1710 C.3   148  HEM148      0.0000
     40  CBD       23.5190   33.8760   19.6920 C.3   148  HEM148      0.0000
     41  CGD       23.1400   35.1910   19.0000 C.2   148  HEM148      0.0000
     42  O1D       23.3680   35.2190   17.7500 O.co2 148  HEM148      0.0000
     43  O2D       22.4540   36.0070   19.6840 O.co2 148  HEM148      0.0000
@<TRIPOS>BOND
     1    16    14   ar
     2    15    14   ar
     3    14    13    1
     4    42    41   ar
     5    13    12    1
     6    41    43   ar
     7    41    40    1
     8    12     8    1
     9    11     9    1
    10    40    39    1
    11     8     9   ar
    12     8     7   ar
    13     9    10   ar
    14     7     2    2
    15     7     6   ar
    16     2    37    1
    17    10     6   ar
    18    10     3    2
    19    39    36    1
    20     6     1    1
    21     3    18    1
    22    37    36    1
    23    37    33    2
    24    36    35    2
    25    18    19    1
    26    18    17    2
    27    33     1    1
    28    33    34    1
    29    22    19    1
    30    35    34    1
    31    35    38    1
    32     1    17    1
    33     1    25    1
    34    19    20    2
    35    17    21    1
    36    34     5    2
    37    20    21    1
    38    20    23    1
    39    21     4    2
    40    24    23    2
    41     5    29    1
    42    25    29   ar
    43    25    26   ar
    44    29    28   ar
    45     4    26    1
    46    26    27   ar
    47    32    31    2
    48    28    27   ar
    49    28    31    1
    50    27    30    1
