@<TRIPOS>MOLECULE
1h9a_NAP_A_1.pdb
 48 52 0 0 0
SMALL
GASTEIGER

@<TRIPOS>ATOM
      1  PA        87.3990   69.0760   26.1020 P.3   799  NAP799      0.2189
      2  O1A       87.7940   68.6410   24.7400 O.2   799  NAP799     -0.5170
      3  O2A       87.9310   70.4250   26.4320 O.3   799  NAP799     -0.4371
      4  O5B       88.2190   68.1160   27.0830 O.3   799  NAP799     -0.3112
      5  C5B       88.5940   66.7770   26.7650 C.3   799  NAP799      0.1813
      6  C4B       89.3310   66.1580   27.9390 C.3   799  NAP799      0.1820
      7  O4B       89.6410   64.7740   27.6270 O.3   799  NAP799     -0.3136
      8  C3B       90.6630   66.8510   28.1650 C.3   799  NAP799      0.2157
      9  O3B       90.8740   67.0300   29.5610 O.3   799  NAP799     -0.2175
     10  C2B       91.6640   65.8990   27.5660 C.3   799  NAP799      0.2314
     11  O2B       92.9010   66.0090   28.2450 O.3   799  NAP799     -0.2630
     12  C1B       91.0240   64.5500   27.8270 C.3   799  NAP799      0.3158
     13  N9A       91.5220   63.4830   26.9350 N.pl3 799  NAP799     -0.1439
     14  C8A       91.5910   63.4890   25.5710 C.3   799  NAP799      0.3377
     15  N7A       91.8940   62.3250   25.0290 N.2   799  NAP799     -0.2095
     16  C5A       92.1390   61.5310   26.1090 C.2   799  NAP799      0.2526
     17  C6A       92.5950   60.2380   26.1300 C.2   799  NAP799      0.4393
     18  N6A       92.9820   59.6910   24.9410 N.pl3 799  NAP799      0.2180
     19  N1A       92.7770   59.7200   27.3640 N.2   799  NAP799      0.0021
     20  C2A       92.5360   60.4490   28.4460 C.3   799  NAP799      0.5254
     21  N3A       92.0340   61.6590   28.5380 N.2   799  NAP799     -0.0055
     22  C4A       91.9000   62.1770   27.3030 C.2   799  NAP799      0.3518
     23  O3        85.8490   68.9540   26.3410 O.3   799  NAP799     -0.2703
     24  PN        84.6680   69.3070   27.3140 P.3   799  NAP799      0.2189
     25  O1N       83.9390   70.5400   26.9240 O.2   799  NAP799     -0.5170
     26  O2N       85.1280   69.4150   28.7200 O.3   799  NAP799     -0.4371
     27  O5D       83.4990   68.2000   27.3350 O.3   799  NAP799     -0.3112
     28  C5D       83.7780   66.7960   27.3500 C.3   799  NAP799      0.1813
     29  C4D       82.5050   65.9600   27.5250 C.3   799  NAP799      0.1799
     30  O4D       81.4580   66.7530   28.1500 O.3   799  NAP799     -0.3327
     31  C3D       81.9490   65.5310   26.1730 C.3   799  NAP799      0.2158
     32  O3D       81.2570   64.2940   26.2750 O.3   799  NAP799     -0.2175
     33  C2D       80.9590   66.6170   25.8480 C.3   799  NAP799      0.2309
     34  O2D       79.9380   66.0900   25.0080 O.3   799  NAP799     -0.2158
     35  C1D       80.3880   66.9190   27.2350 C.3   799  NAP799      0.2263
     36  N1N       79.7320   68.2470   27.3240 N.pl3 799  NAP799     -0.2787
     37  C2N       80.4560   69.3570   27.4560 C.3   799  NAP799      0.1244
     38  C3N       79.8850   70.5830   27.6080 C.2   799  NAP799      0.0544
     39  C7N       80.4990   71.9410   27.7630 C.2   799  NAP799      0.2818
     40  O7N       79.7550   72.9160   27.8780 O.2   799  NAP799     -0.2670
     41  N7N       81.8220   71.9030   28.0690 N.am  799  NAP799     -0.0839
     42  C4N       78.5110   70.6390   27.6400 C.2   799  NAP799      0.0033
     43  C5N       77.7580   69.5080   27.4610 C.2   799  NAP799      0.0157
     44  C6N       78.4110   68.3320   27.2720 C.2   799  NAP799      0.0633
     45  P2B       94.2120   65.6830   27.4180 P.3   799  NAP799      0.5328
     46  O1X       93.9880   66.2600   26.0800 O.2   799  NAP799     -0.2224
     47  O2X       94.2990   64.2100   27.4040 O.3   799  NAP799     -0.1145
     48  O3X       95.3230   66.3190   28.1680 O.3   799  NAP799     -0.1145
@<TRIPOS>BOND
     1     2     1    2
     2    18    17    1
     3    34    33    1
     4    15    14    1
     5    15    16    2
     6    14    13    1
     7    33    31    1
     8    33    35    1
     9    46    45    2
    10     1    23    1
    11     1     3    1
    12     1     4    1
    13    16    17    1
    14    16    22    1
    15    17    19    2
    16    31    32    1
    17    31    29    1
    18    23    24    1
    19     5     4    1
    20     5     6    1
    21    25    24    2
    22    13    22    1
    23    13    12    1
    24    35    36    1
    25    35    30    1
    26    44    36    1
    27    44    43    2
    28    22    21    2
    29    24    27    1
    30    24    26    1
    31    36    37    1
    32    27    28    1
    33    28    29    1
    34    19    20    1
    35    47    45    1
    36    45    48    1
    37    45    11    1
    38    37    38    1
    39    43    42    1
    40    29    30    1
    41    10    12    1
    42    10     8    1
    43    10    11    1
    44    38    42    2
    45    38    39    1
    46     7    12    1
    47     7     6    1
    48    39    40    2
    49    39    41   am
    50     6     8    1
    51     8     9    1
    52    20    21    1
