@<TRIPOS>MOLECULE
1h9g_COA_A_1.pdb
 48 50 0 0 0
SMALL
GASTEIGER

@<TRIPOS>ATOM
      1  N1A       47.4080   42.5360   28.8370 N.2   1228  COA1228     0.0021
      2  C2A       48.3970   43.0560   29.5900 C.3   1228  COA1228     0.5254
      3  N3A       48.9760   44.2620   29.5130 N.2   1228  COA1228    -0.0055
      4  C4A       48.4240   44.9960   28.5250 C.2   1228  COA1228     0.3518
      5  C5A       47.3960   44.6070   27.6770 C.2   1228  COA1228     0.2526
      6  C6A       46.8850   43.2950   27.8430 C.2   1228  COA1228     0.4393
      7  N6A       45.9340   42.7660   27.0600 N.pl3 1228  COA1228     0.2180
      8  N7A       47.0830   45.6240   26.7830 N.2   1228  COA1228    -0.2095
      9  C8A       47.9250   46.5810   27.0890 C.3   1228  COA1228     0.3377
     10  N9A       48.7950   46.2550   28.1040 N.pl3 1228  COA1228    -0.1439
     11  C1B       49.9200   47.0760   28.5610 C.3   1228  COA1228     0.3185
     12  C2B       49.8070   47.8970   29.8450 C.3   1228  COA1228     0.2543
     13  O2B       48.5490   48.3580   30.3080 O.3   1228  COA1228    -0.2131
     14  C3B       50.6360   47.0890   30.8240 C.3   1228  COA1228     0.1928
     15  O3B       51.1180   47.8240   31.9520 O.3   1228  COA1228    -0.2673
     16  P3B       51.9950   49.1720   31.7250 P.3   1228  COA1228     0.5327
     17  O7A       53.4180   48.8070   31.9710 O.3   1228  COA1228    -0.1145
     18  O8A       51.6250   49.8240   30.4380 O.2   1228  COA1228    -0.2224
     19  O9A       51.5420   50.1310   32.9180 O.3   1228  COA1228    -0.1145
     20  C4B       51.7220   46.4620   29.9640 C.3   1228  COA1228     0.1795
     21  O4B       51.0840   46.2610   28.6630 O.3   1228  COA1228    -0.3136
     22  C5B       52.2230   45.1450   30.5240 C.3   1228  COA1228     0.1812
     23  O5B       53.2610   44.6000   29.7090 O.3   1228  COA1228    -0.3112
     24  P1A       53.7490   43.0940   29.9300 P.3   1228  COA1228     0.2189
     25  O1A       54.8180   42.8020   28.9350 O.2   1228  COA1228    -0.5170
     26  O2A       54.0480   42.9250   31.3810 O.3   1228  COA1228    -0.4371
     27  O3A       52.4660   42.1800   29.6230 O.3   1228  COA1228    -0.2703
     28  P2A       52.2900   41.3770   28.2540 P.3   1228  COA1228     0.2188
     29  O4A       53.3630   40.3520   28.2160 O.3   1228  COA1228    -0.4371
     30  O5A       50.8690   40.9420   28.2040 O.2   1228  COA1228    -0.5170
     31  O6A       52.5750   42.3360   27.0050 O.3   1228  COA1228    -0.3138
     32  CBP       51.2090   43.7280   25.4580 C.3   1228  COA1228     0.0645
     33  CCP       51.9150   43.6120   26.8460 C.3   1228  COA1228     0.1519
     34  CDP       52.3130   43.6980   24.3650 C.3   1228  COA1228     0.0056
     35  CEP       50.4120   45.0570   25.3360 C.3   1228  COA1228     0.0056
     36  CAP       50.2240   42.5010   25.3370 C.3   1228  COA1228     0.2312
     37  OAP       49.3860   42.4170   26.5290 O.3   1228  COA1228    -0.2131
     38  C9P       49.2020   42.5640   24.1520 C.2   1228  COA1228     0.2719
     39  O9P       49.6060   42.4010   22.9760 O.2   1228  COA1228    -0.2706
     40  N8P       47.9190   42.7960   24.5300 N.am  1228  COA1228    -0.2028
     41  C7P       46.9690   42.8370   23.3160 C.3   1228  COA1228     0.1248
     42  C6P       46.5860   44.2610   23.0210 C.3   1228  COA1228     0.1102
     43  C5P       45.4100   44.3290   22.1040 C.2   1228  COA1228     0.2432
     44  O5P       44.2590   44.2860   22.5760 O.2   1228  COA1228    -0.2733
     45  N4P       45.6380   44.4380   20.7830 N.am  1228  COA1228    -0.2044
     46  C3P       44.3530   44.5040   19.9520 C.3   1228  COA1228     0.1276
     47  C2P       44.1820   43.2870   19.0340 C.3   1228  COA1228     0.0920
     48  S1P       42.4510   43.2090   18.6050 S.3   1228  COA1228    -0.0802
@<TRIPOS>BOND
     1    48    47    1
     2    47    46    1
     3    46    45    1
     4    45    43   am
     5    43    44    2
     6    43    42    1
     7    39    38    2
     8    42    41    1
     9    41    40    1
    10    38    40   am
    11    38    36    1
    12    34    32    1
    13    35    32    1
    14    36    32    1
    15    36    37    1
    16    32    33    1
    17     8     9    1
    18     8     5    2
    19    33    31    1
    20    31    28    1
    21     7     6    1
    22     9    10    1
    23     5     6    1
    24     5     4    1
    25     6     1    2
    26    10     4    1
    27    10    11    1
    28    30    28    2
    29    29    28    1
    30    28    27    1
    31     4     3    2
    32    11    21    1
    33    11    12    1
    34    21    20    1
    35     1     2    1
    36    25    24    2
    37     3     2    1
    38    27    24    1
    39    23    24    1
    40    23    22    1
    41    12    13    1
    42    12    14    1
    43    24    26    1
    44    20    22    1
    45    20    14    1
    46    18    16    2
    47    14    15    1
    48    16    15    1
    49    16    17    1
    50    16    19    1
