@<TRIPOS>MOLECULE
1h9l_III_A_1.pdb
 31 31 0 0 0
SMALL
GASTEIGER

@<TRIPOS>ATOM
      1  N        -18.1450   17.2080   39.9100 N.3     4  VAL4       -0.1231
      2  CA       -16.8940   17.9720   40.2010 C.3     4  VAL4        0.1692
      3  C        -15.9740   18.0850   38.9800 C.2     4  VAL4        0.2592
      4  O        -15.5660   17.0770   38.3840 O.2     4  VAL4       -0.2718
      5  CB       -16.1710   17.3430   41.4090 C.3     4  VAL4        0.0266
      6  CG1      -16.5310   15.8550   41.5420 C.3     4  VAL4        0.0020
      7  CG2      -14.6750   17.5680   41.3400 C.3     4  VAL4        0.0020
      8  N        -15.5870   19.3140   38.6350 N.am    5  GLU5       -0.1966
      9  CA       -14.6860   19.5360   37.4760 C.3     5  GLU5        0.1718
     10  C        -13.2570   20.1560   37.7230 C.2     5  GLU5        0.2458
     11  O        -13.1150   21.3740   37.9040 O.2     5  GLU5       -0.2730
     12  CB       -15.3990   20.3200   36.3740 C.3     5  GLU5        0.0428
     13  CG       -14.4990   20.7110   35.2090 C.3     5  GLU5        0.1163
     14  CD       -14.7440   19.9170   33.9140 C.2     5  GLU5        0.3649
     15  OE1      -15.5440   18.9750   33.9040 O.co2   5  GLU5       -0.2457
     16  OE2      -14.1300   20.2580   32.8760 O.co2   5  GLU5       -0.2457
     17  N        -12.1940   19.3450   37.7020 N.am    6  PRO6       -0.2716
     18  CA       -10.8220   19.8720   37.8990 C.3     6  PRO6        0.1535
     19  C        -10.5120   21.0310   36.9790 C.2     6  PRO6        0.2595
     20  O        -10.5100   20.8810   35.7480 O.2     6  PRO6       -0.2716
     21  CB        -9.9220   18.6880   37.5430 C.3     6  PRO6        0.0310
     22  CG       -10.7660   17.5060   37.8500 C.3     6  PRO6        0.0237
     23  CD       -12.1840   17.8880   37.4880 C.3     6  PRO6        0.0939
     24  N        -10.2280   22.1890   37.5620 N.am    7  ILE7       -0.2031
     25  CA        -9.9110   23.3100   36.7180 C.3     7  ILE7        0.1282
     26  C         -8.5890   23.9230   36.9780 C.3     7  ILE7        0.2035
     27  O         -8.5840   25.0770   36.6040 O.3     7  ILE7       -0.2185
     28  CB       -10.8380   24.4810   36.8810 C.3     7  ILE7        0.0226
     29  CG1      -10.9380   24.9450   38.3340 C.3     7  ILE7        0.0018
     30  CG2      -12.2030   24.2120   36.2790 C.3     7  ILE7        0.0018
     31  CD1      -10.5470   26.4140   38.4910 C.3     7  ILE7        0.0001
@<TRIPOS>BOND
     1    16    14   ar
     2    15    14   ar
     3    14    13    1
     4    13    12    1
     5    20    19    2
     6    30    28    1
     7    12     9    1
     8    27    26    1
     9    25    28    1
    10    25    26    1
    11    25    24    1
    12    28    29    1
    13    19    24   am
    14    19    18    1
    15     9    10    1
    16     9     8    1
    17    23    17    1
    18    23    22    1
    19    21    22    1
    20    21    18    1
    21    17    10   am
    22    17    18    1
    23    10    11    2
    24    29    31    1
    25     4     3    2
    26     8     3   am
    27     3     2    1
    28     1     2    1
    29     2     5    1
    30     7     5    1
    31     5     6    1
