@<TRIPOS>MOLECULE
1h9o_III_B_1.pdb
 47 48 0 0 0
SMALL
GASTEIGER

@<TRIPOS>ATOM
      1  N         10.5340   10.6290   24.3530 N.3     1  TYR1       -0.1227
      2  CA        11.0030    9.6830   23.2810 C.3     1  TYR1        0.1736
      3  C         12.4610    9.3460   23.4680 C.2     1  TYR1        0.2595
      4  O         13.1680   10.1310   24.0820 O.2     1  TYR1       -0.2718
      5  CB        10.7950   10.3990   21.9690 C.3     1  TYR1        0.0548
      6  CG         9.3490   10.5310   21.5470 C.ar    1  TYR1       -0.0200
      7  CD1        8.6100   11.6950   21.7880 C.ar    1  TYR1       -0.0011
      8  CD2        8.7280    9.5070   20.8710 C.ar    1  TYR1       -0.0011
      9  CE1        7.3050   11.8060   21.3840 C.ar    1  TYR1        0.0371
     10  CE2        7.4410    9.6070   20.4480 C.ar    1  TYR1        0.0371
     11  CZ         6.7120   10.7560   20.6970 C.ar    1  TYR1        0.1490
     12  OH         5.5630   10.8470   20.2550 O.3     1  TYR1       -0.3998
     13  P          4.2150   10.3140   20.9640 P.3     1  TYR1        0.5887
     14  O1P        4.5330    8.9990   21.5830 O.3     1  TYR1       -0.1039
     15  O2P        3.1900   10.2280   19.8060 O.2     1  TYR1       -0.2114
     16  O3P        3.8890   11.3100   22.0680 O.3     1  TYR1       -0.1039
     17  N         12.8950    8.1960   22.9750 N.am    2  VAL2       -0.1966
     18  CA        14.2800    7.8140   23.0830 C.3     2  VAL2        0.1712
     19  C         15.1790    8.7660   22.2700 C.2     2  VAL2        0.2458
     20  O         14.9710    8.9530   21.0820 O.2     2  VAL2       -0.2730
     21  CB        14.5120    6.3760   22.5960 C.3     2  VAL2        0.0289
     22  CG1       15.9800    5.9910   22.7150 C.3     2  VAL2        0.0023
     23  CG2       13.6850    5.4030   23.4190 C.3     2  VAL2        0.0023
     24  N         16.1750    9.3410   22.9170 N.am    3  PRO3       -0.2716
     25  CA        17.1280   10.2240   22.2370 C.3     3  PRO3        0.1536
     26  C         17.8690    9.4670   21.1470 C.2     3  PRO3        0.2598
     27  O         18.4070    8.3970   21.4000 O.2     3  PRO3       -0.2715
     28  CB        18.1040   10.6270   23.3800 C.3     3  PRO3        0.0310
     29  CG        17.3680   10.3990   24.5820 C.3     3  PRO3        0.0237
     30  CD        16.5280    9.1490   24.3330 C.3     3  PRO3        0.0939
     31  N         17.9130   10.0010   19.9350 N.am    4  MET4       -0.1964
     32  CA        18.5990    9.3080   18.8270 C.3     4  MET4        0.1736
     33  C         19.7180   10.2230   18.3290 C.2     4  MET4        0.2617
     34  O         19.4780   11.4120   18.0970 O.2     4  MET4       -0.2715
     35  CB        17.6240    8.9930   17.6760 C.3     4  MET4        0.0427
     36  CG        16.4780    8.1080   18.1050 C.3     4  MET4        0.0599
     37  SD        16.8770    6.4810   18.4580 S.3     4  MET4       -0.1393
     38  CE        16.6150    5.7690   16.8390 C.3     4  MET4        0.0692
     39  N         20.9180    9.6970   18.2650 N.am    5  LEU5       -0.1942
     40  CA        22.0510   10.4430   17.7280 C.3     5  LEU5        0.1978
     41  C         22.5480    9.8250   16.4290 C.2     5  LEU5        0.3842
     42  O         22.2150    8.6910   15.9900 O.co2   5  LEU5       -0.2437
     43  CB        23.2060   10.4590   18.7370 C.3     5  LEU5        0.0333
     44  CG        22.9920   11.2570   20.0200 C.3     5  LEU5        0.0023
     45  CD1       24.2080   11.0670   20.9550 C.3     5  LEU5        0.0001
     46  CD2       22.8020   12.7240   19.7410 C.3     5  LEU5        0.0001
     47  OXT       23.4290   10.4410   15.8040 O.co2   5  LEU5       -0.2437
@<TRIPOS>BOND
     1    47    41   ar
     2    42    41   ar
     3    41    40    1
     4    38    37    1
     5    35    36    1
     6    35    32    1
     7    40    39    1
     8    40    43    1
     9    34    33    2
    10    36    37    1
    11    39    33   am
    12    33    32    1
    13    43    44    1
    14    32    31    1
    15    46    44    1
    16    15    13    2
    17    31    26   am
    18    44    45    1
    19    12    11    1
    20    12    13    1
    21    10    11   ar
    22    10     8   ar
    23    11     9   ar
    24     8     6   ar
    25    13    14    1
    26    13    16    1
    27    20    19    2
    28    26    27    2
    29    26    25    1
    30     9     7   ar
    31     6     7   ar
    32     6     5    1
    33     5     2    1
    34    25    24    1
    35    25    28    1
    36    19    24   am
    37    19    18    1
    38    21    22    1
    39    21    18    1
    40    21    23    1
    41    24    30    1
    42    17    18    1
    43    17     3   am
    44     2     3    1
    45     2     1    1
    46    28    29    1
    47     3     4    2
    48    30    29    1
