@<TRIPOS>MOLECULE
1h9u_LG2_A_1.pdb
 27 30 0 0 0
SMALL
GASTEIGER

@<TRIPOS>ATOM
      1  C1       -40.3810  -50.8520  117.6780 C.ar    1  LG21       -0.0271
      2  C2       -41.3690  -50.2550  116.8210 C.ar    1  LG21       -0.0088
      3  C3       -41.0390  -49.6140  115.5740 C.ar    1  LG21       -0.0218
      4  C4       -39.6320  -49.5680  115.1590 C.ar    1  LG21       -0.0258
      5  C5       -38.6320  -50.1670  116.0200 C.ar    1  LG21       -0.0092
      6  C6       -38.9840  -50.8090  117.2670 C.ar    1  LG21       -0.0271
      7  C7       -37.8810  -51.4410  118.1400 C.3     1  LG21        0.0186
      8  C8       -38.5100  -52.4650  119.1260 C.3     1  LG21        0.0044
      9  C9       -39.6100  -51.7450  119.9150 C.3     1  LG21        0.0044
     10  C10      -40.8110  -51.5320  119.0020 C.3     1  LG21        0.0186
     11  C11      -42.2020  -49.0530  114.8070 C.3     1  LG21        0.0539
     12  C12      -42.8820  -49.9900  113.8740 C.ar    1  LG21        0.0620
     13  N13      -42.2250  -51.1470  113.5000 N.ar    1  LG21       -0.2476
     14  C14      -42.8420  -52.0590  112.6790 C.ar    1  LG21        0.1050
     15  C15      -44.1750  -51.8430  112.1950 C.ar    1  LG21        0.0989
     16  C16      -44.8640  -50.6510  112.5580 C.ar    1  LG21        0.0094
     17  C17      -44.2120  -49.7160  113.4060 C.ar    1  LG21        0.0152
     18  C18      -44.8720  -52.8640  111.3120 C.2     1  LG21        0.3893
     19  O19      -46.0190  -52.6510  110.9380 O.co2   1  LG21       -0.2405
     20  O20      -44.2500  -54.0050  110.9480 O.co2   1  LG21       -0.2405
     21  C21      -41.9960  -47.6790  114.2140 C.3     1  LG21        0.0103
     22  C22      -42.9430  -47.8760  115.3870 C.3     1  LG21        0.0103
     23  C23      -37.1660  -50.3160  118.9230 C.3     1  LG21        0.0044
     24  C24      -36.8060  -52.1660  117.3080 C.3     1  LG21        0.0044
     25  C25      -41.4430  -52.8850  118.6870 C.3     1  LG21        0.0044
     26  C26      -41.8670  -50.7560  119.7880 C.3     1  LG21        0.0044
     27  C27      -39.1560  -48.9330  113.8700 C.3     1  LG21        0.0307
@<TRIPOS>BOND
     1    19    18   ar
     2    20    18   ar
     3    18    15    1
     4    15    16   ar
     5    15    14   ar
     6    16    17   ar
     7    14    13   ar
     8    17    12   ar
     9    13    12   ar
    10    27     4    1
    11    12    11    1
    12    21    11    1
    13    21    22    1
    14    11    22    1
    15    11     3    1
    16     4     3   ar
    17     4     5   ar
    18     3     2   ar
    19     5     6   ar
    20     2     1   ar
    21     6     1   ar
    22     6     7    1
    23    24     7    1
    24     1    10    1
    25     7    23    1
    26     7     8    1
    27    25    10    1
    28    10    26    1
    29    10     9    1
    30     8     9    1
