@<TRIPOS>MOLECULE
1h9x_DHE_A_1.pdb
 49 56 0 0 0
SMALL
GASTEIGER

@<TRIPOS>ATOM
      1 FE        106.1110   58.0480  199.2340 Fe    602  DHE602      0.0000
      2  CHA      106.1480   60.9400  201.1930 C.2   602  DHE602      0.0000
      3  CHB      104.2870   56.5240  201.7140 C.2   602  DHE602      0.0000
      4  CHC      104.8710   55.7390  196.9460 C.2   602  DHE602      0.0000
      5  CHD      107.2940   59.9150  196.5910 C.2   602  DHE602      0.0000
      6  NA       105.3020   58.6390  201.0440 N.2   602  DHE602      0.0000
      7  C1A      105.5700   59.8120  201.7170 C.2   602  DHE602      0.0000
      8  C2A      105.2340   59.6640  203.1200 C.2   602  DHE602      0.0000
      9  C3A      104.7190   58.4470  203.2860 C.2   602  DHE602      0.0000
     10  C4A      104.7440   57.7970  201.9890 C.2   602  DHE602      0.0000
     11  CMA      104.1840   57.8090  204.5940 C.3   602  DHE602      0.0000
     12  CAA      105.4610   60.7830  204.1830 C.3   602  DHE602      0.0000
     13  CBA      106.8980   60.7850  204.7300 C.3   602  DHE602      0.0000
     14  CGA      107.2650   61.6900  205.8800 C.2   602  DHE602      0.0000
     15  O1A      106.3070   62.2950  206.4120 O.co2 602  DHE602      0.0000
     16  O2A      108.4990   61.7570  206.2390 O.co2 602  DHE602      0.0000
     17  NB       104.8040   56.4940  199.2900 N.pl3 602  DHE602      0.0000
     18  C1B      104.2680   55.9580  200.4470 C.2   602  DHE602      0.0000
     19  C2B      103.5560   54.7530  200.1250 C.2   602  DHE602      0.0000
     20  OMB      102.8160   53.9230  201.1780 O.2   602  DHE602      0.0000
     21  C3B      103.5300   54.6620  198.7740 C.2   602  DHE602      0.0000
     22  CGB      102.0720   55.0080  198.3000 C.3   602  DHE602      0.0000
     23  CAB      103.8330   53.2430  198.2830 C.3   602  DHE602      0.0000
     24  CBB      104.9720   52.6510  198.6010 C.2   602  DHE602      0.0000
     25  O1B      105.0970   51.4020  198.4060 O.co2 602  DHE602      0.0000
     26  O2B      105.9940   53.1750  199.1040 O.co2 602  DHE602      0.0000
     27  C4B      104.4960   55.6090  198.2680 C.2   602  DHE602      0.0000
     28  NC       106.0610   57.8920  197.1930 N.2   602  DHE602      0.0000
     29  C1C      105.6020   56.8200  196.4640 C.2   602  DHE602      0.0000
     30  C2C      105.9700   56.9780  195.0690 C.2   602  DHE602      0.0000
     31  OMC      105.6210   55.9430  194.0060 O.2   602  DHE602      0.0000
     32  C3C      106.5870   58.1690  194.9440 C.2   602  DHE602      0.0000
     33  CGC      105.6490   58.9560  193.9840 C.3   602  DHE602      0.0000
     34  CAC      107.9400   58.0730  194.2400 C.3   602  DHE602      0.0000
     35  CBC      108.8920   57.3750  194.8400 C.2   602  DHE602      0.0000
     36  O1C      109.9900   57.8980  195.1690 O.co2 602  DHE602      0.0000
     37  O2C      108.7440   56.1430  195.1180 O.co2 602  DHE602      0.0000
     38  C4C      106.7260   58.7010  196.2980 C.2   602  DHE602      0.0000
     39  ND       106.5420   60.0250  198.9470 N.ar  602  DHE602      0.0000
     40  C1D      107.1360   60.5430  197.8160 C.ar  602  DHE602      0.0000
     41  C2D      107.4920   61.9360  198.0460 C.ar  602  DHE602      0.0000
     42  C3D      107.1670   62.2260  199.3100 C.ar  602  DHE602      0.0000
     43  C4D      106.5970   61.0180  199.8880 C.ar  602  DHE602      0.0000
     44  CMD      108.1430   62.8240  196.9680 C.3   602  DHE602      0.0000
     45  CAD      107.3460   63.5530  200.0800 C.2   602  DHE602      0.0000
     46  CBD      107.2210   64.8560  199.3160 C.2   602  DHE602      0.0000
     47  CGD      107.1990   66.1270  200.1250 C.2   602  DHE602      0.0000
     48  O1D      107.2780   67.2180  199.4810 O.co2 602  DHE602      0.0000
     49  O2D      107.0950   66.0460  201.3690 O.co2 602  DHE602      0.0000
@<TRIPOS>BOND
     1    33    32    1
     2    31    30    1
     3    34    35    1
     4    34    32    1
     5    35    37   ar
     6    35    36   ar
     7    32    30    2
     8    32    38    1
     9    30    29    1
    10    38     5    1
    11    38    28    2
    12    29     4    2
    13    29    28    1
    14     5    40    2
    15     4    27    1
    16    44    41    1
    17    28     1    1
    18    40    41   ar
    19    40    39   ar
    20    41    42   ar
    21    27    21    2
    22    27    17    1
    23    23    24    1
    24    23    21    1
    25    22    21    1
    26    25    24   ar
    27    24    26   ar
    28    21    19    1
    29    39     1    1
    30    39    43   ar
    31     1    17    1
    32     1     6    1
    33    17    18    1
    34    42    43   ar
    35    42    45    1
    36    46    45    2
    37    46    47    1
    38    48    47   ar
    39    43     2    2
    40    19    18    2
    41    19    20    1
    42    47    49   ar
    43    18     3    1
    44     6     7    2
    45     6    10    1
    46     2     7    1
    47     3    10    2
    48     7     8    1
    49    10     9    1
    50     8     9    2
    51     8    12    1
    52     9    11    1
    53    12    13    1
    54    13    14    1
    55    14    16   ar
    56    14    15   ar
