@<TRIPOS>MOLECULE
1h9x_HEC_A_1.pdb
 43 50 0 0 0
SMALL
GASTEIGER

@<TRIPOS>ATOM
      1 FE        112.4240   41.6770  194.0170 Fe    601  HEC601      0.0000
      2  CHA      110.5450   41.0910  191.1620 C.2   601  HEC601      0.0000
      3  CHB      112.7150   38.3370  194.4870 C.2   601  HEC601      0.0000
      4  CHC      114.4710   42.2700  196.7340 C.2   601  HEC601      0.0000
      5  CHD      111.8210   45.0120  193.7580 C.2   601  HEC601      0.0000
      6  NA       111.7660   40.0300  193.0240 N.2   601  HEC601      0.0000
      7  C1A      111.0370   40.0090  191.8510 C.2   601  HEC601      0.0000
      8  C2A      110.9020   38.6260  191.4280 C.2   601  HEC601      0.0000
      9  C3A      111.4830   37.8540  192.3290 C.2   601  HEC601      0.0000
     10  C4A      112.0090   38.7320  193.3720 C.2   601  HEC601      0.0000
     11  CMA      111.6100   36.3120  192.3760 C.3   601  HEC601      0.0000
     12  CAA      110.1470   38.2300  190.1230 C.3   601  HEC601      0.0000
     13  CBA      108.6320   38.0550  190.3990 C.3   601  HEC601      0.0000
     14  CGA      107.7610   37.9680  189.1710 C.2   601  HEC601      0.0000
     15  O1A      106.5490   37.6790  189.3430 O.co2 601  HEC601      0.0000
     16  O2A      108.2690   38.1980  188.0560 O.co2 601  HEC601      0.0000
     17  NB       113.3630   40.5450  195.3310 N.ar  601  HEC601      0.0000
     18  C1B      113.3680   39.1550  195.3860 C.ar  601  HEC601      0.0000
     19  C2B      114.1760   38.7140  196.4890 C.ar  601  HEC601      0.0000
     20  C3B      114.6680   39.8020  197.0830 C.ar  601  HEC601      0.0000
     21  C4B      114.1870   40.9570  196.3880 C.ar  601  HEC601      0.0000
     22  CMB      114.4000   37.2260  196.8680 C.3   601  HEC601      0.0000
     23  CAB      115.6090   39.7860  198.3440 C.3   601  HEC601      0.0000
     24  CBB      116.8820   39.3280  197.9760 C.3   601  HEC601      0.0000
     25  NC       113.0310   43.3170  195.0320 N.2   601  HEC601      0.0000
     26  C1C      113.8930   43.3600  196.1160 C.2   601  HEC601      0.0000
     27  C2C      114.0550   44.7380  196.5310 C.2   601  HEC601      0.0000
     28  C3C      113.3420   45.4910  195.6980 C.2   601  HEC601      0.0000
     29  C4C      112.6580   44.6150  194.7700 C.2   601  HEC601      0.0000
     30  CMC      114.9280   45.1940  197.7320 C.3   601  HEC601      0.0000
     31  CAC      113.1550   47.0520  195.8160 C.2   601  HEC601      0.0000
     32  CBC      114.2710   47.8550  195.7270 C.2   601  HEC601      0.0000
     33  ND       111.4110   42.7830  192.7390 N.ar  601  HEC601      0.0000
     34  C1D      111.2590   44.1840  192.8080 C.ar  601  HEC601      0.0000
     35  C2D      110.4570   44.6290  191.7160 C.ar  601  HEC601      0.0000
     36  C3D      110.1020   43.5540  191.0160 C.ar  601  HEC601      0.0000
     37  C4D      110.7010   42.3960  191.6200 C.ar  601  HEC601      0.0000
     38  CMD      110.0760   46.1110  191.4290 C.3   601  HEC601      0.0000
     39  CAD      109.2270   43.5270  189.7100 C.3   601  HEC601      0.0000
     40  CBD      110.1760   43.5610  188.4910 C.3   601  HEC601      0.0000
     41  CGD      109.5750   43.6980  187.1240 C.2   601  HEC601      0.0000
     42  O1D      110.3630   43.5370  186.1530 O.co2 601  HEC601      0.0000
     43  O2D      108.3560   43.9780  187.0140 O.co2 601  HEC601      0.0000
@<TRIPOS>BOND
     1    42    41   ar
     2    43    41   ar
     3    41    40    1
     4    16    14   ar
     5    40    39    1
     6    14    15   ar
     7    14    13    1
     8    39    36    1
     9    12    13    1
    10    12     8    1
    11    36    37   ar
    12    36    35   ar
    13     2    37    2
    14     2     7    1
    15     8     7    1
    16     8     9    2
    17    38    35    1
    18    37    33   ar
    19    35    34   ar
    20     7     6    2
    21     9    11    1
    22     9    10    1
    23    33    34   ar
    24    33     1    1
    25    34     5    2
    26     6    10    1
    27     6     1    1
    28    10     3    2
    29     5    29    1
    30     1    25    1
    31     1    17    1
    32     3    18    1
    33    29    25    2
    34    29    28    1
    35    25    26    1
    36    17    18   ar
    37    17    21   ar
    38    18    19   ar
    39    28    31    1
    40    28    27    2
    41    32    31    2
    42    26    27    1
    43    26     4    2
    44    21     4    1
    45    21    20   ar
    46    19    22    1
    47    19    20   ar
    48    27    30    1
    49    20    23    1
    50    24    23    1
