@<TRIPOS>MOLECULE
1h9y_DHE_A_1.pdb
 49 56 0 0 0
SMALL
GASTEIGER

@<TRIPOS>ATOM
      1 FE        105.3910   58.3560  198.6990 Fe    602  DHE602      0.0000
      2  CHA      105.9230   60.9180  200.8500 C.2   602  DHE602      0.0000
      3  CHB      104.1810   56.4660  201.2640 C.2   602  DHE602      0.0000
      4  CHC      104.4210   55.9740  196.4510 C.2   602  DHE602      0.0000
      5  CHD      106.8570   60.1340  196.1820 C.2   602  DHE602      0.0000
      6  NA       105.1150   58.6100  200.6840 N.2   602  DHE602      0.0000
      7  C1A      105.3820   59.7700  201.3720 C.2   602  DHE602      0.0000
      8  C2A      105.0380   59.5870  202.7640 C.2   602  DHE602      0.0000
      9  C3A      104.5570   58.3520  202.9090 C.2   602  DHE602      0.0000
     10  C4A      104.6060   57.7220  201.6000 C.2   602  DHE602      0.0000
     11  CMA      104.0410   57.6850  204.2020 C.3   602  DHE602      0.0000
     12  CAA      105.2710   60.7240  203.7870 C.3   602  DHE602      0.0000
     13  CBA      106.7490   60.8080  204.1970 C.3   602  DHE602      0.0000
     14  CGA      107.1050   61.7620  205.2990 C.2   602  DHE602      0.0000
     15  O1A      106.1670   62.3880  205.8390 O.co2 602  DHE602      0.0000
     16  O2A      108.3230   61.8560  205.5970 O.co2 602  DHE602      0.0000
     17  NB       104.5160   56.5450  198.8240 N.pl3 602  DHE602      0.0000
     18  C1B      104.0740   55.9500  199.9870 C.2   602  DHE602      0.0000
     19  C2B      103.3290   54.7640  199.6370 C.2   602  DHE602      0.0000
     20  OMB      102.6850   53.8510  200.6890 O.2   602  DHE602      0.0000
     21  C3B      103.3580   54.6460  198.3150 C.2   602  DHE602      0.0000
     22  CGB      101.9440   55.1470  197.9570 C.3   602  DHE602      0.0000
     23  CAB      103.8050   53.3180  197.7550 C.3   602  DHE602      0.0000
     24  CBB      104.8110   52.6490  198.2790 C.2   602  DHE602      0.0000
     25  O1B      104.7470   51.3850  198.3510 O.co2 602  DHE602      0.0000
     26  O2B      105.8410   53.2360  198.7030 O.co2 602  DHE602      0.0000
     27  C4B      104.1360   55.7350  197.7740 C.2   602  DHE602      0.0000
     28  NC       105.6370   58.1020  196.6980 N.2   602  DHE602      0.0000
     29  C1C      105.1210   57.0570  195.9440 C.2   602  DHE602      0.0000
     30  C2C      105.4650   57.2630  194.5620 C.2   602  DHE602      0.0000
     31  OMC      105.0710   56.2760  193.4550 O.2   602  DHE602      0.0000
     32  C3C      106.1600   58.3990  194.4820 C.2   602  DHE602      0.0000
     33  CGC      105.2210   59.2150  193.5270 C.3   602  DHE602      0.0000
     34  CAC      107.5090   58.2750  193.7840 C.3   602  DHE602      0.0000
     35  CBC      108.3670   57.3740  194.2130 C.2   602  DHE602      0.0000
     36  O1C      109.5660   57.6930  194.4650 O.co2 602  DHE602      0.0000
     37  O2C      108.0540   56.1630  194.3920 O.co2 602  DHE602      0.0000
     38  C4C      106.2770   58.9490  195.8160 C.2   602  DHE602      0.0000
     39  ND       106.2430   60.1640  198.5640 N.ar  602  DHE602      0.0000
     40  C1D      106.7750   60.7410  197.4280 C.ar  602  DHE602      0.0000
     41  C2D      107.1390   62.1150  197.7200 C.ar  602  DHE602      0.0000
     42  C3D      106.8680   62.3470  199.0080 C.ar  602  DHE602      0.0000
     43  C4D      106.3320   61.1170  199.5560 C.ar  602  DHE602      0.0000
     44  CMD      107.7430   63.0450  196.6410 C.3   602  DHE602      0.0000
     45  CAD      107.0900   63.6270  199.8390 C.2   602  DHE602      0.0000
     46  CBD      106.9280   64.9490  199.0970 C.2   602  DHE602      0.0000
     47  CGD      106.8650   66.1930  199.9320 C.2   602  DHE602      0.0000
     48  O1D      107.0220   67.2910  199.3340 O.co2 602  DHE602      0.0000
     49  O2D      106.6580   66.0610  201.1610 O.co2 602  DHE602      0.0000
@<TRIPOS>BOND
     1    31    30    1
     2    33    32    1
     3    34    35    1
     4    34    32    1
     5    35    37   ar
     6    35    36   ar
     7    32    30    2
     8    32    38    1
     9    30    29    1
    10    38     5    1
    11    38    28    2
    12    29     4    2
    13    29    28    1
    14     5    40    2
    15     4    27    1
    16    44    41    1
    17    28     1    1
    18    40    41   ar
    19    40    39   ar
    20    41    42   ar
    21    23    24    1
    22    23    21    1
    23    27    21    2
    24    27    17    1
    25    22    21    1
    26    24    25   ar
    27    24    26   ar
    28    21    19    1
    29    39     1    1
    30    39    43   ar
    31     1    17    1
    32     1     6    1
    33    17    18    1
    34    42    43   ar
    35    42    45    1
    36    46    45    2
    37    46    47    1
    38    48    47   ar
    39    43     2    2
    40    19    18    2
    41    19    20    1
    42    47    49   ar
    43    18     3    1
    44     6     7    2
    45     6    10    1
    46     2     7    1
    47     3    10    2
    48     7     8    1
    49    10     9    1
    50     8     9    2
    51     8    12    1
    52     9    11    1
    53    12    13    1
    54    13    14    1
    55    14    16   ar
    56    14    15   ar
