@<TRIPOS>MOLECULE
1h9y_HEC_A_1.pdb
 43 50 0 0 0
SMALL
GASTEIGER

@<TRIPOS>ATOM
      1 FE        111.7260   41.7450  193.4320 Fe    601  HEC601      0.0000
      2  CHA      109.8320   41.1480  190.6740 C.2   601  HEC601      0.0000
      3  CHB      112.0650   38.3790  193.9230 C.2   601  HEC601      0.0000
      4  CHC      113.8140   42.3250  196.1020 C.2   601  HEC601      0.0000
      5  CHD      111.1610   45.0960  193.1790 C.2   601  HEC601      0.0000
      6  NA       111.0850   40.0920  192.4920 N.2   601  HEC601      0.0000
      7  C1A      110.3350   40.0480  191.3310 C.2   601  HEC601      0.0000
      8  C2A      110.1670   38.6700  190.9240 C.2   601  HEC601      0.0000
      9  C3A      110.7780   37.9060  191.8230 C.2   601  HEC601      0.0000
     10  C4A      111.3360   38.7910  192.8330 C.2   601  HEC601      0.0000
     11  CMA      110.9080   36.3650  191.8890 C.3   601  HEC601      0.0000
     12  CAA      109.3780   38.2710  189.6460 C.2   601  HEC601      0.0000
     13  CBA      107.8680   38.0730  189.8430 C.2   601  HEC601      0.0000
     14  CGA      107.0320   38.0380  188.6070 C.2   601  HEC601      0.0000
     15  O1A      105.7950   37.8800  188.7680 O.co2 601  HEC601      0.0000
     16  O2A      107.5720   38.1650  187.4750 O.co2 601  HEC601      0.0000
     17  NB       112.7120   40.6020  194.7460 N.ar  601  HEC601      0.0000
     18  C1B      112.7170   39.2210  194.7930 C.ar  601  HEC601      0.0000
     19  C2B      113.5150   38.7670  195.9090 C.ar  601  HEC601      0.0000
     20  C3B      114.0160   39.8670  196.4960 C.ar  601  HEC601      0.0000
     21  C4B      113.5350   41.0140  195.7760 C.ar  601  HEC601      0.0000
     22  CMB      113.7100   37.2770  196.2590 C.3   601  HEC601      0.0000
     23  CAB      114.9310   39.8700  197.7670 C.3   601  HEC601      0.0000
     24  CBB      116.2390   39.5560  197.4430 C.3   601  HEC601      0.0000
     25  NC       112.3620   43.3870  194.4360 N.2   601  HEC601      0.0000
     26  C1C      113.2450   43.4180  195.4890 C.2   601  HEC601      0.0000
     27  C2C      113.4620   44.7970  195.8890 C.2   601  HEC601      0.0000
     28  C3C      112.7460   45.5570  195.0660 C.2   601  HEC601      0.0000
     29  C4C      112.0180   44.6980  194.1780 C.2   601  HEC601      0.0000
     30  CMC      114.3870   45.2400  197.0550 C.3   601  HEC601      0.0000
     31  CAC      112.6000   47.1320  195.1650 C.2   601  HEC601      0.0000
     32  CBC      113.7650   47.8350  195.0620 C.2   601  HEC601      0.0000
     33  ND       110.6950   42.8860  192.1960 N.ar  601  HEC601      0.0000
     34  C1D      110.5710   44.2570  192.2450 C.ar  601  HEC601      0.0000
     35  C2D      109.7730   44.6910  191.1280 C.ar  601  HEC601      0.0000
     36  C3D      109.4080   43.6070  190.4430 C.ar  601  HEC601      0.0000
     37  C4D      109.9860   42.4580  191.0930 C.ar  601  HEC601      0.0000
     38  CMD      109.4050   46.1710  190.8260 C.3   601  HEC601      0.0000
     39  CAD      108.5360   43.5240  189.1600 C.3   601  HEC601      0.0000
     40  CBD      109.4120   43.5240  187.9040 C.3   601  HEC601      0.0000
     41  CGD      108.8190   43.8190  186.5730 C.2   601  HEC601      0.0000
     42  O1D      109.5810   43.6570  185.5800 O.co2 601  HEC601      0.0000
     43  O2D      107.6260   44.1830  186.5080 O.co2 601  HEC601      0.0000
@<TRIPOS>BOND
     1    42    41   ar
     2    43    41   ar
     3    41    40    1
     4    16    14   ar
     5    40    39    1
     6    14    15   ar
     7    14    13    1
     8    39    36    1
     9    12    13    2
    10    12     8    1
    11    36    37   ar
    12    36    35   ar
    13     2    37    2
    14     2     7    1
    15    38    35    1
    16     8     7    1
    17     8     9    2
    18    37    33   ar
    19    35    34   ar
    20     7     6    2
    21     9    11    1
    22     9    10    1
    23    33    34   ar
    24    33     1    1
    25    34     5    2
    26     6    10    1
    27     6     1    1
    28    10     3    2
    29     5    29    1
    30     1    25    1
    31     1    17    1
    32     3    18    1
    33    29    25    2
    34    29    28    1
    35    25    26    1
    36    17    18   ar
    37    17    21   ar
    38    18    19   ar
    39    32    31    2
    40    28    31    1
    41    28    27    2
    42    26    27    1
    43    26     4    2
    44    21     4    1
    45    21    20   ar
    46    27    30    1
    47    19    22    1
    48    19    20   ar
    49    20    23    1
    50    24    23    1
