@<TRIPOS>MOLECULE
1h9z_RWF_A_1.pdb
 23 25 0 0 0
SMALL
GASTEIGER

@<TRIPOS>ATOM
      1  C1        34.8210   14.6190    9.6270 C.ar  3001  RWF3001     0.0735
      2  C2        30.8510   14.2270    9.5720 C.3   3001  RWF3001     0.0567
      3  C3        30.5470   14.0430   11.0820 C.3   3001  RWF3001     0.0419
      4  C4        29.0770   14.0520   11.4070 C.3   3001  RWF3001     0.1528
      5  C5        28.5420   13.2490   12.5600 C.3   3001  RWF3001     0.0355
      6  C6        30.5360   12.9520    8.7410 C.ar  3001  RWF3001    -0.0180
      7  C7        30.0190   13.0550    7.4230 C.ar  3001  RWF3001    -0.0040
      8  C8        29.7310   11.8960    6.6510 C.ar  3001  RWF3001    -0.0003
      9  C9        29.9510   10.6210    7.1770 C.ar  3001  RWF3001    -0.0000
     10  C10       30.4510   10.4960    8.4530 C.ar  3001  RWF3001    -0.0003
     11  C11       32.4790   15.9140    8.5600 C.ar  3001  RWF3001     0.3451
     12  C12       30.7460   11.6410    9.2420 C.ar  3001  RWF3001    -0.0040
     13  C13       32.3060   14.7100    9.3690 C.ar  3001  RWF3001     0.0964
     14  C14       33.4480   14.0920    9.8910 C.ar  3001  RWF3001     0.2011
     15  C15       36.0370   14.0390   10.1110 C.ar  3001  RWF3001     0.0062
     16  C16       37.2800   14.6180    9.7850 C.ar  3001  RWF3001     0.0003
     17  C17       37.3390   15.7790    8.9730 C.ar  3001  RWF3001     0.0031
     18  C18       36.1650   16.3700    8.4900 C.ar  3001  RWF3001     0.0377
     19  C19       34.9180   15.7850    8.8180 C.ar  3001  RWF3001     0.1517
     20  O1        33.7730   16.4000    8.3140 O.2   3001  RWF3001    -0.4211
     21  O2        31.5700   16.5570    8.0530 O.2   3001  RWF3001    -0.2447
     22  O3        28.2330   14.8170   10.5850 O.3   3001  RWF3001    -0.2231
     23  O4        33.4490   12.9750   10.6620 O.3   3001  RWF3001    -0.2866
@<TRIPOS>BOND
     1     8     9   ar
     2     8     7   ar
     3     9    10   ar
     4     7     6   ar
     5    21    11    2
     6    20    11   ar
     7    20    19   ar
     8    10    12   ar
     9    18    19   ar
    10    18    17   ar
    11    11    13   ar
    12     6    12   ar
    13     6     2    1
    14    19     1   ar
    15    17    16   ar
    16    13     2    1
    17    13    14   ar
    18     2     3    1
    19     1    14   ar
    20     1    15   ar
    21    16    15   ar
    22    14    23    1
    23    22     4    1
    24     3     4    1
    25     4     5    1
