@<TRIPOS>MOLECULE
1h9z_MYR_A_1.pdb
 16 15 0 0 0
SMALL
GASTEIGER

@<TRIPOS>ATOM
      1  C1        28.7090   12.1090   36.2160 C.2   1001  MYR1001     0.3649
      2  O1        28.3430   13.2940   36.0490 O.co2 1001  MYR1001    -0.2457
      3  O2        27.9430   11.2160   36.6470 O.co2 1001  MYR1001    -0.2457
      4  C2        30.1560   11.7400   35.8740 C.3   1001  MYR1001     0.1141
      5  C3        31.0870   12.0580   37.0530 C.3   1001  MYR1001     0.0118
      6  C4        32.0280   13.1390   36.5250 C.3   1001  MYR1001     0.0006
      7  C5        31.9600   14.4100   37.3790 C.3   1001  MYR1001     0.0000
      8  C6        33.3450   15.0310   37.5720 C.3   1001  MYR1001     0.0000
      9  C7        33.5160   16.3110   36.7470 C.3   1001  MYR1001     0.0000
     10  C8        34.9460   16.4920   36.2350 C.3   1001  MYR1001     0.0000
     11  C9        35.2210   15.6860   34.9550 C.3   1001  MYR1001     0.0000
     12  C10       36.5290   16.1260   34.3020 C.3   1001  MYR1001     0.0000
     13  C11       37.0600   15.0820   33.3330 C.3   1001  MYR1001     0.0000
     14  C12       36.9050   15.5520   31.8950 C.3   1001  MYR1001     0.0000
     15  C13       36.1860   14.5320   31.0190 C.3   1001  MYR1001     0.0000
     16  C14       34.7090   14.4500   31.3580 C.3   1001  MYR1001     0.0000
@<TRIPOS>BOND
     1    15    16    1
     2    15    14    1
     3    14    13    1
     4    13    12    1
     5    12    11    1
     6    11    10    1
     7     4     1    1
     8     4     5    1
     9     2     1   ar
    10     1     3   ar
    11    10     9    1
    12     6     5    1
    13     6     7    1
    14     9     8    1
    15     7     8    1
