@<TRIPOS>MOLECULE
1ha2_SWF_A_1.pdb
 23 25 0 0 0
SMALL
GASTEIGER

@<TRIPOS>ATOM
      1  C15       35.0060   14.6680    9.9100 C.ar  3001  SWF3001     0.0735
      2  C5        31.0190   13.8500   10.0360 C.3   3001  SWF3001     0.0567
      3  C4        29.9300   14.9030   10.3560 C.3   3001  SWF3001     0.0419
      4  C2        28.9650   14.3650   11.3650 C.3   3001  SWF3001     0.1528
      5  C1        29.4460   13.7280   12.6460 C.3   3001  SWF3001     0.0355
      6  C6        30.6330   12.8810    8.9460 C.ar  3001  SWF3001    -0.0180
      7  C7        30.0900   13.2020    7.6040 C.ar  3001  SWF3001    -0.0040
      8  C8        29.7610   12.1710    6.6290 C.ar  3001  SWF3001    -0.0003
      9  C9        29.9430   10.7960    6.9190 C.ar  3001  SWF3001    -0.0000
     10  C10       30.4620   10.4420    8.2080 C.ar  3001  SWF3001    -0.0003
     11  C22       32.4480   15.7340    8.9390 C.ar  3001  SWF3001     0.3451
     12  C11       30.8070   11.4600    9.2200 C.ar  3001  SWF3001    -0.0040
     13  C12       32.4210   14.4960    9.7730 C.ar  3001  SWF3001     0.0964
     14  C13       33.6760   14.0020   10.2420 C.ar  3001  SWF3001     0.2011
     15  C16       36.3320   14.2380   10.3120 C.ar  3001  SWF3001     0.0062
     16  C17       37.4980   14.9630    9.8910 C.ar  3001  SWF3001     0.0003
     17  C18       37.3600   16.1260    9.0710 C.ar  3001  SWF3001     0.0031
     18  C19       36.0950   16.5840    8.6680 C.ar  3001  SWF3001     0.0377
     19  C20       34.9140   15.8670    9.0800 C.ar  3001  SWF3001     0.1517
     20  O21       33.6890   16.3340    8.6490 O.2   3001  SWF3001    -0.4211
     21  O23       31.5210   16.3030    8.4460 O.2   3001  SWF3001    -0.2447
     22  O3        27.6030   14.5150   11.0770 O.3   3001  SWF3001    -0.2231
     23  O14       33.8380   12.9030   10.9990 O.3   3001  SWF3001    -0.2866
@<TRIPOS>BOND
     1     8     9   ar
     2     8     7   ar
     3     9    10   ar
     4     7     6   ar
     5    10    12   ar
     6    21    11    2
     7    20    11   ar
     8    20    19   ar
     9    18    17   ar
    10    18    19   ar
    11    11    13   ar
    12     6    12   ar
    13     6     2    1
    14    17    16   ar
    15    19     1   ar
    16    13     2    1
    17    13    14   ar
    18    16    15   ar
    19     1    14   ar
    20     1    15   ar
    21     2     3    1
    22    14    23    1
    23     3     4    1
    24    22     4    1
    25     4     5    1
