@<TRIPOS>MOLECULE
1ha2_MYR_A_1.pdb
 16 15 0 0 0
SMALL
GASTEIGER

@<TRIPOS>ATOM
      1  C1        28.5560   12.2910   36.2430 C.2   1001  MYR1001     0.3649
      2  O1        28.4600   13.4810   35.8740 O.co2 1001  MYR1001    -0.2457
      3  O2        27.6190   11.6670   36.7860 O.co2 1001  MYR1001    -0.2457
      4  C2        29.8830   11.5690   36.0220 C.3   1001  MYR1001     0.1141
      5  C3        30.7430   11.6510   37.2860 C.3   1001  MYR1001     0.0118
      6  C4        31.9010   12.5710   36.9140 C.3   1001  MYR1001     0.0006
      7  C5        31.8830   13.8560   37.7430 C.3   1001  MYR1001     0.0000
      8  C6        33.2600   14.4950   37.7970 C.3   1001  MYR1001     0.0000
      9  C7        33.3510   15.7010   36.8820 C.3   1001  MYR1001     0.0000
     10  C8        34.7950   16.0130   36.5100 C.3   1001  MYR1001     0.0000
     11  C9        35.1590   15.4670   35.1300 C.3   1001  MYR1001     0.0000
     12  C10       36.3510   16.2090   34.5440 C.3   1001  MYR1001     0.0000
     13  C11       37.1840   15.3060   33.6530 C.3   1001  MYR1001     0.0000
     14  C12       37.0790   15.7200   32.2030 C.3   1001  MYR1001     0.0000
     15  C13       36.8290   14.5240   31.2980 C.3   1001  MYR1001     0.0000
     16  C14       35.4160   14.5540   30.7560 C.3   1001  MYR1001     0.0000
@<TRIPOS>BOND
     1    16    15    1
     2    15    14    1
     3    14    13    1
     4    13    12    1
     5    12    11    1
     6    11    10    1
     7     2     1   ar
     8     4     1    1
     9     4     5    1
    10     1     3   ar
    11    10     9    1
    12     9     8    1
    13     6     5    1
    14     6     7    1
    15     7     8    1
