@<TRIPOS>MOLECULE
1ha3_GDP_A_1.pdb
 28 30 0 0 0
SMALL
GASTEIGER

@<TRIPOS>ATOM
      1  PB        13.2590    2.8240   12.1510 P.3   406  GDP406      0.5373
      2  O1B       14.0230    2.8660   10.8800 O.2   406  GDP406     -0.2221
      3  O2B       13.5870    3.9860   13.0200 O.3   406  GDP406     -0.1143
      4  O3B       13.5130    1.5750   12.9100 O.3   406  GDP406     -0.1143
      5  O3A       11.6960    2.9040   11.8220 O.3   406  GDP406     -0.2261
      6  PA        10.6820    4.1540   12.0360 P.3   406  GDP406      0.2231
      7  O1A       11.2090    5.3170   11.2900 O.2   406  GDP406     -0.5169
      8  O2A       10.3890    4.3150   13.4880 O.3   406  GDP406     -0.4370
      9  O5'        9.3670    3.6050   11.3280 O.3   406  GDP406     -0.3111
     10  C5'        9.3540    3.1290    9.9690 C.3   406  GDP406      0.1813
     11  C4'        7.9560    3.1860    9.4030 C.3   406  GDP406      0.1799
     12  O4'        7.0750    2.1860    9.9740 O.3   406  GDP406     -0.3326
     13  C3'        7.2030    4.5050    9.5290 C.3   406  GDP406      0.2158
     14  O3'        6.3890    4.7840    8.4030 O.3   406  GDP406     -0.2175
     15  C2'        6.3680    4.3190   10.7920 C.3   406  GDP406      0.2310
     16  O2'        5.1490    5.0410   10.7660 O.3   406  GDP406     -0.2158
     17  C1'        6.0700    2.8180   10.7340 C.3   406  GDP406      0.2293
     18  N9         5.7610    2.1440   11.9910 N.pl3 406  GDP406     -0.2354
     19  C8         6.4630    2.2230   13.1720 C.3   406  GDP406      0.2246
     20  N7         5.9270    1.5370   14.1420 N.2   406  GDP406     -0.2322
     21  C5         4.7960    0.9640   13.5720 C.2   406  GDP406      0.2182
     22  C6         3.8000    0.1150   14.1500 C.1   406  GDP406      0.2372
     23  O6         3.7140   -0.2780   15.3220 O.2   406  GDP406     -0.2069
     24  N1         2.8250   -0.2590   13.2160 N.2   406  GDP406     -0.2485
     25  C2         2.8050    0.1410   11.8930 C.1   406  GDP406      0.2531
     26  N2         1.7890   -0.3240   11.1470 N.pl3 406  GDP406     -0.0226
     27  N3         3.7270    0.9420   11.3450 N.2   406  GDP406     -0.3074
     28  C4         4.6870    1.3140   12.2420 C.2   406  GDP406      0.2300
@<TRIPOS>BOND
     1    14    13    1
     2    11    13    1
     3    11    10    1
     4    11    12    1
     5    13    15    1
     6    10     9    1
     7    12    17    1
     8    17    15    1
     9    17    18    1
    10    16    15    1
    11     2     1    2
    12    26    25    1
    13     7     6    2
    14     9     6    1
    15    27    25    2
    16    27    28    2
    17     5     6    1
    18     5     1    1
    19    25    24    2
    20    18    28    1
    21    18    19    1
    22     6     8    1
    23     1     4    1
    24     1     3    1
    25    28    21    1
    26    19    20    1
    27    24    22    2
    28    21    20    2
    29    21    22    1
    30    22    23    2
