@<TRIPOS>MOLECULE
1ha7_CYC_A_1.pdb
 43 46 0 0 0
SMALL
GASTEIGER

@<TRIPOS>ATOM
      1  CHA       11.1870   -3.7530   48.4330 C.3   184  CYC184      0.1170
      2  NA        13.5280   -3.1850   48.2500 N.2   184  CYC184     -0.4104
      3  C1A       12.3710   -3.6090   47.6880 C.2   184  CYC184      0.1114
      4  C2A       12.5610   -3.8730   46.2760 C.2   184  CYC184      0.0024
      5  C3A       13.8850   -3.6010   45.9580 C.2   184  CYC184      0.0021
      6  C4A       14.4980   -3.1550   47.2530 C.2   184  CYC184      0.1114
      7  CMA       14.5030   -3.7550   44.5340 C.3   184  CYC184      0.0331
      8  CAA       11.4640   -4.3740   45.2920 C.3   184  CYC184      0.0402
      9  CBA       11.5870   -5.8410   44.8100 C.3   184  CYC184      0.1188
     10  CGA       11.7460   -6.8260   45.9400 C.2   184  CYC184      0.3652
     11  O1A       12.8910   -7.2530   46.1670 O.co2 184  CYC184     -0.2456
     12  O2A       10.7630   -7.1480   46.5980 O.co2 184  CYC184     -0.2456
     13  CHB       15.8450   -2.7370   47.5390 C.3   184  CYC184      0.1181
     14  NB        17.0900   -4.2510   46.0880 N.2   184  CYC184     -0.3375
     15  C1B       17.0560   -3.2300   47.0010 C.2   184  CYC184      0.1254
     16  C2B       18.4160   -2.7900   47.2690 C.2   184  CYC184      0.0128
     17  C3B       19.2720   -3.5610   46.4930 C.2   184  CYC184      0.0706
     18  C4B       18.3970   -4.4450   45.7890 C.1   184  CYC184      0.2000
     19  CMB       18.7730   -1.6790   48.2250 C.3   184  CYC184      0.0339
     20  CAB       20.8230   -3.4590   46.4260 C.3   184  CYC184      0.0390
     21  CBB       21.5610   -4.7560   46.6710 C.3   184  CYC184      0.0058
     22  OB        18.7740   -5.2970   44.9880 O.2   184  CYC184     -0.2096
     23  NC         9.1390   -0.7180   54.0190 N.2   184  CYC184     -0.3448
     24  C1C        8.8550    0.0370   55.0730 C.1   184  CYC184      0.1788
     25  C2C       10.0500    0.6440   55.7290 C.3   184  CYC184      0.1246
     26  C3C       11.2060    0.1480   54.8440 C.3   184  CYC184      0.0660
     27  C4C       10.5360   -0.7410   53.7900 C.2   184  CYC184      0.1070
     28  CMC       10.1020    1.7690   56.7370 C.3   184  CYC184      0.0192
     29  CAC       12.4420   -0.5270   55.4860 C.3   184  CYC184      0.0078
     30  CBC       13.5430    0.4840   55.6030 C.3   184  CYC184      0.0005
     31  OC         7.6780    0.2480   55.5180 O.2   184  CYC184     -0.2142
     32  CHD       11.1120   -1.4900   52.7150 C.3   184  CYC184      0.1138
     33  ND        11.3620   -2.5120   50.6300 N.2   184  CYC184     -0.4104
     34  C1D       10.5670   -2.3000   51.7000 C.2   184  CYC184      0.1111
     35  C2D        9.2970   -2.9940   51.4880 C.2   184  CYC184      0.0021
     36  C3D        9.3780   -3.6100   50.2440 C.2   184  CYC184      0.0024
     37  C4D       10.7050   -3.2920   49.7200 C.2   184  CYC184      0.1114
     38  CMD        8.0310   -3.0870   52.3930 C.3   184  CYC184      0.0331
     39  CAD        8.3140   -4.4740   49.4810 C.3   184  CYC184      0.0402
     40  CBD        7.6090   -3.6930   48.3530 C.3   184  CYC184      0.1188
     41  CGD        6.4900   -4.3690   47.5770 C.2   184  CYC184      0.3652
     42  O1D        5.6120   -3.6510   46.9940 O.co2 184  CYC184     -0.2456
     43  O2D        6.4710   -5.6410   47.5250 O.co2 184  CYC184     -0.2456
@<TRIPOS>BOND
     1     7     5    1
     2     9     8    1
     3     9    10    1
     4    22    18    2
     5     8     4    1
     6    18    14    2
     7    18    17    1
     8    10    11   ar
     9    10    12   ar
    10     5     4    2
    11     5     6    1
    12    14    15    2
    13     4     3    1
    14    20    17    1
    15    20    21    1
    16    17    16    2
    17    42    41   ar
    18    15    16    1
    19    15    13    1
    20     6    13    1
    21     6     2    2
    22    16    19    1
    23    43    41   ar
    24    41    40    1
    25     3     2    2
    26     3     1    1
    27    40    39    1
    28     1    37    1
    29    39    36    1
    30    37    36    1
    31    37    33    2
    32    36    35    2
    33    33    34    2
    34    35    34    1
    35    35    38    1
    36    34    32    1
    37    32    27    1
    38    27    23    2
    39    27    26    1
    40    23    24    2
    41    26    29    1
    42    26    25    1
    43    24    31    2
    44    24    25    1
    45    29    30    1
    46    25    28    1
