@<TRIPOS>MOLECULE
1hab_HEM_A_1.pdb
 43 50 0 0 0
SMALL
GASTEIGER

@<TRIPOS>ATOM
      1 FE         58.4980   -8.0180  -12.7780 Fe    200  HEM200      0.0000
      2  CHA       58.2430  -10.5020  -14.9740 C.2   200  HEM200      0.0000
      3  CHB       61.5380   -9.0810  -11.7620 C.2   200  HEM200      0.0000
      4  CHC       58.7890   -5.3180  -10.6410 C.2   200  HEM200      0.0000
      5  CHD       55.1980   -7.1920  -13.2680 C.2   200  HEM200      0.0000
      6  NA        59.6970   -9.5090  -13.3290 N.2   200  HEM200      0.0000
      7  C1A       59.3860  -10.5240  -14.2050 C.2   200  HEM200      0.0000
      8  C2A       60.4370  -11.5230  -14.1700 C.2   200  HEM200      0.0000
      9  C3A       61.3340  -11.0930  -13.2860 C.2   200  HEM200      0.0000
     10  C4A       60.8910   -9.8350  -12.7250 C.2   200  HEM200      0.0000
     11  CMA       62.6400  -11.7890  -12.8600 C.3   200  HEM200      0.0000
     12  CAA       60.5010  -12.8170  -15.0200 C.3   200  HEM200      0.0000
     13  CBA       61.4810  -12.7620  -16.2160 C.3   200  HEM200      0.0000
     14  CGA       61.4970  -13.9500  -17.1400 C.2   200  HEM200      0.0000
     15  O1A       60.3890  -14.3670  -17.5750 O.co2 200  HEM200      0.0000
     16  O2A       62.6300  -14.4370  -17.3960 O.co2 200  HEM200      0.0000
     17  NB        59.8910   -7.3190  -11.5190 N.ar  200  HEM200      0.0000
     18  C1B       61.0720   -7.9340  -11.1500 C.ar  200  HEM200      0.0000
     19  C2B       61.7220   -7.1690  -10.0990 C.ar  200  HEM200      0.0000
     20  C3B       60.9400   -6.1270   -9.8270 C.ar  200  HEM200      0.0000
     21  C4B       59.7950   -6.2320  -10.6820 C.ar  200  HEM200      0.0000
     22  CMB       63.0790   -7.5230   -9.4530 C.3   200  HEM200      0.0000
     23  CAB       61.0840   -4.9980   -8.7910 C.2   200  HEM200      0.0000
     24  CBB       61.9790   -5.1720   -7.8100 C.2   200  HEM200      0.0000
     25  NC        57.2690   -6.5790  -12.1130 N.2   200  HEM200      0.0000
     26  C1C       57.5770   -5.5800  -11.2140 C.2   200  HEM200      0.0000
     27  C2C       56.4180   -4.7620  -10.9560 C.2   200  HEM200      0.0000
     28  C3C       55.4200   -5.2720  -11.6680 C.2   200  HEM200      0.0000
     29  C4C       55.9290   -6.4120  -12.4010 C.2   200  HEM200      0.0000
     30  CMC       56.4640   -3.5720   -9.9770 C.3   200  HEM200      0.0000
     31  CAC       53.9690   -4.7700  -11.7660 C.2   200  HEM200      0.0000
     32  CBC       52.9890   -5.3460  -11.0770 C.2   200  HEM200      0.0000
     33  ND        57.0060   -8.6680  -13.9530 N.ar  200  HEM200      0.0000
     34  C1D       55.6860   -8.2640  -13.9810 C.ar  200  HEM200      0.0000
     35  C2D       54.9350   -9.1130  -14.8870 C.ar  200  HEM200      0.0000
     36  C3D       55.7840  -10.0210  -15.3620 C.ar  200  HEM200      0.0000
     37  C4D       57.0870   -9.7710  -14.7730 C.ar  200  HEM200      0.0000
     38  CMD       53.4280   -8.9720  -15.2170 C.3   200  HEM200      0.0000
     39  CAD       55.4790  -11.1520  -16.3730 C.2   200  HEM200      0.0000
     40  CBD       55.3570  -12.6420  -15.9620 C.2   200  HEM200      0.0000
     41  CGD       54.8820  -13.5860  -17.0420 C.2   200  HEM200      0.0000
     42  O1D       55.2320  -13.3290  -18.2240 O.co2 200  HEM200      0.0000
     43  O2D       54.1640  -14.5600  -16.7050 O.co2 200  HEM200      0.0000
@<TRIPOS>BOND
     1    42    41   ar
     2    15    14   ar
     3    16    14   ar
     4    14    13    1
     5    41    43   ar
     6    41    40    1
     7    39    40    2
     8    39    36    1
     9    13    12    1
    10    36    35   ar
    11    36    37   ar
    12    38    35    1
    13    12     8    1
    14     2    37    2
    15     2     7    1
    16    35    34   ar
    17    37    33   ar
    18     7     8    1
    19     7     6    2
    20     8     9    2
    21    34    33   ar
    22    34     5    2
    23    33     1    1
    24     6     1    1
    25     6    10    1
    26     9    11    1
    27     9    10    1
    28     5    29    1
    29     1    25    1
    30     1    17    1
    31    10     3    2
    32    29    25    2
    33    29    28    1
    34    25    26    1
    35    31    28    1
    36    31    32    2
    37     3    18    1
    38    28    27    2
    39    17    18   ar
    40    17    21   ar
    41    26    27    1
    42    26     4    2
    43    18    19   ar
    44    27    30    1
    45    21     4    1
    46    21    20   ar
    47    19    20   ar
    48    19    22    1
    49    20    23    1
    50    23    24    2
