@<TRIPOS>MOLECULE
1hab_CIN_D_1.pdb
 12 12 0 0 0
SMALL
GASTEIGER

@<TRIPOS>ATOM
      1  C1        33.7210   17.0890    2.3230 C.ar  300  CIN300      0.0001
      2  C2        33.4500   15.9820    3.1270 C.ar  300  CIN300      0.0001
      3  C3        33.6130   16.0520    4.4940 C.ar  300  CIN300      0.0033
      4  C4        34.0500   17.2300    5.0800 C.ar  300  CIN300      0.0422
      5  C5        34.3170   18.3230    4.2910 C.ar  300  CIN300      0.0033
      6  C6        34.1330   18.2660    2.9120 C.ar  300  CIN300      0.0001
      7  C1'       33.5780   17.0850    0.8140 C.2   300  CIN300      0.0034
      8  C2'       33.1870   16.0740    0.0890 C.2   300  CIN300      0.0454
      9  C3'       33.0860   16.1940   -1.4220 C.2   300  CIN300      0.2343
     10  C4'       34.1980   17.2340    6.5970 C.2   300  CIN300      0.2342
     11  O1'       32.1730   15.6620   -2.0530 O.2   300  CIN300     -0.2831
     12  O3'       34.6730   18.1740    7.2160 O.2   300  CIN300     -0.2831
@<TRIPOS>BOND
     1    11     9    2
     2     9     8    1
     3     8     7    2
     4     7     1    1
     5     1     6   ar
     6     1     2   ar
     7     6     5   ar
     8     2     3   ar
     9     5     4   ar
    10     3     4   ar
    11     4    10    1
    12    10    12    2
