@<TRIPOS>MOLECULE
1hac_HEM_A_1.pdb
 43 50 0 0 0
SMALL
GASTEIGER

@<TRIPOS>ATOM
      1 FE         58.4650   -8.0270  -12.6060 Fe    200  HEM200      0.0000
      2  CHA       58.2580  -10.5700  -14.8520 C.2   200  HEM200      0.0000
      3  CHB       61.6260   -8.9840  -11.7670 C.2   200  HEM200      0.0000
      4  CHC       58.7760   -5.3460  -10.4680 C.2   200  HEM200      0.0000
      5  CHD       55.2540   -7.1310  -13.2270 C.2   200  HEM200      0.0000
      6  NA        59.7150   -9.4720  -13.1930 N.2   200  HEM200      0.0000
      7  C1A       59.3980  -10.4620  -14.0960 C.2   200  HEM200      0.0000
      8  C2A       60.4580  -11.4280  -14.0860 C.2   200  HEM200      0.0000
      9  C3A       61.4170  -10.9960  -13.2620 C.2   200  HEM200      0.0000
     10  C4A       60.9780   -9.7340  -12.7130 C.2   200  HEM200      0.0000
     11  CMA       62.7560  -11.6530  -12.8810 C.3   200  HEM200      0.0000
     12  CAA       60.4840  -12.7000  -14.9360 C.3   200  HEM200      0.0000
     13  CBA       61.4670  -12.6560  -16.1160 C.3   200  HEM200      0.0000
     14  CGA       61.4650  -13.8810  -16.9810 C.2   200  HEM200      0.0000
     15  O1A       60.5210  -14.6970  -16.8130 O.co2 200  HEM200      0.0000
     16  O2A       62.4150  -13.9500  -17.8030 O.co2 200  HEM200      0.0000
     17  NB        59.9160   -7.3040  -11.4160 N.ar  200  HEM200      0.0000
     18  C1B       61.1130   -7.9070  -11.0830 C.ar  200  HEM200      0.0000
     19  C2B       61.7280   -7.2300   -9.9520 C.ar  200  HEM200      0.0000
     20  C3B       60.9260   -6.2390   -9.6020 C.ar  200  HEM200      0.0000
     21  C4B       59.8100   -6.2570  -10.5200 C.ar  200  HEM200      0.0000
     22  CMB       63.0830   -7.6540   -9.3380 C.3   200  HEM200      0.0000
     23  CAB       61.0570   -5.1940   -8.4870 C.2   200  HEM200      0.0000
     24  CBB       62.2600   -4.9900   -7.9510 C.2   200  HEM200      0.0000
     25  NC        57.2740   -6.4990  -12.0270 N.2   200  HEM200      0.0000
     26  C1C       57.5530   -5.5590  -11.0470 C.2   200  HEM200      0.0000
     27  C2C       56.3860   -4.7710  -10.7470 C.2   200  HEM200      0.0000
     28  C3C       55.4000   -5.2500  -11.5090 C.2   200  HEM200      0.0000
     29  C4C       55.9360   -6.3390  -12.3170 C.2   200  HEM200      0.0000
     30  CMC       56.4140   -3.6290   -9.7040 C.3   200  HEM200      0.0000
     31  CAC       53.9150   -4.8240  -11.5760 C.2   200  HEM200      0.0000
     32  CBC       53.0870   -5.2630  -10.6340 C.2   200  HEM200      0.0000
     33  ND        56.9760   -8.7240  -13.8330 N.ar  200  HEM200      0.0000
     34  C1D       55.6900   -8.2470  -13.9190 C.ar  200  HEM200      0.0000
     35  C2D       54.9450   -9.1160  -14.8210 C.ar  200  HEM200      0.0000
     36  C3D       55.7930  -10.0490  -15.2460 C.ar  200  HEM200      0.0000
     37  C4D       57.0950   -9.8220  -14.6820 C.ar  200  HEM200      0.0000
     38  CMD       53.4520   -9.0490  -15.2340 C.3   200  HEM200      0.0000
     39  CAD       55.4600  -11.1700  -16.2340 C.3   200  HEM200      0.0000
     40  CBD       55.4030  -12.6480  -15.7960 C.3   200  HEM200      0.0000
     41  CGD       54.7740  -13.4720  -16.8840 C.2   200  HEM200      0.0000
     42  O1D       55.1220  -13.1950  -18.0620 O.co2 200  HEM200      0.0000
     43  O2D       53.9310  -14.3320  -16.5320 O.co2 200  HEM200      0.0000
@<TRIPOS>BOND
     1    42    41   ar
     2    16    14   ar
     3    14    15   ar
     4    14    13    1
     5    41    43   ar
     6    41    40    1
     7    39    40    1
     8    39    36    1
     9    13    12    1
    10    36    35   ar
    11    36    37   ar
    12    38    35    1
    13    12     8    1
    14     2    37    2
    15     2     7    1
    16    35    34   ar
    17    37    33   ar
    18     7     8    1
    19     7     6    2
    20     8     9    2
    21    34    33   ar
    22    34     5    2
    23    33     1    1
    24     9    11    1
    25     9    10    1
    26     5    29    1
    27     6    10    1
    28     6     1    1
    29    10     3    2
    30     1    25    1
    31     1    17    1
    32    29    25    2
    33    29    28    1
    34    25    26    1
    35     3    18    1
    36    31    28    1
    37    31    32    2
    38    28    27    2
    39    17    18   ar
    40    17    21   ar
    41    18    19   ar
    42    26    27    1
    43    26     4    2
    44    27    30    1
    45    21     4    1
    46    21    20   ar
    47    19    20   ar
    48    19    22    1
    49    20    23    1
    50    23    24    2
