@<TRIPOS>MOLECULE
1hai_0G6_H_1.pdb
 30 31 0 0 0
SMALL
GASTEIGER

@<TRIPOS>ATOM
      1  N         16.1210  -16.6620   23.4970 N.3     1  0G61       -0.1227
      2  CA        17.5530  -16.2210   23.4350 C.3     1  0G61        0.1725
      3  C         17.5650  -14.8520   22.7820 C.2     1  0G61        0.2475
      4  O         16.6520  -14.0460   23.1010 O.2     1  0G61       -0.2730
      5  CB        17.9180  -16.2090   24.9780 C.3     1  0G61        0.0547
      6  CG        19.3230  -15.7000   25.1280 C.ar    1  0G61       -0.0202
      7  CD1       20.3800  -16.4540   24.5610 C.ar    1  0G61       -0.0042
      8  CD2       19.6000  -14.4960   25.7320 C.ar    1  0G61       -0.0042
      9  CE1       21.7130  -16.0290   24.7480 C.ar    1  0G61       -0.0003
     10  CE2       20.9300  -14.0270   25.7910 C.ar    1  0G61       -0.0003
     11  CZ        22.0040  -14.8280   25.3800 C.ar    1  0G61       -0.0000
     12  N1        18.5340  -14.4730   21.9990 N.am    1  0G61       -0.2492
     13  CA1       18.4800  -13.1050   21.4300 C.3     1  0G61        0.1619
     14  C1        17.1650  -12.9350   20.6770 C.2     1  0G61        0.2601
     15  O1        16.6210  -13.8480   19.9920 O.2     1  0G61       -0.2715
     16  CB1       19.7120  -13.0180   20.5320 C.3     1  0G61        0.0570
     17  CG1       20.5440  -14.2630   20.7370 C.2     1  0G61       -0.0077
     18  CD        19.6900  -15.2550   21.5600 C.2     1  0G61        0.0634
     19  N2        16.5730  -11.7330   20.7460 N.am    1  0G61       -0.2032
     20  CA2       15.4550  -11.2030   19.9730 C.3     1  0G61        0.1257
     21  C2        15.7210  -10.2810   18.8030 C.3     1  0G61        0.1718
     22  O2        14.5740  -10.3070   17.9150 O.3     1  0G61       -0.2213
     23  CB2       14.2520  -10.6990   20.7700 C.3     1  0G61        0.0280
     24  CG2       13.5930  -11.8160   21.5450 C.3     1  0G61        0.0488
     25  CD3       12.6600  -11.2880   22.5330 C.3     1  0G61        0.2205
     26  NE        12.0710  -12.2560   23.4270 N.pl3   1  0G61       -0.0865
     27  CZ1       11.1010  -12.0650   24.3200 C.cat   1  0G61        0.5346
     28  NH1       10.8470  -10.7940   24.7240 N.pl3   1  0G61        0.1354
     29  NH2       10.3280  -13.0330   24.8190 N.pl3   1  0G61        0.1354
     30  C3        17.0070  -10.4610   18.0600 C.3     1  0G61        0.0373
@<TRIPOS>BOND
     1    22    21    1
     2    30    21    1
     3    21    20    1
     4    20    19    1
     5    20    23    1
     6    15    14    2
     7    16    17    1
     8    16    13    1
     9    14    19   am
    10    14    13    1
    11    17    18    2
    12    23    24    1
    13    13    12    1
    14    24    25    1
    15    18    12    1
    16    12     3   am
    17    25    26    1
    18     3     4    2
    19     3     2    1
    20    26    27    2
    21     2     1    1
    22     2     5    1
    23    27    28    1
    24    27    29    1
    25     7     9   ar
    26     7     6   ar
    27     9    11   ar
    28     5     6    1
    29     6     8   ar
    30    11    10   ar
    31     8    10   ar
