@<TRIPOS>MOLECULE
1hak_K21_A_1.pdb
 30 33 0 0 0
SMALL
GASTEIGER

@<TRIPOS>ATOM
      1  C1        25.4060   13.5650  -10.6830 C.ar  901  K21901      0.1385
      2  C2        24.3900   14.5030  -10.7810 C.ar  901  K21901      0.0348
      3  C3        23.6630   14.9200   -9.6590 C.ar  901  K21901      0.0064
      4  C4        24.0150   14.4360   -8.3930 C.ar  901  K21901      0.0231
      5  C5        25.0520   13.5200   -8.2710 C.ar  901  K21901      0.0090
      6  C6        25.7180   13.0450   -9.4120 C.ar  901  K21901      0.0374
      7  C10       22.4660   15.8280   -9.8150 C.3   901  K21901      0.1207
      8  N11       21.2210   15.0210   -9.8080 N.am  901  K21901     -0.2745
      9  C12       20.6390   14.6940   -8.4690 C.3   901  K21901      0.1057
     10  C13       21.5590   14.0060   -7.4320 C.3   901  K21901      0.0836
     11  S14       23.0610   14.8940   -6.9300 S.3   901  K21901     -0.1121
     12  C21       20.5640   14.5780  -10.9720 C.2   901  K21901      0.2273
     13  C22       21.1690   14.9160  -12.3910 C.3   901  K21901      0.1026
     14  O23       19.5240   13.9160  -10.9320 O.2   901  K21901     -0.2748
     15  C24       20.4160   15.9960  -13.2130 C.3   901  K21901      0.0817
     16  N27       21.1520   17.2870  -13.2730 N.3   901  K21901     -0.2722
     17  C30       21.9630   17.6290  -14.4770 C.3   901  K21901      0.0721
     18  C31       23.1670   18.5050  -14.0700 C.3   901  K21901      0.0177
     19  C32       22.7210   19.7260  -13.2190 C.3   901  K21901      0.0071
     20  C33       21.7700   19.3110  -12.0760 C.3   901  K21901      0.0177
     21  C34       20.5950   18.4780  -12.6020 C.3   901  K21901      0.0721
     22  C43       22.0690   20.8460  -14.0610 C.3   901  K21901      0.0264
     23  C45       24.0180   22.3890  -14.2430 C.ar  901  K21901     -0.0043
     24  C48       24.9920   23.0480  -14.9870 C.ar  901  K21901     -0.0003
     25  C49       25.0020   22.9350  -16.3760 C.ar  901  K21901     -0.0000
     26  C50       24.0260   22.1670  -17.0180 C.ar  901  K21901     -0.0003
     27  C51       23.0550   21.5020  -16.2730 C.ar  901  K21901     -0.0043
     28  C52       23.0620   21.6040  -14.8850 C.ar  901  K21901     -0.0222
     29  O58       26.0400   13.2570  -11.8920 O.3   901  K21901     -0.4714
     30  C59       27.0210   12.2280  -11.8560 C.3   901  K21901      0.2525
@<TRIPOS>BOND
     1    26    25   ar
     2    26    27   ar
     3    25    24   ar
     4    27    28   ar
     5    24    23   ar
     6    28    23   ar
     7    28    22    1
     8    17    18    1
     9    17    16    1
    10    18    19    1
    11    22    19    1
    12    16    15    1
    13    16    21    1
    14    19    20    1
    15    15    13    1
    16    21    20    1
    17    13    12    1
    18    29    30    1
    19    29     1    1
    20    12    14    2
    21    12     8   am
    22     2     1   ar
    23     2     3   ar
    24     1     6   ar
    25     7     8    1
    26     7     3    1
    27     8     9    1
    28     3     4   ar
    29     6     5   ar
    30     9    10    1
    31     4     5   ar
    32     4    11    1
    33    10    11    1
