@<TRIPOS>MOLECULE
1hao_0G6_H_1.pdb
 30 31 0 0 0
SMALL
GASTEIGER

@<TRIPOS>ATOM
      1  N         31.7500   47.1390   26.7160 N.3   297  0G6297     -0.1227
      2  CA        31.1000   47.9540   27.7950 C.3   297  0G6297      0.1725
      3  C         29.8690   47.1980   28.2980 C.2   297  0G6297      0.2475
      4  O         29.9610   46.0530   28.7820 O.2   297  0G6297     -0.2730
      5  CB        32.0810   48.3170   28.8740 C.3   297  0G6297      0.0547
      6  CG        31.4420   48.9670   30.0750 C.ar  297  0G6297     -0.0202
      7  CD1       30.7840   48.2070   31.0390 C.ar  297  0G6297     -0.0042
      8  CD2       31.6170   50.3220   30.2520 C.ar  297  0G6297     -0.0042
      9  CE1       30.2060   48.8240   32.1420 C.ar  297  0G6297     -0.0003
     10  CE2       30.9970   50.9510   31.2940 C.ar  297  0G6297     -0.0003
     11  CZ        30.3280   50.2040   32.2770 C.ar  297  0G6297     -0.0000
     12  N1        28.7340   47.8680   28.2600 N.am  297  0G6297     -0.2492
     13  CA1       27.4870   47.1400   28.5120 C.3   297  0G6297      0.1619
     14  C1        27.5290   46.0450   27.4180 C.2   297  0G6297      0.2605
     15  O1        28.2110   46.2100   26.3710 O.2   297  0G6297     -0.2715
     16  CB1       26.3580   48.1190   28.2900 C.3   297  0G6297      0.0570
     17  CG1       26.9830   49.3910   27.8280 C.2   297  0G6297     -0.0077
     18  CD        28.4890   49.2170   27.7920 C.2   297  0G6297      0.0634
     19  N2        26.8560   44.9220   27.6550 N.am  297  0G6297     -0.1982
     20  CA2       26.8850   43.9020   26.6020 C.3   297  0G6297      0.1524
     21  C2        25.5750   43.6580   25.9060 C.2   297  0G6297      0.1707
     22  O2        25.7980   42.8310   24.9830 O.2   297  0G6297     -0.2943
     23  CB2       27.5600   42.5950   27.0130 C.3   297  0G6297      0.0329
     24  CG2       28.9050   42.5150   26.2800 C.3   297  0G6297      0.0491
     25  CD3       30.1180   42.2410   27.0780 C.3   297  0G6297      0.2205
     26  NE        31.0770   41.3420   26.4570 N.pl3 297  0G6297     -0.0865
     27  CZ1       31.5360   40.1890   26.9710 C.cat 297  0G6297      0.5346
     28  NH1       31.2100   39.6730   28.1840 N.pl3 297  0G6297      0.1354
     29  NH2       32.2930   39.4750   26.1040 N.pl3 297  0G6297      0.1354
     30  C3        24.4360   44.0870   26.1180 C.3   297  0G6297      0.0741
@<TRIPOS>BOND
     1    22    21    2
     2    21    30    1
     3    21    20    1
     4    29    27    1
     5    24    23    1
     6    24    25    1
     7    15    14    2
     8    26    27    2
     9    26    25    1
    10    20    23    1
    11    20    19    1
    12     1     2    1
    13    27    28    1
    14    14    19   am
    15    14    13    1
    16    18    17    2
    17    18    12    1
    18     2     3    1
    19     2     5    1
    20    17    16    1
    21    12     3   am
    22    12    13    1
    23    16    13    1
    24     3     4    2
    25     5     6    1
    26     6     8   ar
    27     6     7   ar
    28     8    10   ar
    29     7     9   ar
    30    10    11   ar
    31     9    11   ar
