@<TRIPOS>MOLECULE
1hap_0G6_H_1.pdb
 30 31 0 0 0
SMALL
GASTEIGER

@<TRIPOS>ATOM
      1  N         31.8000   47.2690   26.9310 N.3   297  0G6297     -0.1227
      2  CA        31.0730   48.0370   27.9610 C.3   297  0G6297      0.1725
      3  C         29.8400   47.1900   28.2490 C.2   297  0G6297      0.2475
      4  O         30.0180   45.9880   28.5590 O.2   297  0G6297     -0.2730
      5  CB        31.9100   48.2560   29.2040 C.3   297  0G6297      0.0547
      6  CG        31.2560   49.0190   30.3250 C.ar  297  0G6297     -0.0202
      7  CD1       31.2620   50.4220   30.3150 C.ar  297  0G6297     -0.0042
      8  CD2       30.7160   48.3170   31.4050 C.ar  297  0G6297     -0.0042
      9  CE1       30.6270   51.1000   31.3270 C.ar  297  0G6297     -0.0003
     10  CE2       30.0780   49.0140   32.4430 C.ar  297  0G6297     -0.0003
     11  CZ        30.0440   50.3940   32.4020 C.ar  297  0G6297     -0.0000
     12  N1        28.6880   47.8080   28.1860 N.am  297  0G6297     -0.2492
     13  CA1       27.4500   47.0320   28.3720 C.3   297  0G6297      0.1619
     14  C1        27.4430   45.9810   27.2610 C.2   297  0G6297      0.2605
     15  O1        28.1090   46.2080   26.2200 O.2   297  0G6297     -0.2715
     16  CB1       26.3210   48.0250   28.2470 C.3   297  0G6297      0.0570
     17  CG1       26.9330   49.3720   28.0410 C.2   297  0G6297     -0.0077
     18  CD        28.4310   49.2050   27.9200 C.2   297  0G6297      0.0634
     19  N2        26.7590   44.8760   27.5240 N.am  297  0G6297     -0.1982
     20  CA2       26.6660   43.8500   26.4540 C.3   297  0G6297      0.1524
     21  C2        25.2390   43.7110   25.9620 C.2   297  0G6297      0.1707
     22  O2        24.8950   42.5980   25.5250 O.2   297  0G6297     -0.2943
     23  CB2       27.3700   42.5570   26.8810 C.3   297  0G6297      0.0329
     24  CG2       28.7490   42.4260   26.2460 C.3   297  0G6297      0.0491
     25  CD3       29.9290   42.1800   27.0740 C.3   297  0G6297      0.2205
     26  NE        31.1050   41.6150   26.4190 N.pl3 297  0G6297     -0.0865
     27  CZ1       31.6320   40.4610   26.8760 C.cat 297  0G6297      0.5346
     28  NH1       31.1120   39.8540   27.9500 N.pl3 297  0G6297      0.1354
     29  NH2       32.6560   39.8430   26.3150 N.pl3 297  0G6297      0.1354
     30  C3        24.3640   44.6060   25.9890 C.3   297  0G6297      0.0741
@<TRIPOS>BOND
     1    22    21    2
     2    21    30    1
     3    21    20    1
     4    15    14    2
     5    24    23    1
     6    24    25    1
     7    29    27    1
     8    26    27    2
     9    26    25    1
    10    20    23    1
    11    20    19    1
    12    27    28    1
    13     1     2    1
    14    14    19   am
    15    14    13    1
    16    18    17    2
    17    18    12    1
    18     2     3    1
    19     2     5    1
    20    17    16    1
    21    12     3   am
    22    12    13    1
    23    16    13    1
    24     3     4    2
    25     5     6    1
    26     7     6   ar
    27     7     9   ar
    28     6     8   ar
    29     9    11   ar
    30     8    10   ar
    31    11    10   ar
