@<TRIPOS>MOLECULE
1hax_III_A_1.pdb
 31 31 0 0 0
SMALL
GASTEIGER

@<TRIPOS>ATOM
      1  N        -17.7840   17.0420   39.4680 N.3     4  VAL4       -0.1231
      2  CA       -17.1240   18.3800   39.4320 C.3     4  VAL4        0.1692
      3  C        -16.1020   18.4690   38.3030 C.2     4  VAL4        0.2592
      4  O        -15.6460   17.4530   37.7830 O.2     4  VAL4       -0.2718
      5  CB       -16.4010   18.6770   40.7590 C.3     4  VAL4        0.0266
      6  CG1      -17.3730   18.5540   41.9170 C.3     4  VAL4        0.0020
      7  CG2      -15.2300   17.7230   40.9430 C.3     4  VAL4        0.0020
      8  N        -15.7480   19.6950   37.9320 N.am    5  GLU5       -0.1966
      9  CA       -14.7720   19.9300   36.8730 C.3     5  GLU5        0.1718
     10  C        -13.5060   20.5710   37.4340 C.2     5  GLU5        0.2458
     11  O        -13.5280   21.7190   37.8750 O.2     5  GLU5       -0.2730
     12  CB       -15.3610   20.8500   35.7980 C.3     5  GLU5        0.0428
     13  CG       -16.4020   20.2000   34.9000 C.3     5  GLU5        0.1163
     14  CD       -15.7910   19.2480   33.8860 C.2     5  GLU5        0.3649
     15  OE1      -16.5590   18.6040   33.1390 O.co2   5  GLU5       -0.2457
     16  OE2      -14.5460   19.1460   33.8310 O.co2   5  GLU5       -0.2457
     17  N        -12.3860   19.8340   37.4370 N.am    6  PRO6       -0.2716
     18  CA       -11.1570   20.4330   37.9630 C.3     6  PRO6        0.1535
     19  C        -10.7630   21.5970   37.0570 C.2     6  PRO6        0.2595
     20  O        -10.8590   21.4930   35.8340 O.2     6  PRO6       -0.2716
     21  CB       -10.1500   19.2870   37.8880 C.3     6  PRO6        0.0310
     22  CG       -11.0140   18.0570   37.9930 C.3     6  PRO6        0.0237
     23  CD       -12.1800   18.4130   37.1090 C.3     6  PRO6        0.0939
     24  N        -10.3360   22.7070   37.6480 N.am    7  ILE7       -0.2031
     25  CA        -9.9300   23.8590   36.8590 C.3     7  ILE7        0.1282
     26  C         -8.5400   24.3530   37.1080 C.3     7  ILE7        0.2035
     27  O         -7.9030   25.0770   36.1500 O.3     7  ILE7       -0.2185
     28  CB       -10.8970   25.0550   36.9990 C.3     7  ILE7        0.0226
     29  CG1      -11.0080   25.4750   38.4670 C.3     7  ILE7        0.0018
     30  CG2      -12.2590   24.6910   36.4360 C.3     7  ILE7        0.0018
     31  CD1      -11.5020   26.8860   38.6460 C.3     7  ILE7        0.0001
@<TRIPOS>BOND
     1    15    14   ar
     2    16    14   ar
     3    14    13    1
     4    13    12    1
     5    12     9    1
     6    20    19    2
     7    27    26    1
     8    30    28    1
     9    25    28    1
    10    25    26    1
    11    25    24    1
    12     9    10    1
    13     9     8    1
    14    28    29    1
    15    19    24   am
    16    19    18    1
    17    23    17    1
    18    23    22    1
    19    10    17   am
    20    10    11    2
    21    17    18    1
    22     4     3    2
    23    21    18    1
    24    21    22    1
    25     8     3   am
    26     3     2    1
    27    29    31    1
    28     2     1    1
    29     2     5    1
    30     5     7    1
    31     5     6    1
