@<TRIPOS>MOLECULE
1haz_III_A_1.pdb
 32 32 0 0 0
SMALL
GASTEIGER

@<TRIPOS>ATOM
      1  N        -18.1850   17.2150   40.0210 N.3     4  VAL4       -0.1231
      2  CA       -16.7470   17.5470   40.2350 C.3     4  VAL4        0.1692
      3  C        -16.0230   17.7450   38.9040 C.2     4  VAL4        0.2592
      4  O        -16.1420   16.9250   37.9930 O.2     4  VAL4       -0.2718
      5  CB       -16.0390   16.4300   41.0290 C.3     4  VAL4        0.0266
      6  CG1      -16.7010   16.2620   42.3850 C.3     4  VAL4        0.0020
      7  CG2      -16.0930   15.1240   40.2540 C.3     4  VAL4        0.0020
      8  N        -15.2690   18.8350   38.7980 N.am    5  GLU5       -0.1966
      9  CA       -14.5350   19.1390   37.5730 C.3     5  GLU5        0.1718
     10  C        -13.2240   19.8650   37.8810 C.2     5  GLU5        0.2458
     11  O        -13.1950   21.0930   37.9690 O.2     5  GLU5       -0.2730
     12  CB       -15.3970   20.0110   36.6570 C.3     5  GLU5        0.0428
     13  CG       -14.7890   20.2870   35.2910 C.3     5  GLU5        0.1163
     14  CD       -14.9740   19.1350   34.3230 C.2     5  GLU5        0.3649
     15  OE1      -14.5220   18.0120   34.6310 O.co2   5  GLU5       -0.2457
     16  OE2      -15.5740   19.3560   33.2500 O.co2   5  GLU5       -0.2457
     17  N        -12.1240   19.1100   38.0490 N.am    6  PRO6       -0.2716
     18  CA       -10.8000   19.6730   38.3480 C.3     6  PRO6        0.1535
     19  C        -10.3340   20.6850   37.3000 C.2     6  PRO6        0.2596
     20  O        -10.0610   20.3250   36.1540 O.2     6  PRO6       -0.2715
     21  CB        -9.9040   18.4380   38.3900 C.3     6  PRO6        0.0310
     22  CG       -10.8310   17.3670   38.8760 C.3     6  PRO6        0.0237
     23  CD       -12.0750   17.6370   38.0600 C.3     6  PRO6        0.0939
     24  N        -10.2340   21.9470   37.7080 N.am    7  IL07       -0.1977
     25  CA        -9.8120   23.0200   36.8150 C.3     7  IL07        0.1869
     26  C         -8.4490   23.7420   36.6670 C.3     7  IL07        0.4452
     27  O         -8.5750   25.1100   36.5320 O.2     7  IL07       -0.2650
     28  CB       -10.8880   24.1260   36.7620 C.3     7  IL07        0.0279
     29  CG1      -11.0350   24.7790   38.1390 C.3     7  IL07        0.0020
     30  CG2      -12.2060   23.5350   36.3260 C.3     7  IL07        0.0020
     31  CD1      -11.7270   26.1190   38.1050 C.3     7  IL07        0.0001
     32  OXT       -7.6940   23.4760   35.5260 O.2     7  IL07       -0.2650
@<TRIPOS>BOND
     1    16    14   ar
     2    14    15   ar
     3    14    13    1
     4    13    12    1
     5    32    26    1
     6    20    19    2
     7    30    28    1
     8    27    26    1
     9    12     9    1
    10    26    25    1
    11    28    25    1
    12    28    29    1
    13    25    24    1
    14    19    24   am
    15    19    18    1
    16     9    10    1
    17     9     8    1
    18    10    11    2
    19    10    17   am
    20     4     3    2
    21    17    23    1
    22    17    18    1
    23    23    22    1
    24    31    29    1
    25    18    21    1
    26    21    22    1
    27     8     3   am
    28     3     2    1
    29     1     2    1
    30     2     5    1
    31     7     5    1
    32     5     6    1
