@<TRIPOS>MOLECULE
1hb1_OCV_A_1.pdb
 24 23 0 0 0
SMALL
GASTEIGER

@<TRIPOS>ATOM
      1  C1        17.2420   36.1090    5.5900 C.2   1332  OCV1332     0.3819
      2  C2        15.8110   36.3100    6.0950 C.3   1332  OCV1332     0.1943
      3  C3        15.2170   37.5540    5.4190 C.3   1332  OCV1332     0.0311
      4  C4        13.7520   37.7940    5.9400 C.3   1332  OCV1332     0.0117
      5  C7        13.3370   39.1020    5.1940 C.3   1332  OCV1332     0.0869
      6  C10       11.9110   39.3870    5.5800 C.2   1332  OCV1332     0.2418
      7  N11       10.9510   39.2210    4.6680 N.am  1332  OCV1332    -0.1948
      8  C12        9.5270   39.4990    4.8560 C.3   1332  OCV1332     0.2050
      9  C13        8.7870   38.1800    4.6880 C.2   1332  OCV1332     0.3383
     10  N14       15.8060   36.4730    7.6320 N.3   1332  OCV1332    -0.1208
     11  O15       11.5310   39.6930    6.7200 O.2   1332  OCV1332    -0.2733
     12  C16        9.0730   40.4970    3.7700 C.3   1332  OCV1332     0.1017
     13  S17        9.4690   39.8230    2.1000 S.3   1332  OCV1332    -0.0797
     14  O18        9.2480   37.0840    4.6320 O.2   1332  OCV1332    -0.2482
     15  O19       18.1790   36.2300    6.4520 O.co2 1332  OCV1332    -0.2441
     16  O20       17.4030   35.8760    4.3820 O.co2 1332  OCV1332    -0.2441
     17  C30        6.5800   37.1930    4.2540 C.3   1332  OCV1332     0.2704
     18  C31        5.4030   37.2500    5.2210 C.2   1332  OCV1332     0.4041
     19  C32        6.1330   37.1180    2.7590 C.3   1332  OCV1332     0.0515
     20  C33        7.3300   36.7400    1.8320 C.3   1332  OCV1332     0.0043
     21  C37        5.7500   38.5920    2.4550 C.3   1332  OCV1332     0.0043
     22  O42        5.3430   38.0860    6.1540 O.co2 1332  OCV1332    -0.2416
     23  O43        4.4770   36.3990    5.0640 O.co2 1332  OCV1332    -0.2416
     24  O29        7.4630   38.3470    4.5360 O.3   1332  OCV1332    -0.4393
@<TRIPOS>BOND
     1    20    19    1
     2    13    12    1
     3    21    19    1
     4    19    17    1
     5    12     8    1
     6    17    24    1
     7    17    18    1
     8    16     1   ar
     9    24     9    1
    10    14     9    2
    11     7     8    1
    12     7     6   am
    13     9     8    1
    14    23    18   ar
    15     5     6    1
    16     5     4    1
    17    18    22   ar
    18     3     4    1
    19     3     2    1
    20     6    11    2
    21     1     2    1
    22     1    15   ar
    23     2    10    1
