@<TRIPOS>MOLECULE
1hb2_SCV_A_1.pdb
 25 24 0 0 0
SMALL
GASTEIGER

@<TRIPOS>ATOM
      1  C1        16.9580   36.3820    5.7850 C.2   1332  SCV1332     0.3819
      2  C2        15.5010   36.4570    6.2030 C.3   1332  SCV1332     0.1943
      3  C3        14.9990   37.7140    5.4530 C.3   1332  SCV1332     0.0311
      4  C4        13.5630   38.0440    5.9350 C.3   1332  SCV1332     0.0117
      5  C7         9.2930   39.4240    4.9600 C.3   1332  SCV1332     0.2613
      6  C10        6.5330   36.8210    4.5000 C.3   1332  SCV1332     0.2705
      7  C12        6.3540   36.5600    2.9800 C.3   1332  SCV1332     0.0515
      8  C13        5.1160   37.4250    2.7470 C.3   1332  SCV1332     0.0043
      9  C5        13.0950   39.3320    5.2260 C.3   1332  SCV1332     0.0869
     10  N1        15.7490   36.6150    7.6760 N.3   1332  SCV1332    -0.1208
     11  O1        18.2010   36.5550    6.5000 O.co2 1332  SCV1332    -0.2441
     12  O2        17.3780   36.0910    4.4230 O.co2 1332  SCV1332    -0.2441
     13  O5         7.3360   38.0410    4.6390 O.3   1332  SCV1332    -0.4390
     14  C11        5.3590   36.8860    5.4950 C.2   1332  SCV1332     0.4041
     15  C14        7.4680   36.9190    1.9760 C.3   1332  SCV1332     0.0043
     16  O6         5.3600   37.8190    6.3420 O.co2 1332  SCV1332    -0.2416
     17  O7         4.3670   36.1660    5.2450 O.co2 1332  SCV1332    -0.2416
     18  C6        11.6630   39.6600    5.6370 C.2   1332  SCV1332     0.2422
     19  O3        11.3510   39.9330    6.8140 O.2   1332  SCV1332    -0.2733
     20  N2        10.7350   39.2590    4.7610 N.am  1332  SCV1332    -0.1873
     21  O4         9.3110   36.9870    4.9020 O.2   1332  SCV1332    -0.2477
     22  C8         8.6680   38.0400    4.7560 C.2   1332  SCV1332     0.3457
     23  C9         8.5950   40.1730    3.8800 C.2   1332  SCV1332     0.2394
     24  O8         7.5080   40.6480    4.1180 O.2   1332  SCV1332    -0.2812
     25  S          9.3820   40.1330    2.2730 S.3   1332  SCV1332    -0.0086
@<TRIPOS>BOND
     1    15     7    1
     2    25    23    1
     3     8     7    1
     4     7     6    1
     5    23    24    2
     6    23     5    1
     7    12     1   ar
     8     6    13    1
     9     6    14    1
    10    13    22    1
    11    22    21    2
    12    22     5    1
    13    20     5    1
    14    20    18   am
    15     9    18    1
    16     9     4    1
    17    17    14   ar
    18     3     4    1
    19     3     2    1
    20    14    16   ar
    21    18    19    2
    22     1     2    1
    23     1    11   ar
    24     2    10    1
