@<TRIPOS>MOLECULE
1hb3_SCV_A_1.pdb
 25 24 0 0 0
SMALL
GASTEIGER

@<TRIPOS>ATOM
      1  C1        16.9590   36.3960    5.7270 C.2   1332  SCV1332     0.3819
      2  C2        15.5070   36.4880    6.1460 C.3   1332  SCV1332     0.1943
      3  C3        15.0280   37.7650    5.4150 C.3   1332  SCV1332     0.0311
      4  C4        13.5600   38.0400    5.8450 C.3   1332  SCV1332     0.0117
      5  C7         9.2890   39.4130    4.9280 C.3   1332  SCV1332     0.2613
      6  C10        6.5160   36.8250    4.4360 C.3   1332  SCV1332     0.2705
      7  C12        6.3830   36.5260    2.9320 C.3   1332  SCV1332     0.0515
      8  C13        5.1090   37.3260    2.6490 C.3   1332  SCV1332     0.0043
      9  C5        13.0930   39.3470    5.1750 C.3   1332  SCV1332     0.0869
     10  N1        15.7340   36.6000    7.6100 N.3   1332  SCV1332    -0.1208
     11  O1        18.2120   36.5610    6.4190 O.co2 1332  SCV1332    -0.2441
     12  O2        17.3770   36.0970    4.3740 O.co2 1332  SCV1332    -0.2441
     13  O5         7.3350   38.0310    4.5810 O.3   1332  SCV1332    -0.4390
     14  C11        5.3160   36.9130    5.3860 C.2   1332  SCV1332     0.4041
     15  C14        7.4950   36.9420    1.9570 C.3   1332  SCV1332     0.0043
     16  O6         5.3620   37.7770    6.2960 O.co2 1332  SCV1332    -0.2416
     17  O7         4.3030   36.2450    5.0840 O.co2 1332  SCV1332    -0.2416
     18  C6        11.6630   39.6790    5.5960 C.2   1332  SCV1332     0.2422
     19  O3        11.3750   39.9450    6.7720 O.2   1332  SCV1332    -0.2733
     20  N2        10.7310   39.2700    4.7310 N.am  1332  SCV1332    -0.1873
     21  O4         9.3060   36.9690    4.8920 O.2   1332  SCV1332    -0.2477
     22  C8         8.6590   38.0240    4.7820 C.2   1332  SCV1332     0.3457
     23  C9         8.5610   40.1160    3.8420 C.2   1332  SCV1332     0.2394
     24  O8         7.4800   40.5950    4.0880 O.2   1332  SCV1332    -0.2812
     25  S          9.3690   40.1250    2.2590 S.3   1332  SCV1332    -0.0086
@<TRIPOS>BOND
     1    15     7    1
     2    25    23    1
     3     8     7    1
     4     7     6    1
     5    23    24    2
     6    23     5    1
     7    12     1   ar
     8     6    13    1
     9     6    14    1
    10    13    22    1
    11    20     5    1
    12    20    18   am
    13    22    21    2
    14    22     5    1
    15    17    14   ar
    16     9    18    1
    17     9     4    1
    18    14    16   ar
    19     3     4    1
    20     3     2    1
    21    18    19    2
    22     1     2    1
    23     1    11   ar
    24     2    10    1
