@<TRIPOS>MOLECULE
1hb4_SCV_A_1.pdb
 25 24 0 0 0
SMALL
GASTEIGER

@<TRIPOS>ATOM
      1  C1        16.8920   36.2700    5.7850 C.2   1332  SCV1332     0.3819
      2  C2        15.4490   36.3720    6.2130 C.3   1332  SCV1332     0.1943
      3  C3        14.9970   37.6570    5.4670 C.3   1332  SCV1332     0.0311
      4  C4        13.5390   37.9470    5.8980 C.3   1332  SCV1332     0.0117
      5  C7         9.2750   39.3140    4.9520 C.3   1332  SCV1332     0.2613
      6  C10        6.5210   36.7370    4.4730 C.3   1332  SCV1332     0.2705
      7  C12        6.3310   36.4770    2.9670 C.3   1332  SCV1332     0.0515
      8  C13        5.1240   37.3810    2.7370 C.3   1332  SCV1332     0.0043
      9  C5        13.0860   39.2550    5.2080 C.3   1332  SCV1332     0.0869
     10  N1        15.7200   36.5580    7.6620 N.3   1332  SCV1332    -0.1208
     11  O1        18.1450   36.4140    6.4790 O.co2 1332  SCV1332    -0.2441
     12  O2        17.3170   36.0010    4.4340 O.co2 1332  SCV1332    -0.2441
     13  O5         7.3360   37.9400    4.6300 O.3   1332  SCV1332    -0.4390
     14  C11        5.3470   36.7930    5.4500 C.2   1332  SCV1332     0.4041
     15  C14        7.4360   36.7740    1.9480 C.3   1332  SCV1332     0.0043
     16  O6         5.3670   37.6370    6.3760 O.co2 1332  SCV1332    -0.2416
     17  O7         4.4410   35.9560    5.2660 O.co2 1332  SCV1332    -0.2416
     18  C6        11.6440   39.5290    5.6230 C.2   1332  SCV1332     0.2422
     19  O3        11.3500   39.7810    6.8060 O.2   1332  SCV1332    -0.2733
     20  N2        10.7140   39.1420    4.7500 N.am  1332  SCV1332    -0.1873
     21  O4         9.3090   36.8850    4.9240 O.2   1332  SCV1332    -0.2477
     22  C8         8.6590   37.9300    4.7350 C.2   1332  SCV1332     0.3457
     23  C9         8.5620   40.0530    3.8870 C.2   1332  SCV1332     0.2394
     24  O8         7.4590   40.4860    4.0970 O.2   1332  SCV1332    -0.2812
     25  S          9.3710   40.0660    2.3030 S.3   1332  SCV1332    -0.0086
@<TRIPOS>BOND
     1    15     7    1
     2    25    23    1
     3     8     7    1
     4     7     6    1
     5    23    24    2
     6    23     5    1
     7    12     1   ar
     8     6    13    1
     9     6    14    1
    10    13    22    1
    11    22    21    2
    12    22     5    1
    13    20     5    1
    14    20    18   am
    15     9    18    1
    16     9     4    1
    17    17    14   ar
    18    14    16   ar
    19     3     4    1
    20     3     2    1
    21    18    19    2
    22     1     2    1
    23     1    11   ar
    24     2    10    1
