@<TRIPOS>MOLECULE
1hba_HEM_A_1.pdb
 43 50 0 0 0
SMALL
GASTEIGER

@<TRIPOS>ATOM
      1  CHA        5.8360    8.9150  -19.1060 C.2   142  HEM142      0.0000
      2  CHB        8.2260   10.8850  -15.3740 C.2   142  HEM142      0.0000
      3  CHC        6.4170    7.4500  -12.4580 C.2   142  HEM142      0.0000
      4  CHD        4.3490    5.2820  -16.2900 C.2   142  HEM142      0.0000
      5  C1A        6.6550    9.7330  -18.3440 C.2   142  HEM142      0.0000
      6  C2A        7.4260   10.8270  -18.8510 C.2   142  HEM142      0.0000
      7  C3A        8.0790   11.3810  -17.8300 C.2   142  HEM142      0.0000
      8  C4A        7.7310   10.6550  -16.6390 C.2   142  HEM142      0.0000
      9  CMA        9.0730   12.5670  -17.8350 C.3   142  HEM142      0.0000
     10  CAA        7.4130   11.1660  -20.3520 C.3   142  HEM142      0.0000
     11  CBA        6.3190   12.0940  -20.8700 C.3   142  HEM142      0.0000
     12  CGA        6.6800   12.6900  -22.2170 C.2   142  HEM142      0.0000
     13  O1A        6.9580   13.9120  -22.2090 O.co2 142  HEM142      0.0000
     14  O2A        6.6990   11.9030  -23.1940 O.co2 142  HEM142      0.0000
     15  C1B        7.9710   10.0960  -14.2680 C.ar  142  HEM142      0.0000
     16  C2B        8.5490   10.2880  -12.9510 C.ar  142  HEM142      0.0000
     17  C3B        8.0450    9.3570  -12.1400 C.ar  142  HEM142      0.0000
     18  C4B        7.1400    8.5410  -12.9240 C.ar  142  HEM142      0.0000
     19  CMB        9.5470   11.4270  -12.6550 C.3   142  HEM142      0.0000
     20  CAB        8.3040    9.0600  -10.6560 C.2   142  HEM142      0.0000
     21  CBB        8.7720    9.9400   -9.8170 C.2   142  HEM142      0.0000
     22  C1C        5.7690    6.5170  -13.2640 C.2   142  HEM142      0.0000
     23  C2C        5.3930    5.1770  -12.8700 C.2   142  HEM142      0.0000
     24  C3C        4.8510    4.5730  -13.9300 C.2   142  HEM142      0.0000
     25  C4C        4.8550    5.5220  -15.0200 C.2   142  HEM142      0.0000
     26  CMC        5.6250    4.6200  -11.4540 C.3   142  HEM142      0.0000
     27  CAC        4.2920    3.1370  -14.0180 C.2   142  HEM142      0.0000
     28  CBC        4.8920    2.1320  -13.3670 C.2   142  HEM142      0.0000
     29  C1D        4.5900    6.0720  -17.3910 C.ar  142  HEM142      0.0000
     30  C2D        4.2230    5.7470  -18.7580 C.ar  142  HEM142      0.0000
     31  C3D        4.6260    6.7560  -19.5270 C.ar  142  HEM142      0.0000
     32  C4D        5.2750    7.7220  -18.6840 C.ar  142  HEM142      0.0000
     33  CMD        3.5140    4.4420  -19.1770 C.3   142  HEM142      0.0000
     34  CAD        4.5310    6.9100  -21.0640 C.3   142  HEM142      0.0000
     35  CBD        5.6040    6.1250  -21.8280 C.3   142  HEM142      0.0000
     36  CGD        5.5640    6.2680  -23.3250 C.2   142  HEM142      0.0000
     37  O1D        6.6340    6.4660  -23.9390 O.co2 142  HEM142      0.0000
     38  O2D        4.4200    6.1850  -23.8460 O.co2 142  HEM142      0.0000
     39  NA         6.8520    9.6330  -16.9880 N.2   142  HEM142      0.0000
     40  NB         7.1080    9.0150  -14.2170 N.ar  142  HEM142      0.0000
     41  NC         5.4160    6.7140  -14.5890 N.2   142  HEM142      0.0000
     42  ND         5.2380    7.2960  -17.3750 N.ar  142  HEM142      0.0000
     43 FE          5.8290    8.3940  -15.7190 Fe    142  HEM142      0.0000
@<TRIPOS>BOND
     1    37    36   ar
     2    38    36   ar
     3    36    35    1
     4    14    12   ar
     5    12    13   ar
     6    12    11    1
     7    35    34    1
     8    34    31    1
     9    11    10    1
    10    10     6    1
    11    31    30   ar
    12    31    32   ar
    13    33    30    1
    14     1    32    2
    15     1     5    1
    16     6     5    1
    17     6     7    2
    18    30    29   ar
    19    32    42   ar
    20     5    39    2
    21     9     7    1
    22     7     8    1
    23    29    42   ar
    24    29     4    2
    25    42    43    1
    26    39     8    1
    27    39    43    1
    28     8     2    2
    29     4    25    1
    30    43    41    1
    31    43    40    1
    32     2    15    1
    33    25    41    2
    34    25    24    1
    35    41    22    1
    36    15    40   ar
    37    15    16   ar
    38    40    18   ar
    39    27    24    1
    40    27    28    2
    41    24    23    2
    42    22    23    1
    43    22     3    2
    44    16    19    1
    45    16    17   ar
    46    18     3    1
    47    18    17   ar
    48    23    26    1
    49    17    20    1
    50    20    21    2
