@<TRIPOS>MOLECULE
1hbb_HEM_A_1.pdb
 43 50 0 0 0
SMALL
GASTEIGER

@<TRIPOS>ATOM
      1  CHA        5.7990    8.8300  -19.2350 C.2   142  HEM142      0.0000
      2  CHB        8.0890   10.8620  -15.4890 C.2   142  HEM142      0.0000
      3  CHC        6.3060    7.4440  -12.5380 C.2   142  HEM142      0.0000
      4  CHD        4.3770    5.1710  -16.4020 C.2   142  HEM142      0.0000
      5  C1A        6.5930    9.6750  -18.4800 C.2   142  HEM142      0.0000
      6  C2A        7.3930   10.7550  -18.9800 C.2   142  HEM142      0.0000
      7  C3A        8.0150   11.3270  -17.9520 C.2   142  HEM142      0.0000
      8  C4A        7.6390   10.6100  -16.7680 C.2   142  HEM142      0.0000
      9  CMA        8.9970   12.5240  -17.9480 C.3   142  HEM142      0.0000
     10  CAA        7.4260   11.1170  -20.4780 C.3   142  HEM142      0.0000
     11  CBA        6.3070   12.0650  -20.9530 C.3   142  HEM142      0.0000
     12  CGA        6.6600   12.7180  -22.2760 C.2   142  HEM142      0.0000
     13  O1A        7.0960   13.8960  -22.1980 O.co2 142  HEM142      0.0000
     14  O2A        6.5260   12.0210  -23.3090 O.co2 142  HEM142      0.0000
     15  C1B        7.8570   10.0650  -14.3840 C.ar  142  HEM142      0.0000
     16  C2B        8.4660   10.2560  -13.0750 C.ar  142  HEM142      0.0000
     17  C3B        7.9700    9.3320  -12.2540 C.ar  142  HEM142      0.0000
     18  C4B        7.0300    8.5230  -13.0240 C.ar  142  HEM142      0.0000
     19  CMB        9.4820   11.3890  -12.8120 C.3   142  HEM142      0.0000
     20  CAB        8.2700    9.0200  -10.7900 C.2   142  HEM142      0.0000
     21  CBB        8.5670    9.8820   -9.8620 C.2   142  HEM142      0.0000
     22  C1C        5.6940    6.4860  -13.3550 C.2   142  HEM142      0.0000
     23  C2C        5.3250    5.1550  -12.9440 C.2   142  HEM142      0.0000
     24  C3C        4.8170    4.5290  -14.0090 C.2   142  HEM142      0.0000
     25  C4C        4.8370    5.4570  -15.1270 C.2   142  HEM142      0.0000
     26  CMC        5.5240    4.6240  -11.5180 C.3   142  HEM142      0.0000
     27  CAC        4.2820    3.0770  -14.1230 C.2   142  HEM142      0.0000
     28  CBC        4.9000    2.0970  -13.4500 C.2   142  HEM142      0.0000
     29  C1D        4.5980    5.9640  -17.5040 C.ar  142  HEM142      0.0000
     30  C2D        4.2220    5.6260  -18.8690 C.ar  142  HEM142      0.0000
     31  C3D        4.6100    6.6430  -19.6400 C.ar  142  HEM142      0.0000
     32  C4D        5.2580    7.6310  -18.8030 C.ar  142  HEM142      0.0000
     33  CMD        3.5150    4.3180  -19.2850 C.3   142  HEM142      0.0000
     34  CAD        4.4960    6.7990  -21.1780 C.3   142  HEM142      0.0000
     35  CBD        5.7000    6.1650  -21.9000 C.3   142  HEM142      0.0000
     36  CGD        5.5900    6.1580  -23.3990 C.2   142  HEM142      0.0000
     37  O1D        6.5820    6.5360  -24.0600 O.co2 142  HEM142      0.0000
     38  O2D        4.4910    5.7740  -23.8670 O.co2 142  HEM142      0.0000
     39  NA         6.7680    9.5880  -17.1200 N.2   142  HEM142      0.0000
     40  NB         6.9810    9.0050  -14.3170 N.ar  142  HEM142      0.0000
     41  NC         5.3790    6.6540  -14.6980 N.2   142  HEM142      0.0000
     42  ND         5.2380    7.2000  -17.4980 N.ar  142  HEM142      0.0000
     43 FE          5.7570    8.3380  -15.8450 Fe    142  HEM142      0.0000
@<TRIPOS>BOND
     1    37    36   ar
     2    38    36   ar
     3    36    35    1
     4    14    12   ar
     5    12    13   ar
     6    12    11    1
     7    35    34    1
     8    34    31    1
     9    11    10    1
    10    10     6    1
    11    31    30   ar
    12    31    32   ar
    13    33    30    1
    14     1    32    2
    15     1     5    1
    16     6     5    1
    17     6     7    2
    18    30    29   ar
    19    32    42   ar
    20     5    39    2
    21     7     9    1
    22     7     8    1
    23    29    42   ar
    24    29     4    2
    25    42    43    1
    26    39     8    1
    27    39    43    1
    28     8     2    2
    29     4    25    1
    30    43    41    1
    31    43    40    1
    32     2    15    1
    33    25    41    2
    34    25    24    1
    35    41    22    1
    36    15    40   ar
    37    15    16   ar
    38    40    18   ar
    39    27    24    1
    40    27    28    2
    41    24    23    2
    42    22    23    1
    43    22     3    2
    44    16    19    1
    45    16    17   ar
    46    18     3    1
    47    18    17   ar
    48    23    26    1
    49    17    20    1
    50    20    21    2
