@<TRIPOS>MOLECULE
1hbg_HEM_A_1.pdb
 43 50 0 0 0
SMALL
GASTEIGER

@<TRIPOS>ATOM
      1 FE          2.6250   10.6310    3.2450 Fe    148  HEM148      0.0000
      2  CHA        2.7040   10.1440   -0.1460 C.2   148  HEM148      0.0000
      3  CHB        0.5520    7.9860    3.5800 C.2   148  HEM148      0.0000
      4  CHC        2.6930   10.9720    6.6690 C.2   148  HEM148      0.0000
      5  CHD        4.5710   13.3840    2.9630 C.2   148  HEM148      0.0000
      6  NA         1.7800    9.3720    1.9980 N.2   148  HEM148      0.0000
      7  C1A        1.9500    9.3280    0.6350 C.2   148  HEM148      0.0000
      8  C2A        1.2390    8.1130    0.0800 C.2   148  HEM148      0.0000
      9  C3A        0.6730    7.5310    1.0940 C.2   148  HEM148      0.0000
     10  C4A        0.9850    8.2630    2.3090 C.2   148  HEM148      0.0000
     11  CMA       -0.1930    6.2430    1.1050 C.3   148  HEM148      0.0000
     12  CAA        1.3010    7.8780   -1.4030 C.3   148  HEM148      0.0000
     13  CBA        1.7040    6.7250   -2.2530 C.3   148  HEM148      0.0000
     14  CGA        0.9550    6.9250   -3.6030 C.2   148  HEM148      0.0000
     15  O1A       -0.0290    6.1910   -3.8770 O.co2 148  HEM148      0.0000
     16  O2A        1.2970    7.9140   -4.2890 O.co2 148  HEM148      0.0000
     17  NB         1.7330    9.6610    4.8290 N.ar  148  HEM148      0.0000
     18  C1B        0.9020    8.5630    4.7430 C.ar  148  HEM148      0.0000
     19  C2B        0.5970    8.1230    6.0800 C.ar  148  HEM148      0.0000
     20  C3B        1.1660    8.9380    6.9730 C.ar  148  HEM148      0.0000
     21  C4B        1.9320    9.9380    6.1360 C.ar  148  HEM148      0.0000
     22  CMB       -0.2830    6.8790    6.3400 C.3   148  HEM148      0.0000
     23  CAB        1.2080    8.9840    8.4620 C.3   148  HEM148      0.0000
     24  CBB        1.3070    7.8410    9.2380 C.3   148  HEM148      0.0000
     25  NC         3.4580   11.9730    4.5880 N.2   148  HEM148      0.0000
     26  C1C        3.4020   11.9230    5.9630 C.2   148  HEM148      0.0000
     27  C2C        4.2850   12.9310    6.4990 C.2   148  HEM148      0.0000
     28  C3C        4.7920   13.6080    5.4760 C.2   148  HEM148      0.0000
     29  C4C        4.2790   13.0120    4.2330 C.2   148  HEM148      0.0000
     30  CMC        4.4650   13.1750    8.0190 C.3   148  HEM148      0.0000
     31  CAC        5.7150   14.8110    5.4130 C.2   148  HEM148      0.0000
     32  CBC        6.2040   15.3720    6.4530 C.2   148  HEM148      0.0000
     33  ND         3.4830   11.4930    1.7830 N.ar  148  HEM148      0.0000
     34  C1D        4.2820   12.6930    1.8230 C.ar  148  HEM148      0.0000
     35  C2D        4.7790   12.9860    0.4830 C.ar  148  HEM148      0.0000
     36  C3D        4.3080   12.0950   -0.3580 C.ar  148  HEM148      0.0000
     37  C4D        3.4670   11.1900    0.4370 C.ar  148  HEM148      0.0000
     38  CMD        5.7500   14.1610    0.1930 C.3   148  HEM148      0.0000
     39  CAD        4.5150   11.9660   -1.8810 C.3   148  HEM148      0.0000
     40  CBD        3.3630   12.4380   -2.7360 C.3   148  HEM148      0.0000
     41  CGD        3.0680   13.8960   -2.6340 C.2   148  HEM148      0.0000
     42  O1D        1.8500   14.2680   -2.5260 O.co2 148  HEM148      0.0000
     43  O2D        4.0220   14.7280   -2.5470 O.co2 148  HEM148      0.0000
@<TRIPOS>BOND
     1    16    14   ar
     2    15    14   ar
     3    14    13    1
     4    40    41    1
     5    40    39    1
     6    41    43   ar
     7    41    42   ar
     8    13    12    1
     9    39    36    1
    10    12     8    1
    11    36    37   ar
    12    36    35   ar
    13     2    37    2
    14     2     7    1
    15     8     7    1
    16     8     9    2
    17    38    35    1
    18    37    33   ar
    19    35    34   ar
    20     7     6    2
    21     9    11    1
    22     9    10    1
    23    33    34   ar
    24    33     1    1
    25    34     5    2
    26     6    10    1
    27     6     1    1
    28    10     3    2
    29     5    29    1
    30     1    25    1
    31     1    17    1
    32     3    18    1
    33    29    25    2
    34    29    28    1
    35    25    26    1
    36    18    17   ar
    37    18    19   ar
    38    17    21   ar
    39    31    28    1
    40    31    32    2
    41    28    27    2
    42    26    27    1
    43    26     4    2
    44    19    22    1
    45    19    20   ar
    46    21     4    1
    47    21    20   ar
    48    27    30    1
    49    20    23    1
    50    23    24    1
