@<TRIPOS>MOLECULE
1hbh_HEM_A_1.pdb
 43 50 0 0 0
SMALL
GASTEIGER

@<TRIPOS>ATOM
      1  CHA        6.7690  -19.8900   11.8860 C.2   144  HEM144      0.0000
      2  CHB        9.0850  -15.6730   11.3340 C.2   144  HEM144      0.0000
      3  CHC        5.0900  -13.2340   12.5150 C.2   144  HEM144      0.0000
      4  CHD        2.8270  -17.4070   13.4290 C.2   144  HEM144      0.0000
      5  C1A        7.7190  -18.9460   11.6040 C.ar  144  HEM144      0.0000
      6  C2A        9.0730  -19.2610   11.1270 C.ar  144  HEM144      0.0000
      7  C3A        9.7180  -18.0940   10.9870 C.ar  144  HEM144      0.0000
      8  C4A        8.7950  -17.0200   11.3580 C.ar  144  HEM144      0.0000
      9  CMA       11.1490  -17.7870   10.4790 C.3   144  HEM144      0.0000
     10  CAA        9.5050  -20.6460   10.7380 C.3   144  HEM144      0.0000
     11  CBA       10.6640  -21.5030   11.0440 C.3   144  HEM144      0.0000
     12  CGA       10.5150  -22.9370   10.4670 C.2   144  HEM144      0.0000
     13  O1A       11.0450  -23.0750    9.3280 O.co2 144  HEM144      0.0000
     14  O2A        9.8620  -23.7290   11.2380 O.co2 144  HEM144      0.0000
     15  C1B        8.2270  -14.6350   11.6000 C.2   144  HEM144      0.0000
     16  C2B        8.5710  -13.2140   11.6190 C.2   144  HEM144      0.0000
     17  C3B        7.4520  -12.5410   11.9150 C.2   144  HEM144      0.0000
     18  C4B        6.4040  -13.5260   12.1700 C.2   144  HEM144      0.0000
     19  CMB        9.9430  -12.6600   11.2320 C.3   144  HEM144      0.0000
     20  CAB        7.2220  -11.0370   12.0250 C.2   144  HEM144      0.0000
     21  CBB        8.1040  -10.3240   12.7920 C.2   144  HEM144      0.0000
     22  C1C        4.1380  -14.1400   12.9300 C.ar  144  HEM144      0.0000
     23  C2C        2.8920  -13.8010   13.5800 C.ar  144  HEM144      0.0000
     24  C3C        2.2910  -14.9780   13.8680 C.ar  144  HEM144      0.0000
     25  C4C        3.1130  -16.0490   13.3730 C.ar  144  HEM144      0.0000
     26  CMC        2.4380  -12.3580   13.9000 C.3   144  HEM144      0.0000
     27  CAC        0.8930  -15.1500   14.5300 C.2   144  HEM144      0.0000
     28  CBC        0.6210  -15.0100   15.7990 C.2   144  HEM144      0.0000
     29  C1D        3.7200  -18.4240   13.0790 C.2   144  HEM144      0.0000
     30  C2D        3.4540  -19.8530   13.2050 C.2   144  HEM144      0.0000
     31  C3D        4.5490  -20.4990   12.7530 C.2   144  HEM144      0.0000
     32  C4D        5.5380  -19.5350   12.3770 C.2   144  HEM144      0.0000
     33  CMD        2.1080  -20.4290   13.6950 C.3   144  HEM144      0.0000
     34  CAD        4.8300  -22.0240   12.7620 C.3   144  HEM144      0.0000
     35  CBD        5.4410  -22.3430   14.1730 C.3   144  HEM144      0.0000
     36  CGD        5.3850  -23.7340   14.6820 C.2   144  HEM144      0.0000
     37  O1D        6.0550  -24.0940   15.7200 O.co2 144  HEM144      0.0000
     38  O2D        4.5920  -24.5140   14.1330 O.co2 144  HEM144      0.0000
     39  NA         7.5890  -17.5730   11.7750 N.ar  144  HEM144      0.0000
     40  NB         6.9040  -14.8080   11.9850 N.2   144  HEM144      0.0000
     41  NC         4.2520  -15.5180   12.7810 N.ar  144  HEM144      0.0000
     42  ND         5.0130  -18.2600   12.5890 N.2   144  HEM144      0.0000
     43 FE          5.8470  -16.5220   11.9240 Fe    144  HEM144      0.0000
@<TRIPOS>BOND
     1    13    12   ar
     2    12    11    1
     3    12    14   ar
     4     9     7    1
     5    10    11    1
     6    10     6    1
     7     7     6   ar
     8     7     8   ar
     9     6     5   ar
    10    19    16    1
    11     2     8    2
    12     2    15    1
    13     8    39   ar
    14    15    16    1
    15    15    40    2
    16     5    39   ar
    17     5     1    2
    18    16    17    2
    19    39    43    1
    20     1    32    1
    21    17    20    1
    22    17    18    1
    23    43    40    1
    24    43    42    1
    25    43    41    1
    26    40    18    1
    27    20    21    2
    28    18     3    2
    29    32    42    2
    30    32    31    1
    31     3    22    1
    32    42    29    1
    33    31    34    1
    34    31    30    2
    35    34    35    1
    36    41    22   ar
    37    41    25   ar
    38    22    23   ar
    39    29    30    1
    40    29     4    2
    41    30    33    1
    42    25     4    1
    43    25    24   ar
    44    23    24   ar
    45    23    26    1
    46    24    27    1
    47    38    36   ar
    48    35    36    1
    49    27    28    2
    50    36    37   ar
