@<TRIPOS>MOLECULE
1hbi_HEM_A_1.pdb
 43 50 0 0 0
SMALL
GASTEIGER

@<TRIPOS>ATOM
      1 FE         42.7660   -2.1150   20.2980 Fe    153  HEM153      0.0000
      2  CHA       41.8330   -0.7100   17.3720 C.2   153  HEM153      0.0000
      3  CHB       39.5770   -1.8660   21.4470 C.2   153  HEM153      0.0000
      4  CHC       43.7900   -3.2640   23.3850 C.2   153  HEM153      0.0000
      5  CHD       45.9710   -2.4370   19.1240 C.2   153  HEM153      0.0000
      6  NA        41.0330   -1.3810   19.5670 N.2   153  HEM153      0.0000
      7  C1A       40.8400   -0.8980   18.3040 C.2   153  HEM153      0.0000
      8  C2A       39.4430   -0.5000   18.1530 C.2   153  HEM153      0.0000
      9  C3A       38.8000   -0.8620   19.2710 C.2   153  HEM153      0.0000
     10  C4A       39.7900   -1.3920   20.1810 C.2   153  HEM153      0.0000
     11  CMA       37.3000   -0.6700   19.6100 C.3   153  HEM153      0.0000
     12  CAA       38.8680    0.1150   16.8360 C.3   153  HEM153      0.0000
     13  CBA       38.7410   -0.9960   15.7700 C.3   153  HEM153      0.0000
     14  CGA       38.6910   -0.4210   14.3630 C.2   153  HEM153      0.0000
     15  O1A       38.1240    0.6960   14.2260 O.co2 153  HEM153      0.0000
     16  O2A       39.2460   -1.1390   13.5090 O.co2 153  HEM153      0.0000
     17  NB        41.8970   -2.4700   22.0780 N.ar  153  HEM153      0.0000
     18  C1B       40.5140   -2.4220   22.2800 C.ar  153  HEM153      0.0000
     19  C2B       40.2510   -2.8400   23.6440 C.ar  153  HEM153      0.0000
     20  C3B       41.3920   -3.2620   24.1770 C.ar  153  HEM153      0.0000
     21  C4B       42.4470   -2.9910   23.2030 C.ar  153  HEM153      0.0000
     22  CMB       38.8010   -2.9310   24.2300 C.3   153  HEM153      0.0000
     23  CAB       41.6990   -3.8660   25.5490 C.2   153  HEM153      0.0000
     24  CBB       41.0820   -3.5340   26.6500 C.2   153  HEM153      0.0000
     25  NC        44.5090   -2.7600   21.0890 N.2   153  HEM153      0.0000
     26  C1C       44.7180   -3.1590   22.3960 C.2   153  HEM153      0.0000
     27  C2C       46.1560   -3.4410   22.5600 C.2   153  HEM153      0.0000
     28  C3C       46.7370   -3.2670   21.3440 C.2   153  HEM153      0.0000
     29  C4C       45.7300   -2.7720   20.4340 C.2   153  HEM153      0.0000
     30  CMC       46.7950   -3.9620   23.8670 C.3   153  HEM153      0.0000
     31  CAC       48.2480   -3.3400   20.9520 C.2   153  HEM153      0.0000
     32  CBC       49.0030   -4.2410   21.6410 C.2   153  HEM153      0.0000
     33  ND        43.7120   -1.6740   18.5830 N.ar  153  HEM153      0.0000
     34  C1D       45.0620   -1.8160   18.2920 C.ar  153  HEM153      0.0000
     35  C2D       45.3550   -1.1560   17.0190 C.ar  153  HEM153      0.0000
     36  C3D       44.2040   -0.7180   16.5190 C.ar  153  HEM153      0.0000
     37  C4D       43.1610   -0.9920   17.4960 C.ar  153  HEM153      0.0000
     38  CMD       46.7680   -1.0770   16.4100 C.3   153  HEM153      0.0000
     39  CAD       43.9000    0.1020   15.2490 C.3   153  HEM153      0.0000
     40  CBD       44.1430    1.6240   15.5040 C.3   153  HEM153      0.0000
     41  CGD       43.8830    2.4320   14.2230 C.2   153  HEM153      0.0000
     42  O1D       44.7490    2.3730   13.3240 O.co2 153  HEM153      0.0000
     43  O2D       42.7780    3.0180   14.2450 O.co2 153  HEM153      0.0000
@<TRIPOS>BOND
     1    42    41   ar
     2    16    14   ar
     3    41    43   ar
     4    41    40    1
     5    15    14   ar
     6    14    13    1
     7    39    40    1
     8    39    36    1
     9    13    12    1
    10    38    35    1
    11    36    35   ar
    12    36    37   ar
    13    12     8    1
    14    35    34   ar
    15     2    37    2
    16     2     7    1
    17    37    33   ar
    18     8     7    1
    19     8     9    2
    20    34    33   ar
    21    34     5    2
    22     7     6    2
    23    33     1    1
    24     5    29    1
    25     9    11    1
    26     9    10    1
    27     6    10    1
    28     6     1    1
    29    10     3    2
    30     1    25    1
    31     1    17    1
    32    29    25    2
    33    29    28    1
    34    31    28    1
    35    31    32    2
    36    25    26    1
    37    28    27    2
    38     3    18    1
    39    17    18   ar
    40    17    21   ar
    41    18    19   ar
    42    26    27    1
    43    26     4    2
    44    27    30    1
    45    21     4    1
    46    21    20   ar
    47    19    20   ar
    48    19    22    1
    49    20    23    1
    50    23    24    2
