@<TRIPOS>MOLECULE
1hbj_FBQ_A_1.pdb
 28 30 0 0 0
SMALL
GASTEIGER

@<TRIPOS>ATOM
      1  N1         4.9330   69.4100   63.4170 N.2   1539  FBQ1539    -0.4100
      2  C2         5.3280   69.9580   64.5840 C.ar  1539  FBQ1539     0.1337
      3  C3         4.4250   69.9980   65.6890 C.ar  1539  FBQ1539     0.0700
      4  C4         3.1350   69.4570   65.5320 C.2   1539  FBQ1539     0.0782
      5  C5         2.7320   68.8660   64.2810 C.3   1539  FBQ1539     0.0982
      6  C6         3.6800   68.8600   63.2060 C.2   1539  FBQ1539     0.0930
      7  C7         4.8920   70.6090   66.9360 C.ar  1539  FBQ1539     0.1435
      8  C8         6.2060   71.1250   67.0490 C.ar  1539  FBQ1539     0.0298
      9  C9         7.0570   71.0510   65.9350 C.ar  1539  FBQ1539     0.0049
     10  C10        6.6170   70.4760   64.6880 C.ar  1539  FBQ1539     0.0322
     11  N11        2.2140   69.4590   66.5740 N.pl3 1539  FBQ1539    -0.1321
     12  C12        1.3290   68.2540   64.1250 C.3   1539  FBQ1539     0.0703
     13  S13        1.4470   66.4840   64.7830 S.3   1539  FBQ1539    -0.1346
     14  C14        3.0710   66.1070   65.5030 C.3   1539  FBQ1539     0.0837
     15  C15        4.2210   65.8750   64.5460 C.ar  1539  FBQ1539    -0.0116
     16  C16        4.1200   65.0720   63.4070 C.ar  1539  FBQ1539    -0.0050
     17  C17        5.2690   64.8680   62.5830 C.ar  1539  FBQ1539     0.0159
     18  C18        6.5410   65.5250   62.8850 C.ar  1539  FBQ1539    -0.0016
     19  C19        6.6540   66.3460   64.0270 C.ar  1539  FBQ1539    -0.0005
     20  C20        5.4830   66.5150   64.8720 C.ar  1539  FBQ1539    -0.0034
     21  C21        5.2570   63.9710   61.4060 C.3   1539  FBQ1539     0.2683
     22  C22        5.5250   62.5370   61.9300 C.3   1539  FBQ1539     0.4293
     23  F23        5.4350   61.5320   60.9750 F     1539  FBQ1539    -0.1670
     24  F24        4.5530   62.2900   62.9300 F     1539  FBQ1539    -0.1670
     25  F25        6.7420   62.5010   62.6650 F     1539  FBQ1539    -0.1670
     26  O26        4.0880   64.0870   60.5330 O.3   1539  FBQ1539    -0.2091
     27  F27        4.0820   70.7130   68.0410 F     1539  FBQ1539    -0.2041
     28  C28        3.3620   68.2520   61.8250 C.3   1539  FBQ1539     0.0619
@<TRIPOS>BOND
     1    26    21    1
     2    23    22    1
     3    21    22    1
     4    21    17    1
     5    28     6    1
     6    22    25    1
     7    22    24    1
     8    17    18   ar
     9    17    16   ar
    10    18    19   ar
    11     6     1    2
    12     6     5    1
    13    16    15   ar
    14     1     2    2
    15    19    20   ar
    16    12     5    1
    17    12    13    1
    18     5     4    1
    19    15    20   ar
    20    15    14    1
    21     2    10   ar
    22     2     3   ar
    23    10     9   ar
    24    13    14    1
    25     4     3    2
    26     4    11    1
    27     3     7   ar
    28     9     8   ar
    29     7     8   ar
    30     7    27    1
