@<TRIPOS>MOLECULE
1hbk_COA_A_1.pdb
 31 33 0 0 0
SMALL
GASTEIGER

@<TRIPOS>ATOM
      1  N1A       -0.0490   20.6030   20.2360 N.2   1089  COA1089     0.0021
      2  C2A       -1.3380   20.4760   20.5670 C.3   1089  COA1089     0.5254
      3  N3A       -2.3850   21.2060   20.1650 N.2   1089  COA1089    -0.0055
      4  C4A       -1.9950   22.1740   19.3090 C.2   1089  COA1089     0.3518
      5  C5A       -0.7090   22.4270   18.8790 C.2   1089  COA1089     0.2526
      6  C6A        0.3060   21.5880   19.3770 C.2   1089  COA1089     0.4393
      7  N6A        1.5980   21.7160   19.0370 N.pl3 1089  COA1089     0.2180
      8  N7A       -0.6910   23.5000   17.9940 N.2   1089  COA1089    -0.2095
      9  C8A       -1.9480   23.8640   17.9100 C.3   1089  COA1089     0.3377
     10  N9A       -2.7910   23.0970   18.6650 N.pl3 1089  COA1089    -0.1439
     11  C1B       -4.2370   23.1510   18.7940 C.3   1089  COA1089     0.3185
     12  C2B       -5.0010   24.4270   18.4090 C.3   1089  COA1089     0.2543
     13  O2B       -5.1170   25.2830   19.5240 O.3   1089  COA1089    -0.2131
     14  C3B       -6.3510   23.8660   17.9000 C.3   1089  COA1089     0.1928
     15  O3B       -7.2220   23.9050   19.0330 O.3   1089  COA1089    -0.2673
     16  P3B       -8.6840   24.5510   18.9670 P.3   1089  COA1089     0.5327
     17  O7A       -9.2560   24.1770   20.2760 O.3   1089  COA1089    -0.1145
     18  O8A       -9.3530   24.1280   17.7220 O.2   1089  COA1089    -0.2224
     19  O9A       -8.4330   26.1180   19.0050 O.3   1089  COA1089    -0.1145
     20  C4B       -6.1160   22.3690   17.7110 C.3   1089  COA1089     0.1795
     21  O4B       -4.7580   22.0850   18.0530 O.3   1089  COA1089    -0.3136
     22  C5B       -6.4080   21.8200   16.3320 C.3   1089  COA1089     0.1812
     23  O5B       -7.7890   21.9560   16.0160 O.3   1089  COA1089    -0.3111
     24  P1A       -8.2620   22.1500   14.5070 P.3   1089  COA1089     0.2231
     25  O1A       -9.5380   21.4240   14.3110 O.3   1089  COA1089    -0.4370
     26  O2A       -8.2140   23.5990   14.2290 O.2   1089  COA1089    -0.5169
     27  O3A       -7.1650   21.4380   13.6070 O.3   1089  COA1089    -0.2261
     28  P2A       -7.4470   19.9990   13.0090 P.3   1089  COA1089     0.5373
     29  O4A       -8.2750   19.3280   14.0380 O.3   1089  COA1089    -0.1143
     30  O5A       -6.1560   19.3850   12.5940 O.3   1089  COA1089    -0.1143
     31  O6A       -8.3280   20.2300   11.7020 O.2   1089  COA1089    -0.2221
@<TRIPOS>BOND
     1    31    28    2
     2    30    28    1
     3    28    27    1
     4    28    29    1
     5    27    24    1
     6    26    24    2
     7    25    24    1
     8    24    23    1
     9    23    22    1
    10    22    20    1
    11    20    14    1
    12    20    21    1
    13    18    16    2
    14    14    12    1
    15    14    15    1
    16     9     8    1
    17     9    10    1
    18     8     5    2
    19    21    11    1
    20    12    11    1
    21    12    13    1
    22    10    11    1
    23    10     4    1
    24     5     4    1
    25     5     6    1
    26    16    19    1
    27    16    15    1
    28    16    17    1
    29     7     6    1
    30     4     3    2
    31     6     1    2
    32     3     2    1
    33     1     2    1
