@<TRIPOS>MOLECULE
1hbm_SHT_A_1.pdb
 28 27 0 0 0
SMALL
GASTEIGER

@<TRIPOS>ATOM
      1  S1        26.2170   29.8800  -11.7210 S.3   1551  SHT1551    -0.0760
      2  OS3       28.7250   30.4520   -8.0320 O.3   1551  SHT1551    -0.3075
      3  SG2       27.5750   31.4420   -8.0000 S.3   1551  SHT1551    -0.1951
      4  OS1       28.0010   32.9110   -8.1690 O.3   1551  SHT1551    -0.3075
      5  OS2       26.7090   31.3800   -6.7180 O.3   1551  SHT1551    -0.3075
      6  CD        26.4050   31.1130   -9.3290 C.3   1551  SHT1551     0.1177
      7  CC        27.0580   31.0670  -10.6850 C.3   1551  SHT1551     0.0904
      8  SK        24.5030   30.8190  -12.6120 S.3   1551  SHT1551    -0.0549
      9  CK6       25.3580   31.4900  -13.9430 C.2   1551  SHT1551     0.0373
     10  CK5       25.4870   33.0050  -14.1550 C.2   1551  SHT1551    -0.0183
     11  CK4       26.3810   33.4710  -15.3650 C.3   1551  SHT1551     0.0313
     12  CK3       25.6810   33.0420  -16.6920 C.3   1551  SHT1551     0.0309
     13  CK2       24.4650   33.9150  -16.9800 C.2   1551  SHT1551    -0.0211
     14  CK1       24.5370   35.3950  -17.0560 C.2   1551  SHT1551     0.0549
     15  CK        23.4400   36.1260  -17.7640 C.2   1551  SHT1551     0.2651
     16  OK        22.2520   35.5430  -17.8210 O.2   1551  SHT1551    -0.2684
     17  N         23.6200   37.3910  -18.1380 N.am  1551  SHT1551    -0.1893
     18  CA        22.6700   38.1240  -18.9440 C.3   1551  SHT1551     0.2254
     19  C         23.4190   38.6960  -20.1280 C.2   1551  SHT1551     0.3867
     20  OXT       24.6580   39.1090  -19.9940 O.co2 1551  SHT1551    -0.2437
     21  O         22.7320   38.9480  -21.2210 O.co2 1551  SHT1551    -0.2437
     22  CB        21.8900   39.2110  -18.2220 C.3   1551  SHT1551     0.1572
     23  CG2       21.1770   38.6400  -16.9600 C.3   1551  SHT1551     0.0351
     24  O3'       22.7340   40.2960  -17.8650 O.3   1551  SHT1551    -0.2704
     25  P         22.3880   41.8430  -17.9370 P.3   1551  SHT1551     0.5326
     26  O1P       21.7150   42.0940  -19.3420 O.2   1551  SHT1551    -0.2224
     27  O2P       21.3110   42.0560  -16.7950 O.3   1551  SHT1551    -0.1145
     28  O8P       23.7590   42.5840  -17.6760 O.3   1551  SHT1551    -0.1145
@<TRIPOS>BOND
     1    21    19   ar
     2    19    20   ar
     3    19    18    1
     4    26    25    2
     5    18    22    1
     6    18    17    1
     7    22    24    1
     8    22    23    1
     9    17    15   am
    10    25    24    1
    11    25    28    1
    12    25    27    1
    13    16    15    2
    14    15    14    1
    15    14    13    2
    16    13    12    1
    17    12    11    1
    18    11    10    1
    19    10     9    2
    20     9     8    1
    21     8     1    1
    22     1     7    1
    23     7     6    1
    24     6     3    1
    25     4     3    1
    26     2     3    1
    27     3     5    1
