@<TRIPOS>MOLECULE
1hbn_TP7_A_1.pdb
 21 20 0 0 0
SMALL
GASTEIGER

@<TRIPOS>ATOM
      1  N         23.5130   37.2560  -18.1250 N.am  1551  TP71551    -0.1930
      2  P         22.2670   41.6620  -17.9060 P.3   1551  TP71551     0.5326
      3  O1P       21.6980   41.9010  -19.2570 O.2   1551  TP71551    -0.2224
      4  O2P       21.3070   41.8830  -16.7990 O.3   1551  TP71551    -0.1145
      5  O3P       23.5920   42.3430  -17.6690 O.3   1551  TP71551    -0.1145
      6  O4P       22.6810   40.1020  -17.8500 O.3   1551  TP71551    -0.2704
      7  CB        21.8090   39.0400  -18.2170 C.3   1551  TP71551     0.1572
      8  C         23.3460   38.6350  -20.1410 C.2   1551  TP71551     0.3867
      9  O         22.7330   38.7910  -21.2030 O.co2 1551  TP71551    -0.2437
     10  OXT       24.5970   38.9160  -19.9640 O.co2 1551  TP71551    -0.2437
     11  CA        22.5660   37.9600  -18.9540 C.3   1551  TP71551     0.2251
     12  CG        21.1180   38.5230  -16.9710 C.3   1551  TP71551     0.0351
     13  O1        22.1860   35.4560  -17.8500 O.2   1551  TP71551    -0.2733
     14  C1        23.3210   35.9530  -17.6810 C.2   1551  TP71551     0.2419
     15  C2        24.4330   35.3150  -17.0580 C.3   1551  TP71551     0.0868
     16  C3        24.3660   33.7730  -17.1020 C.3   1551  TP71551     0.0096
     17  C4        25.6860   33.0740  -16.7480 C.3   1551  TP71551     0.0005
     18  C5        26.1920   33.4390  -15.3420 C.3   1551  TP71551     0.0009
     19  C6        25.2910   32.9860  -14.1970 C.3   1551  TP71551     0.0125
     20  C7        25.1150   31.5050  -14.1710 C.3   1551  TP71551     0.0687
     21  S7        24.0840   30.8910  -12.8160 S.3   1551  TP71551    -0.0821
@<TRIPOS>BOND
     1     9     8   ar
     2     8    10   ar
     3     8    11    1
     4     3     2    2
     5    11     7    1
     6    11     1    1
     7     7     6    1
     8     7    12    1
     9     1    14   am
    10     2     6    1
    11     2     5    1
    12     2     4    1
    13    13    14    2
    14    14    15    1
    15    16    15    1
    16    16    17    1
    17    17    18    1
    18    18    19    1
    19    19    20    1
    20    20    21    1
