@<TRIPOS>MOLECULE
1hbo_TP7_A_1.pdb
 21 20 0 0 0
SMALL
GASTEIGER

@<TRIPOS>ATOM
      1  N         23.5930   37.4270  -18.0500 N.am  1551  TP71551    -0.1930
      2  P         22.2650   41.6910  -17.8280 P.3   1551  TP71551     0.5326
      3  O1P       21.6960   41.9430  -19.1550 O.2   1551  TP71551    -0.2224
      4  O2P       21.2790   41.9200  -16.7700 O.3   1551  TP71551    -0.1145
      5  O3P       23.5140   42.4520  -17.6050 O.3   1551  TP71551    -0.1145
      6  O4P       22.6890   40.1100  -17.7480 O.3   1551  TP71551    -0.2704
      7  CB        21.8590   39.0730  -18.0990 C.3   1551  TP71551     0.1572
      8  C         23.4030   38.8300  -20.0470 C.2   1551  TP71551     0.3867
      9  O         24.6700   39.0020  -19.9290 O.co2 1551  TP71551    -0.2437
     10  OXT       22.8210   38.7900  -21.1750 O.co2 1551  TP71551    -0.2437
     11  CA        22.6460   38.0890  -18.8570 C.3   1551  TP71551     0.2251
     12  CG        21.3360   38.4560  -16.8150 C.3   1551  TP71551     0.0351
     13  O1        22.2250   35.6320  -17.9090 O.2   1551  TP71551    -0.2733
     14  C1        23.3350   36.1410  -17.5560 C.2   1551  TP71551     0.2419
     15  C2        24.4750   35.5010  -17.0490 C.3   1551  TP71551     0.0868
     16  C3        24.4360   33.9750  -17.1080 C.3   1551  TP71551     0.0096
     17  C4        25.5640   33.0080  -16.7350 C.3   1551  TP71551     0.0005
     18  C5        26.2840   33.4570  -15.4460 C.3   1551  TP71551     0.0009
     19  C6        25.3190   33.2700  -14.2470 C.3   1551  TP71551     0.0125
     20  C7        25.3880   31.8250  -13.9030 C.3   1551  TP71551     0.0687
     21  S7        24.1420   31.0290  -12.9280 S.3   1551  TP71551    -0.0821
@<TRIPOS>BOND
     1    10     8   ar
     2     8     9   ar
     3     8    11    1
     4     3     2    2
     5    11     7    1
     6    11     1    1
     7     7     6    1
     8     7    12    1
     9     1    14   am
    10    13    14    2
    11     2     6    1
    12     2     5    1
    13     2     4    1
    14    14    15    1
    15    16    15    1
    16    16    17    1
    17    17    18    1
    18    18    19    1
    19    19    20    1
    20    20    21    1
