@<TRIPOS>MOLECULE
1hbp_RTL_A_1.pdb
 21 21 0 0 0
SMALL
GASTEIGER

@<TRIPOS>ATOM
      1  C1        29.8770   21.4390   45.3070 C.3   184  RTL184      0.0000
      2  C2        29.3550   21.4850   43.8670 C.3   184  RTL184      0.0000
      3  C3        30.0660   20.6000   42.8500 C.3   184  RTL184      0.0000
      4  C4        31.1920   19.7670   43.4450 C.3   184  RTL184      0.0000
      5  C5        31.0130   19.3810   44.9170 C.3   184  RTL184      0.0000
      6  C6        30.2570   20.0630   45.8380 C.3   184  RTL184      0.0000
      7  C7        30.5160   19.7120   47.2560 C.3   184  RTL184      0.0000
      8  C8        31.7670   19.3340   47.7030 C.3   184  RTL184      0.0000
      9  C9        31.8600   19.1410   49.1480 C.3   184  RTL184      0.0000
     10  C10       33.1740   19.2650   49.4820 C.3   184  RTL184      0.0000
     11  C11       33.3400   19.0230   50.9170 C.3   184  RTL184      0.0000
     12  C12       34.6530   19.1830   51.2550 C.3   184  RTL184      0.0001
     13  C13       35.0150   18.5090   52.5000 C.3   184  RTL184      0.0026
     14  C14       36.3150   18.7920   52.7860 C.3   184  RTL184      0.0355
     15  C15       36.6870   18.1570   54.0370 C.3   184  RTL184      0.1821
     16  O1        37.9420   18.5590   54.3660 O.3   184  RTL184     -0.2204
     17  C16       28.4490   21.4310   45.8520 C.3   184  RTL184      0.0000
     18  C17       30.6360   22.7050   45.6890 C.3   184  RTL184      0.0000
     19  C18       31.6250   18.0130   45.1280 C.3   184  RTL184      0.0000
     20  C19       30.4840   18.8990   49.7620 C.3   184  RTL184      0.0000
     21  C20       34.1870   18.9420   53.7160 C.3   184  RTL184      0.0001
@<TRIPOS>BOND
     1     3     4    1
     2     3     2    1
     3     4     5    1
     4     2     1    1
     5     5    19    1
     6     5     6    1
     7     1    18    1
     8     1     6    1
     9     1    17    1
    10     6     7    1
    11     7     8    1
    12     8     9    1
    13     9    10    1
    14     9    20    1
    15    10    11    1
    16    11    12    1
    17    12    13    1
    18    13    14    1
    19    13    21    1
    20    14    15    1
    21    15    16    1
