@<TRIPOS>MOLECULE
1hbr_HEM_A_1.pdb
 43 50 0 0 0
SMALL
GASTEIGER

@<TRIPOS>ATOM
      1 FE         12.7290   -3.5920   -0.4430 Fe    142  HEM142      0.0000
      2  CHA       12.1250   -5.6570   -3.0390 C.2   142  HEM142      0.0000
      3  CHB       10.2250   -1.5120   -1.5220 C.2   142  HEM142      0.0000
      4  CHC       13.2500   -1.5440    2.1870 C.2   142  HEM142      0.0000
      5  CHD       15.5460   -5.3050    0.2900 C.2   142  HEM142      0.0000
      6  NA        11.5800   -3.4890   -2.0370 N.ar  142  HEM142      0.0000
      7  C1A       11.4050   -4.4740   -3.0030 C.ar  142  HEM142      0.0000
      8  C2A       10.3760   -4.1290   -3.9480 C.ar  142  HEM142      0.0000
      9  C3A        9.8460   -2.9680   -3.5180 C.ar  142  HEM142      0.0000
     10  C4A       10.5950   -2.5660   -2.3450 C.ar  142  HEM142      0.0000
     11  CMA        8.6580   -2.2260   -4.1180 C.3   142  HEM142      0.0000
     12  CAA       10.1470   -4.8610   -5.2600 C.3   142  HEM142      0.0000
     13  CBA        8.7950   -5.5180   -5.4860 C.3   142  HEM142      0.0000
     14  CGA        8.8030   -6.4900   -6.6570 C.2   142  HEM142      0.0000
     15  O1A        9.4780   -6.2130   -7.6800 O.co2 142  HEM142      0.0000
     16  O2A        8.1420   -7.5450   -6.5490 O.co2 142  HEM142      0.0000
     17  NB        11.9040   -1.8990    0.2060 N.2   142  HEM142      0.0000
     18  C1B       10.8270   -1.1960   -0.3200 C.2   142  HEM142      0.0000
     19  C2B       10.4470   -0.0690    0.5280 C.2   142  HEM142      0.0000
     20  C3B       11.3620   -0.0040    1.5160 C.2   142  HEM142      0.0000
     21  C4B       12.2000   -1.2030    1.3610 C.2   142  HEM142      0.0000
     22  CMB        9.2050    0.8210    0.4080 C.3   142  HEM142      0.0000
     23  CAB       11.6040    1.1290    2.2810 C.3   142  HEM142      0.0000
     24  CBB       11.3030    1.2490    3.6860 C.3   142  HEM142      0.0000
     25  NC        14.1280   -3.4090    0.8820 N.ar  142  HEM142      0.0000
     26  C1C       14.1970   -2.5080    1.9310 C.ar  142  HEM142      0.0000
     27  C2C       15.3700   -2.7330    2.7570 C.ar  142  HEM142      0.0000
     28  C3C       15.9600   -3.8530    2.2670 C.ar  142  HEM142      0.0000
     29  C4C       15.2110   -4.2350    1.0930 C.ar  142  HEM142      0.0000
     30  CMC       15.8790   -1.8640    3.8930 C.3   142  HEM142      0.0000
     31  CAC       17.0200   -4.5680    2.7990 C.3   142  HEM142      0.0000
     32  CBC       18.3440   -4.0340    3.0580 C.3   142  HEM142      0.0000
     33  ND        13.6580   -5.1110   -1.2230 N.2   142  HEM142      0.0000
     34  C1D       14.8470   -5.7140   -0.8210 C.2   142  HEM142      0.0000
     35  C2D       15.1510   -6.8980   -1.6180 C.2   142  HEM142      0.0000
     36  C3D       14.1120   -7.0280   -2.4540 C.2   142  HEM142      0.0000
     37  C4D       13.2010   -5.9450   -2.2240 C.2   142  HEM142      0.0000
     38  CMD       16.3940   -7.7930   -1.6200 C.3   142  HEM142      0.0000
     39  CAD       14.0040   -8.0690   -3.5440 C.3   142  HEM142      0.0000
     40  CBD       14.5760   -7.5160   -4.8380 C.3   142  HEM142      0.0000
     41  CGD       14.4440   -8.4820   -5.9920 C.2   142  HEM142      0.0000
     42  O1D       15.4240   -8.6460   -6.7390 O.co2 142  HEM142      0.0000
     43  O2D       13.3630   -9.0730   -6.1620 O.co2 142  HEM142      0.0000
@<TRIPOS>BOND
     1    15    14   ar
     2    42    41   ar
     3    14    16   ar
     4    14    13    1
     5    43    41   ar
     6    41    40    1
     7    13    12    1
     8    12     8    1
     9    40    39    1
    10    11     9    1
    11     8     9   ar
    12     8     7   ar
    13    39    36    1
    14     9    10   ar
    15     2     7    2
    16     2    37    1
    17     7     6   ar
    18    36    37    1
    19    36    35    2
    20    10     6   ar
    21    10     3    2
    22    37    33    2
    23     6     1    1
    24    38    35    1
    25    35    34    1
    26     3    18    1
    27    33    34    1
    28    33     1    1
    29    34     5    2
    30     1    17    1
    31     1    25    1
    32    18    17    2
    33    18    19    1
    34    17    21    1
    35     5    29    1
    36    22    19    1
    37    19    20    2
    38    25    29   ar
    39    25    26   ar
    40    29    28   ar
    41    21    20    1
    42    21     4    2
    43    20    23    1
    44    26     4    1
    45    26    27   ar
    46    28    27   ar
    47    28    31    1
    48    23    24    1
    49    27    30    1
    50    31    32    1
