@<TRIPOS>MOLECULE
1hbs_HEM_A_1.pdb
 43 50 0 0 0
SMALL
GASTEIGER

@<TRIPOS>ATOM
      1 FE         11.3070    7.5040   32.5430 Fe    142  HEM142      0.0000
      2  CHA       11.5480    4.3350   33.9500 C.2   142  HEM142      0.0000
      3  CHB       13.0930    6.2380   29.8870 C.2   142  HEM142      0.0000
      4  CHC       11.7920   10.8890   31.4280 C.2   142  HEM142      0.0000
      5  CHD       10.5120    8.7170   35.5440 C.2   142  HEM142      0.0000
      6  NA        12.2710    5.6380   32.0190 N.ar  142  HEM142      0.0000
      7  C1A       12.0990    4.5120   32.6770 C.ar  142  HEM142      0.0000
      8  C2A       12.4930    3.2770   31.9260 C.ar  142  HEM142      0.0000
      9  C3A       12.9550    3.6690   30.7820 C.ar  142  HEM142      0.0000
     10  C4A       12.8120    5.2840   30.8030 C.ar  142  HEM142      0.0000
     11  CMA       13.5530    3.0320   29.5580 C.3   142  HEM142      0.0000
     12  CAA       12.2520    2.0110   32.7340 C.3   142  HEM142      0.0000
     13  CBA       11.3250    0.8190   32.7130 C.3   142  HEM142      0.0000
     14  CGA       11.5490   -0.1260   31.6420 C.2   142  HEM142      0.0000
     15  O1A       12.0070   -1.5370   31.9790 O.co2 142  HEM142      0.0000
     16  O2A       11.4550   -0.0200   30.3950 O.co2 142  HEM142      0.0000
     17  NB        12.3220    8.3990   31.0100 N.2   142  HEM142      0.0000
     18  C1B       12.8580    7.6990   29.9440 C.2   142  HEM142      0.0000
     19  C2B       13.1310    8.6740   28.9680 C.2   142  HEM142      0.0000
     20  C3B       12.7640    9.8850   29.4050 C.2   142  HEM142      0.0000
     21  C4B       12.2540    9.7290   30.7190 C.2   142  HEM142      0.0000
     22  CMB       13.7580    8.1890   27.6000 C.3   142  HEM142      0.0000
     23  CAB       12.8430   11.2940   28.7210 C.3   142  HEM142      0.0000
     24  CBB       13.5880   11.3510   27.7320 C.3   142  HEM142      0.0000
     25  NC        11.2710    9.3650   33.3230 N.ar  142  HEM142      0.0000
     26  C1C       11.3210   10.8070   32.7420 C.ar  142  HEM142      0.0000
     27  C2C       10.9060   11.7170   33.6260 C.ar  142  HEM142      0.0000
     28  C3C       10.5620   11.2190   34.7440 C.ar  142  HEM142      0.0000
     29  C4C       10.7840    9.7170   34.5640 C.ar  142  HEM142      0.0000
     30  CMC       10.9110   13.2780   33.1660 C.3   142  HEM142      0.0000
     31  CAC       10.0290   11.7730   36.0340 C.2   142  HEM142      0.0000
     32  CBC       10.0330   11.5280   37.2730 C.2   142  HEM142      0.0000
     33  ND        11.1030    6.7650   34.4440 N.2   142  HEM142      0.0000
     34  C1D       10.5690    7.3860   35.6790 C.2   142  HEM142      0.0000
     35  C2D       10.2510    6.3370   36.6340 C.2   142  HEM142      0.0000
     36  C3D       10.5630    5.2360   36.0410 C.2   142  HEM142      0.0000
     37  C4D       11.1150    5.4010   34.7000 C.2   142  HEM142      0.0000
     38  CMD        9.6920    6.5930   37.9580 C.3   142  HEM142      0.0000
     39  CAD       10.5240    3.7860   36.5860 C.3   142  HEM142      0.0000
     40  CBD       12.0450    3.8770   37.5360 C.3   142  HEM142      0.0000
     41  CGD       11.4830    2.6250   38.3840 C.2   142  HEM142      0.0000
     42  O1D       12.0730    2.1390   39.2550 O.co2 142  HEM142      0.0000
     43  O2D       10.3430    2.3800   37.8870 O.co2 142  HEM142      0.0000
@<TRIPOS>BOND
     1    22    19    1
     2    24    23    1
     3    23    20    1
     4    19    20    2
     5    19    18    1
     6    20    21    1
     7    11     9    1
     8     3    18    1
     9     3    10    2
    10    18    17    2
    11    16    14   ar
    12    21    17    1
    13    21     4    2
    14     9    10   ar
    15     9     8   ar
    16    10     6   ar
    17    17     1    1
    18     4    26    1
    19    14    15   ar
    20    14    13    1
    21     8     7   ar
    22     8    12    1
    23     6     1    1
    24     6     7   ar
    25     1    25    1
    26     1    33    1
    27     7     2    2
    28    13    12    1
    29    26    25   ar
    30    26    27   ar
    31    30    27    1
    32    25    29   ar
    33    27    28   ar
    34     2    37    1
    35    33    37    2
    36    33    34    1
    37    29    28   ar
    38    29     5    1
    39    37    36    1
    40    28    31    1
    41     5    34    2
    42    34    35    1
    43    31    32    2
    44    36    39    1
    45    36    35    2
    46    39    40    1
    47    35    38    1
    48    40    41    1
    49    43    41   ar
    50    41    42   ar
