@<TRIPOS>MOLECULE
1hbu_TP7_A_1.pdb
 21 20 0 0 0
SMALL
GASTEIGER

@<TRIPOS>ATOM
      1  N         23.2090   37.4360  -17.7390 N.am  1551  TP71551    -0.1930
      2  P         22.0700   41.6840  -17.6650 P.3   1551  TP71551     0.5326
      3  O1P       21.4070   42.0420  -18.9490 O.2   1551  TP71551    -0.2224
      4  O2P       21.0700   41.4310  -16.6120 O.3   1551  TP71551    -0.1145
      5  O3P       23.1920   42.5420  -17.2620 O.3   1551  TP71551    -0.1145
      6  O4P       22.5950   40.1450  -17.9430 O.3   1551  TP71551    -0.2704
      7  CB        21.5980   39.1680  -17.8790 C.3   1551  TP71551     0.1572
      8  C         23.0590   38.8180  -19.7300 C.2   1551  TP71551     0.3867
      9  O         22.5940   38.6220  -20.8850 O.co2 1551  TP71551    -0.2437
     10  OXT       24.3260   38.7900  -19.5580 O.co2 1551  TP71551    -0.2437
     11  CA        22.2350   38.0300  -18.5690 C.3   1551  TP71551     0.2251
     12  CG        21.1970   39.0620  -16.4510 C.3   1551  TP71551     0.0351
     13  O1        22.0510   35.4810  -17.6460 O.2   1551  TP71551    -0.2733
     14  C1        23.1300   36.0840  -17.3900 C.2   1551  TP71551     0.2419
     15  C2        24.3010   35.4740  -16.9200 C.3   1551  TP71551     0.0868
     16  C3        24.1410   33.9330  -16.9450 C.3   1551  TP71551     0.0096
     17  C4        25.2690   33.0040  -16.4210 C.3   1551  TP71551     0.0005
     18  C5        25.7970   33.6790  -15.1280 C.3   1551  TP71551     0.0009
     19  C6        24.9220   33.1780  -13.9460 C.3   1551  TP71551     0.0125
     20  C7        24.8400   31.6910  -14.0450 C.3   1551  TP71551     0.0687
     21  S7        23.8850   30.7760  -12.8250 S.3   1551  TP71551    -0.0821
@<TRIPOS>BOND
     1     9     8   ar
     2     8    10   ar
     3     8    11    1
     4     3     2    2
     5    11     7    1
     6    11     1    1
     7     6     7    1
     8     6     2    1
     9     7    12    1
    10     1    14   am
    11     2     5    1
    12     2     4    1
    13    13    14    2
    14    14    15    1
    15    16    15    1
    16    16    17    1
    17    17    18    1
    18    18    19    1
    19    20    19    1
    20    20    21    1
