@<TRIPOS>MOLECULE
1hbv_GAN_A_1.pdb
 42 43 0 0 0
SMALL
GASTEIGER

@<TRIPOS>ATOM
      1  N1        -4.4280   16.7710   18.8980 N.3   600  GAN600     -0.1231
      2  C2        -4.3680   17.2180   20.3280 C.3   600  GAN600      0.1694
      3  C3        -3.3620   18.3720   20.4750 C.3   600  GAN600      0.0304
      4  C4        -5.7600   17.7000   20.7290 C.2   600  GAN600      0.2590
      5  O5        -6.2830   18.5900   20.0580 O.2   600  GAN600     -0.2718
      6  N6        -6.3570   17.1560   21.7790 N.am  600  GAN600     -0.2018
      7  C7        -7.6830   17.5640   22.2180 C.3   600  GAN600      0.1134
      8  C8        -8.7050   16.7170   21.4720 C.3   600  GAN600      0.0279
      9  C9        -7.6940   17.3450   23.7270 C.2   600  GAN600     -0.0276
     10  C10       -7.0530   18.2710   24.5480 C.2   600  GAN600     -0.0315
     11  C11       -7.0060   18.1300   26.0900 C.3   600  GAN600      0.0418
     12  C12       -5.8960   19.0210   26.6480 C.3   600  GAN600      0.0321
     13  C13       -4.6210   18.4400   26.0610 C.ar  600  GAN600     -0.0218
     14  C14       -3.8370   19.2340   25.2190 C.ar  600  GAN600     -0.0043
     15  C15       -2.7210   18.6870   24.5850 C.ar  600  GAN600     -0.0003
     16  C16       -2.3980   17.3520   24.7890 C.ar  600  GAN600     -0.0000
     17  C17       -3.1800   16.5660   25.6330 C.ar  600  GAN600     -0.0003
     18  C18       -4.2900   17.0960   26.2770 C.ar  600  GAN600     -0.0043
     19  C19       -8.3400   18.4400   26.7670 C.3   600  GAN600      0.0771
     20  C20       -8.3080   16.0710   24.2740 C.3   600  GAN600      0.0407
     21  C21       -8.8420   16.1310   25.7390 C.3   600  GAN600      0.0769
     22  N22       -9.3220   17.4680   26.2090 N.3   600  GAN600     -0.2659
     23  C23      -10.7340   17.5520   26.6530 C.3   600  GAN600      0.1366
     24  C24      -11.5120   16.7700   25.5720 C.3   600  GAN600      0.0273
     25  C25      -11.1870   17.1440   28.0890 C.2   600  GAN600      0.2562
     26  O26      -10.8830   17.8630   29.0480 O.2   600  GAN600     -0.2719
     27  N27      -11.9160   16.0210   28.2460 N.am  600  GAN600     -0.1967
     28  C28      -12.4280   15.5100   29.5150 C.3   600  GAN600      0.1727
     29  C29      -13.4480   14.3020   29.2470 C.3   600  GAN600      0.0290
     30  C30      -14.2960   14.1470   30.4660 C.3   600  GAN600      0.0023
     31  C31      -12.7940   12.9710   28.9620 C.3   600  GAN600      0.0023
     32  C32      -11.2970   15.0750   30.4500 C.2   600  GAN600      0.2617
     33  O33      -10.3540   14.3820   30.0320 O.2   600  GAN600     -0.2715
     34  N34      -11.4050   15.4490   31.7110 N.am  600  GAN600     -0.1943
     35  C35      -10.4580   15.0950   32.7660 C.3   600  GAN600      0.1934
     36  C37       -9.2350   16.0340   33.0340 C.3   600  GAN600      0.0309
     37  C38       -8.8090   16.9480   31.9160 C.3   600  GAN600      0.0023
     38  C39       -8.0810   15.0700   33.1780 C.3   600  GAN600      0.0023
     39  C40      -11.3900   15.2500   33.9910 C.2   600  GAN600      0.3371
     40  O36      -12.0240   16.3120   34.1420 O.2   600  GAN600     -0.2482
     41  O41      -11.8900   14.1670   34.6250 O.3   600  GAN600     -0.4432
     42  C42      -12.4540   13.1010   33.7960 C.3   600  GAN600      0.2557
@<TRIPOS>BOND
     1     1     2    1
     2     5     4    2
     3     2     3    1
     4     2     4    1
     5     4     6   am
     6     8     7    1
     7     6     7    1
     8     7     9    1
     9     9    20    1
    10     9    10    2
    11    20    21    1
    12    10    11    1
    13    15    16   ar
    14    15    14   ar
    15    16    17   ar
    16    14    13   ar
    17    24    23    1
    18    17    18   ar
    19    21    22    1
    20    13    18   ar
    21    13    12    1
    22    11    12    1
    23    11    19    1
    24    22    23    1
    25    22    19    1
    26    23    25    1
    27    25    27   am
    28    25    26    2
    29    27    28    1
    30    31    29    1
    31    29    28    1
    32    29    30    1
    33    28    32    1
    34    33    32    2
    35    32    34   am
    36    34    35    1
    37    37    36    1
    38    35    36    1
    39    35    39    1
    40    36    38    1
    41    42    41    1
    42    39    40    2
    43    39    41    1
