@<TRIPOS>MOLECULE
1hbz_HEM_A_1.pdb
 43 50 0 0 0
SMALL
GASTEIGER

@<TRIPOS>ATOM
      1 FE         22.6730   -1.3180   -3.8220 Fe    504  HEM504      0.0000
      2  CHA       20.1770    0.8290   -4.8110 C.2   504  HEM504      0.0000
      3  CHB       20.4900   -2.8020   -1.6450 C.2   504  HEM504      0.0000
      4  CHC       25.2720   -3.1200   -2.4420 C.2   504  HEM504      0.0000
      5  CHD       24.7760   -0.0780   -6.1830 C.2   504  HEM504      0.0000
      6  NA        20.7400   -0.9800   -3.2660 N.2   504  HEM504      0.0000
      7  C1A       19.8460   -0.1060   -3.8680 C.2   504  HEM504      0.0000
      8  C2A       18.5160   -0.3810   -3.3590 C.2   504  HEM504      0.0000
      9  C3A       18.6190   -1.3800   -2.4930 C.2   504  HEM504      0.0000
     10  C4A       20.0200   -1.7610   -2.4050 C.2   504  HEM504      0.0000
     11  CMA       17.4840   -2.0610   -1.7440 C.3   504  HEM504      0.0000
     12  CAA       17.2590    0.3660   -3.8040 C.3   504  HEM504      0.0000
     13  CBA       16.6460   -0.3130   -5.0180 C.3   504  HEM504      0.0000
     14  CGA       15.3290    0.2790   -5.4650 C.2   504  HEM504      0.0000
     15  O1A       14.5190    0.6900   -4.6070 O.co2 504  HEM504      0.0000
     16  O2A       15.1150    0.3060   -6.7090 O.co2 504  HEM504      0.0000
     17  NB        22.8670   -2.6280   -2.2770 N.ar  504  HEM504      0.0000
     18  C1B       21.8130   -3.1860   -1.5850 C.ar  504  HEM504      0.0000
     19  C2B       22.3390   -4.1800   -0.6970 C.ar  504  HEM504      0.0000
     20  C3B       23.6590   -4.2820   -0.9100 C.ar  504  HEM504      0.0000
     21  C4B       24.0230   -3.2800   -1.8760 C.ar  504  HEM504      0.0000
     22  CMB       21.4820   -5.1190    0.1670 C.3   504  HEM504      0.0000
     23  CAB       24.7050   -5.1860   -0.2880 C.2   504  HEM504      0.0000
     24  CBB       24.5300   -6.3940    0.1230 C.2   504  HEM504      0.0000
     25  NC        24.6540   -1.5320   -4.2150 N.2   504  HEM504      0.0000
     26  C1C       25.5480   -2.3700   -3.5660 C.2   504  HEM504      0.0000
     27  C2C       26.8200   -2.3050   -4.2620 C.2   504  HEM504      0.0000
     28  C3C       26.6500   -1.5210   -5.3260 C.2   504  HEM504      0.0000
     29  C4C       25.2860   -1.0240   -5.3220 C.2   504  HEM504      0.0000
     30  CMC       28.0740   -3.0910   -3.8460 C.3   504  HEM504      0.0000
     31  CAC       27.6230   -1.1960   -6.4320 C.3   504  HEM504      0.0000
     32  CBC       28.4070   -2.2410   -6.9040 C.3   504  HEM504      0.0000
     33  ND        22.5280    0.1580   -5.1680 N.ar  504  HEM504      0.0000
     34  C1D       23.5030    0.4650   -6.1080 C.ar  504  HEM504      0.0000
     35  C2D       23.0040    1.4590   -7.0100 C.ar  504  HEM504      0.0000
     36  C3D       21.6470    1.7290   -6.6090 C.ar  504  HEM504      0.0000
     37  C4D       21.3850    0.8890   -5.4700 C.ar  504  HEM504      0.0000
     38  CMD       23.7710    2.1090   -8.1600 C.3   504  HEM504      0.0000
     39  CAD       20.7070    2.6970   -7.2810 C.3   504  HEM504      0.0000
     40  CBD       20.0410    2.0600   -8.5040 C.3   504  HEM504      0.0000
     41  CGD       19.2590    3.1320   -9.1670 C.2   504  HEM504      0.0000
     42  O1D       18.0030    3.0100   -9.1900 O.co2 504  HEM504      0.0000
     43  O2D       19.8510    4.1220   -9.6380 O.co2 504  HEM504      0.0000
@<TRIPOS>BOND
     1    43    41   ar
     2    42    41   ar
     3    41    40    1
     4    40    39    1
     5    38    35    1
     6    39    36    1
     7    35    36   ar
     8    35    34   ar
     9    32    31    1
    10    16    14   ar
    11    36    37   ar
    12    31    28    1
    13     5    34    2
    14     5    29    1
    15    34    33   ar
    16    37    33   ar
    17    37     2    2
    18    14    13    1
    19    14    15   ar
    20    28    29    1
    21    28    27    2
    22    29    25    2
    23    33     1    1
    24    13    12    1
    25     2     7    1
    26    27    30    1
    27    27    26    1
    28    25     1    1
    29    25    26    1
    30     7     8    1
    31     7     6    2
    32     1     6    1
    33     1    17    1
    34    12     8    1
    35    26     4    2
    36     8     9    2
    37     6    10    1
    38     9    10    1
    39     9    11    1
    40     4    21    1
    41    10     3    2
    42    17    21   ar
    43    17    18   ar
    44    21    20   ar
    45     3    18    1
    46    18    19   ar
    47    20    19   ar
    48    20    23    1
    49    19    22    1
    50    23    24    2
