@<TRIPOS>MOLECULE
1hch_HEM_A_1.pdb
 43 50 0 0 0
SMALL
GASTEIGER

@<TRIPOS>ATOM
      1 FE          3.2190    2.1420   11.5460 Fe    350  HEM350      0.0000
      2  CHA       -0.0180    3.1920   11.8300 C.2   350  HEM350      0.0000
      3  CHB        2.4220    0.4510    8.6810 C.2   350  HEM350      0.0000
      4  CHC        6.4200    1.0510   11.3120 C.2   350  HEM350      0.0000
      5  CHD        4.0030    3.7830   14.4210 C.2   350  HEM350      0.0000
      6  NA         1.5390    1.8840   10.4680 N.ar  350  HEM350      0.0000
      7  C1A        0.2920    2.4360   10.7040 C.ar  350  HEM350      0.0000
      8  C2A       -0.6410    2.0360    9.6710 C.ar  350  HEM350      0.0000
      9  C3A        0.0400    1.2530    8.7990 C.ar  350  HEM350      0.0000
     10  C4A        1.3910    1.1610    9.2970 C.ar  350  HEM350      0.0000
     11  CMA       -0.5380    0.5620    7.5600 C.3   350  HEM350      0.0000
     12  CAA       -2.1170    2.3750    9.5650 C.3   350  HEM350      0.0000
     13  CBA       -2.3110    3.6940    8.8380 C.3   350  HEM350      0.0000
     14  CGA       -3.7700    4.0380    8.6410 C.2   350  HEM350      0.0000
     15  O1A       -4.0610    5.1920    8.2720 O.co2 350  HEM350      0.0000
     16  O2A       -4.6250    3.1550    8.8460 O.co2 350  HEM350      0.0000
     17  NB         4.2250    0.9730   10.2510 N.2   350  HEM350      0.0000
     18  C1B        3.7400    0.3480    9.1190 C.2   350  HEM350      0.0000
     19  C2B        4.7700   -0.4590    8.5050 C.2   350  HEM350      0.0000
     20  C3B        5.8820   -0.3510    9.2710 C.2   350  HEM350      0.0000
     21  C4B        5.5500    0.5790   10.3370 C.2   350  HEM350      0.0000
     22  CMB        4.6230   -1.2440    7.2100 C.3   350  HEM350      0.0000
     23  CAB        7.0800   -1.0180    9.0220 C.3   350  HEM350      0.0000
     24  CBB        7.8980   -1.6630   10.0180 C.3   350  HEM350      0.0000
     25  NC         4.8980    2.4170   12.6180 N.ar  350  HEM350      0.0000
     26  C1C        6.1490    1.9340   12.3430 C.ar  350  HEM350      0.0000
     27  C2C        7.1480    2.5550   13.2040 C.ar  350  HEM350      0.0000
     28  C3C        6.4710    3.3630   14.0770 C.ar  350  HEM350      0.0000
     29  C4C        5.0670    3.2300   13.7180 C.ar  350  HEM350      0.0000
     30  CMC        8.6570    2.3840   13.0470 C.3   350  HEM350      0.0000
     31  CAC        6.9660    4.1950   15.0950 C.3   350  HEM350      0.0000
     32  CBC        8.1640    3.9690   15.8650 C.3   350  HEM350      0.0000
     33  ND         2.1840    3.1970   12.8930 N.2   350  HEM350      0.0000
     34  C1D        2.6610    3.7460   14.0630 C.2   350  HEM350      0.0000
     35  C2D        1.5840    4.2750   14.8480 C.2   350  HEM350      0.0000
     36  C3D        0.4470    4.1420   14.1150 C.2   350  HEM350      0.0000
     37  C4D        0.8330    3.4940   12.8900 C.2   350  HEM350      0.0000
     38  CMD        1.7400    4.8170   16.2640 C.3   350  HEM350      0.0000
     39  CAD       -0.9350    4.6590   14.4900 C.3   350  HEM350      0.0000
     40  CBD       -1.0740    6.0850   13.9920 C.3   350  HEM350      0.0000
     41  CGD       -2.4300    6.6890   14.2910 C.2   350  HEM350      0.0000
     42  O1D       -2.6450    7.8590   13.9170 O.co2 350  HEM350      0.0000
     43  O2D       -3.2800    6.0020   14.8940 O.co2 350  HEM350      0.0000
@<TRIPOS>BOND
     1    22    19    1
     2    11     9    1
     3    15    14   ar
     4    19    18    1
     5    19    20    2
     6    14    13    1
     7    14    16   ar
     8     3    18    1
     9     3    10    2
    10     9    10   ar
    11     9     8   ar
    12    13    12    1
    13    23    20    1
    14    23    24    1
    15    18    17    2
    16    20    21    1
    17    10     6   ar
    18    12     8    1
    19     8     7   ar
    20    17    21    1
    21    17     1    1
    22    21     4    2
    23     6     7   ar
    24     6     1    1
    25     7     2    2
    26     4    26    1
    27     1    25    1
    28     1    33    1
    29     2    37    1
    30    26    25   ar
    31    26    27   ar
    32    25    29   ar
    33    37    33    2
    34    37    36    1
    35    33    34    1
    36    30    27    1
    37    27    28   ar
    38    29    28   ar
    39    29     5    1
    40    42    41   ar
    41    40    41    1
    42    40    39    1
    43    34     5    2
    44    34    35    1
    45    28    31    1
    46    36    39    1
    47    36    35    2
    48    41    43   ar
    49    35    38    1
    50    31    32    1
