@<TRIPOS>MOLECULE
1hck_ATP_A_1.pdb
 31 33 0 0 0
SMALL
GASTEIGER

@<TRIPOS>ATOM
      1  PG        98.8990   93.2990   85.1160 P.3   400  ATP400      0.5373
      2  O1G      100.4110   93.4610   84.5050 O.2   400  ATP400     -0.2221
      3  O2G       98.5010   94.4330   86.0550 O.3   400  ATP400     -0.1143
      4  O3G       98.6840   92.0240   85.5730 O.3   400  ATP400     -0.1143
      5  PB        98.1110   94.6830   82.3670 P.3   400  ATP400      0.2277
      6  O1B       97.1860   94.4350   81.1730 O.2   400  ATP400     -0.5168
      7  O2B       99.5850   94.6720   81.9090 O.3   400  ATP400     -0.4368
      8  O3B       97.9520   93.6080   83.7590 O.3   400  ATP400     -0.2258
      9  PA        99.2180   96.9940   83.8210 P.3   400  ATP400      0.2189
     10  O1A      100.4800   96.3080   83.8140 O.2   400  ATP400     -0.5170
     11  O2A       98.6680   97.6160   85.0380 O.3   400  ATP400     -0.4371
     12  O3A       98.1200   96.2090   83.0340 O.3   400  ATP400     -0.2700
     13  O5'       99.3910   97.9480   82.5750 O.3   400  ATP400     -0.3112
     14  C5'       98.2770   98.6940   82.1340 C.3   400  ATP400      0.1813
     15  C4'       98.3570   99.2300   80.8210 C.3   400  ATP400      0.1821
     16  O4'       99.4340  100.1810   80.8450 O.3   400  ATP400     -0.3135
     17  C3'       98.6320   98.2000   79.6590 C.3   400  ATP400      0.2184
     18  O3'       98.6170   98.9250   78.3770 O.3   400  ATP400     -0.2174
     19  C2'      100.1600   98.1430   79.7720 C.3   400  ATP400      0.2570
     20  O2'      100.6850   97.5720   78.5850 O.3   400  ATP400     -0.2130
     21  C1'      100.4320   99.7490   79.9440 C.3   400  ATP400      0.3186
     22  N9       101.6940   99.8860   80.5610 N.pl3 400  ATP400     -0.1439
     23  C8       102.2970   99.0890   81.5500 C.3   400  ATP400      0.3377
     24  N7       103.5420   99.4210   81.8870 N.2   400  ATP400     -0.2095
     25  C5       103.9150  100.4510   80.8750 C.2   400  ATP400      0.2526
     26  C6       105.1010  101.2030   80.5810 C.2   400  ATP400      0.4393
     27  N6       106.2410  101.0760   81.1860 N.pl3 400  ATP400      0.2180
     28  N1       104.9370  102.1350   79.5910 N.2   400  ATP400      0.0021
     29  C2       103.8530  102.3590   78.8990 C.3   400  ATP400      0.5254
     30  N3       102.6730  101.8430   79.1370 N.2   400  ATP400     -0.0055
     31  C4       102.7190  100.7820   80.0970 C.2   400  ATP400      0.3518
@<TRIPOS>BOND
     1    18    17    1
     2    20    19    1
     3    29    30    1
     4    29    28    1
     5    30    31    2
     6    28    26    2
     7    17    19    1
     8    17    15    1
     9    19    21    1
    10    21    22    1
    11    21    16    1
    12    31    22    1
    13    31    25    1
    14    22    23    1
    15    26    25    1
    16    26    27    1
    17    15    16    1
    18    15    14    1
    19    25    24    2
    20     6     5    2
    21    23    24    1
    22     7     5    1
    23    14    13    1
    24     5    12    1
    25     5     8    1
    26    13     9    1
    27    12     9    1
    28     8     1    1
    29    10     9    2
    30     9    11    1
    31     2     1    2
    32     1     4    1
    33     1     3    1
