@<TRIPOS>MOLECULE
1hcm_DHE_A_1.pdb
 49 56 0 0 0
SMALL
GASTEIGER

@<TRIPOS>ATOM
      1 FE         70.0590   21.9220  197.4840 Fe    602  DHE602      0.0000
      2  CHA       67.2410   21.8220  195.4790 C.2   602  DHE602      0.0000
      3  CHB       71.6810   23.6920  195.0100 C.2   602  DHE602      0.0000
      4  CHC       72.5010   22.8900  199.7130 C.2   602  DHE602      0.0000
      5  CHD       68.1980   20.6950  200.1020 C.2   602  DHE602      0.0000
      6  NA        69.5480   22.6740  195.6520 N.ar  602  DHE602      0.0000
      7  C1A       68.3770   22.4120  194.9650 C.ar  602  DHE602      0.0000
      8  C2A       68.5480   22.7860  193.5810 C.ar  602  DHE602      0.0000
      9  C3A       69.7720   23.2920  193.4400 C.ar  602  DHE602      0.0000
     10  C4A       70.4010   23.2470  194.7440 C.ar  602  DHE602      0.0000
     11  CMA       70.4570   23.8530  192.1710 C.3   602  DHE602      0.0000
     12  CAA       67.4460   22.5660  192.5020 C.3   602  DHE602      0.0000
     13  CBA       67.3920   21.0870  192.0240 C.3   602  DHE602      0.0000
     14  CGA       66.4840   20.8060  190.8650 C.2   602  DHE602      0.0000
     15  O1A       65.9210   21.7800  190.3220 O.co2 602  DHE602      0.0000
     16  O2A       66.3610   19.5880  190.5150 O.co2 602  DHE602      0.0000
     17  NB        71.7420   23.0960  197.3990 N.2   602  DHE602      0.0000
     18  C1B       72.2890   23.6490  196.2590 C.2   602  DHE602      0.0000
     19  C2B       73.5470   24.2630  196.5680 C.2   602  DHE602      0.0000
     20  OMB       74.4270   24.9860  195.5290 O.2   602  DHE602      0.0000
     21  C3B       73.6270   24.2840  197.9200 C.2   602  DHE602      0.0000
     22  CGB       73.0870   25.6460  198.4780 C.3   602  DHE602      0.0000
     23  CAB       74.9780   23.9840  198.4530 C.3   602  DHE602      0.0000
     24  CBB       75.5170   22.8380  198.1490 C.2   602  DHE602      0.0000
     25  O1B       76.7530   22.6420  198.3990 O.co2 602  DHE602      0.0000
     26  O2B       74.9360   21.8570  197.6090 O.co2 602  DHE602      0.0000
     27  C4B       72.6410   23.3050  198.4030 C.2   602  DHE602      0.0000
     28  NC        70.2870   21.8290  199.4900 N.pl3 602  DHE602      0.0000
     29  C1C       71.4020   22.2150  200.2210 C.2   602  DHE602      0.0000
     30  C2C       71.2250   21.8450  201.6050 C.2   602  DHE602      0.0000
     31  OMC       72.2720   22.1220  202.6950 O.2   602  DHE602      0.0000
     32  C3C       70.0660   21.1900  201.7040 C.2   602  DHE602      0.0000
     33  CGC       69.3000   22.1230  202.6980 C.3   602  DHE602      0.0000
     34  CAC       70.1400   19.8170  202.3000 C.3   602  DHE602      0.0000
     35  CBC       70.8770   18.9560  201.6500 C.2   602  DHE602      0.0000
     36  O1C       70.3850   17.8360  201.2950 O.co2 602  DHE602      0.0000
     37  O2C       72.0940   19.2010  201.3630 O.co2 602  DHE602      0.0000
     38  C4C       69.4470   21.1990  200.3890 C.2   602  DHE602      0.0000
     39  ND        68.1030   21.4130  197.7420 N.2   602  DHE602      0.0000
     40  C1D       67.5590   20.8530  198.8800 C.2   602  DHE602      0.0000
     41  C2D       66.1670   20.5290  198.6310 C.2   602  DHE602      0.0000
     42  C3D       65.9020   20.8400  197.3580 C.2   602  DHE602      0.0000
     43  C4D       67.1200   21.3680  196.7830 C.2   602  DHE602      0.0000
     44  CMD       65.2270   19.9140  199.7000 C.3   602  DHE602      0.0000
     45  CAD       64.5790   20.6800  196.5820 C.2   602  DHE602      0.0000
     46  CBD       63.2670   20.8890  197.2750 C.2   602  DHE602      0.0000
     47  CGD       62.0220   20.9020  196.4420 C.2   602  DHE602      0.0000
     48  O1D       60.9200   20.8850  197.0530 O.co2 602  DHE602      0.0000
     49  O2D       62.1550   20.9330  195.1760 O.co2 602  DHE602      0.0000
@<TRIPOS>BOND
     1    15    14   ar
     2    16    14   ar
     3    14    13    1
     4    13    12    1
     5    11     9    1
     6    12     8    1
     7     9     8   ar
     8     9    10   ar
     9     8     7   ar
    10    10     3    2
    11    10     6   ar
    12     7     2    2
    13     7     6   ar
    14     3    18    1
    15    49    47   ar
    16     2    43    1
    17    20    19    1
    18     6     1    1
    19    18    19    1
    20    18    17    2
    21    47    48   ar
    22    47    46    1
    23    19    21    2
    24    45    46    2
    25    45    42    1
    26    43    42    1
    27    43    39    2
    28    42    41    2
    29    17     1    1
    30    17    27    1
    31     1    39    1
    32     1    28    1
    33    26    24   ar
    34    39    40    1
    35    21    27    1
    36    21    23    1
    37    21    22    1
    38    24    25   ar
    39    24    23    1
    40    27     4    2
    41    41    40    1
    42    41    44    1
    43    40     5    2
    44    28    29    1
    45    28    38    1
    46     4    29    1
    47     5    38    1
    48    29    30    2
    49    38    32    2
    50    36    35   ar
    51    37    35   ar
    52    30    32    1
    53    30    31    1
    54    35    34    1
    55    32    34    1
    56    32    33    1
