@<TRIPOS>MOLECULE
1hcm_HEC_A_1.pdb
 43 50 0 0 0
SMALL
GASTEIGER

@<TRIPOS>ATOM
      1 FE         86.5010   15.6100  202.5830 Fe    601  HEC601      0.0000
      2  CHA       87.0490   17.3500  205.4660 C.2   601  HEC601      0.0000
      3  CHB       89.8590   15.3530  202.1030 C.2   601  HEC601      0.0000
      4  CHC       85.9580   13.6330  199.8170 C.2   601  HEC601      0.0000
      5  CHD       83.1640   16.1220  202.8420 C.2   601  HEC601      0.0000
      6  NA        88.1400   16.2320  203.5860 N.ar  601  HEC601      0.0000
      7  C1A       88.1610   16.9150  204.7950 C.ar  601  HEC601      0.0000
      8  C2A       89.5370   17.0920  205.2090 C.ar  601  HEC601      0.0000
      9  C3A       90.3120   16.5500  204.2720 C.ar  601  HEC601      0.0000
     10  C4A       89.4450   16.0230  203.2400 C.ar  601  HEC601      0.0000
     11  CMA       91.8580   16.4570  204.2100 C.3   601  HEC601      0.0000
     12  CAA       89.9420   17.8170  206.5170 C.3   601  HEC601      0.0000
     13  CBA       90.2920   19.3070  206.3800 C.3   601  HEC601      0.0000
     14  CGA       90.1390   20.1770  207.5740 C.2   601  HEC601      0.0000
     15  O1A       90.3470   21.4240  207.4220 O.co2 601  HEC601      0.0000
     16  O2A       89.8190   19.6530  208.6730 O.co2 601  HEC601      0.0000
     17  NB        87.6620   14.7060  201.2430 N.2   601  HEC601      0.0000
     18  C1B       89.0360   14.7150  201.2000 C.2   601  HEC601      0.0000
     19  C2B       89.5050   13.9270  200.0780 C.2   601  HEC601      0.0000
     20  C3B       88.4210   13.4460  199.4510 C.2   601  HEC601      0.0000
     21  C4B       87.2550   13.9140  200.1750 C.2   601  HEC601      0.0000
     22  CMB       90.9850   13.7360  199.7320 C.3   601  HEC601      0.0000
     23  CAB       88.3720   12.5500  198.1940 C.3   601  HEC601      0.0000
     24  CBB       88.6690   11.2030  198.4370 C.3   601  HEC601      0.0000
     25  NC        84.8780   14.9840  201.5400 N.ar  601  HEC601      0.0000
     26  C1C       84.8600   14.1660  200.4390 C.ar  601  HEC601      0.0000
     27  C2C       83.4810   13.9980  199.9910 C.ar  601  HEC601      0.0000
     28  C3C       82.7170   14.6750  200.8450 C.ar  601  HEC601      0.0000
     29  C4C       83.5590   15.3210  201.8030 C.ar  601  HEC601      0.0000
     30  CMC       83.0670   13.1540  198.7680 C.3   601  HEC601      0.0000
     31  CAC       81.1570   14.8560  200.7900 C.2   601  HEC601      0.0000
     32  CBC       80.3850   13.7510  200.9440 C.2   601  HEC601      0.0000
     33  ND        85.3530   16.5460  203.8600 N.2   601  HEC601      0.0000
     34  C1D       83.9670   16.6820  203.8110 C.2   601  HEC601      0.0000
     35  C2D       83.5140   17.4490  204.9400 C.2   601  HEC601      0.0000
     36  C3D       84.5840   17.7850  205.6550 C.2   601  HEC601      0.0000
     37  C4D       85.7550   17.2070  205.0170 C.2   601  HEC601      0.0000
     38  CMD       82.0330   17.7940  205.2110 C.3   601  HEC601      0.0000
     39  CAD       84.6690   18.5990  206.9740 C.3   601  HEC601      0.0000
     40  CBD       84.5620   17.6620  208.2120 C.3   601  HEC601      0.0000
     41  CGD       84.3870   18.3450  209.5310 C.2   601  HEC601      0.0000
     42  O1D       84.6650   17.6500  210.5470 O.co2 601  HEC601      0.0000
     43  O2D       83.9940   19.5360  209.5160 O.co2 601  HEC601      0.0000
@<TRIPOS>BOND
     1    23    24    1
     2    23    20    1
     3    30    27    1
     4    20    19    2
     5    20    21    1
     6    22    19    1
     7     4    21    2
     8     4    26    1
     9    27    26   ar
    10    27    28   ar
    11    19    18    1
    12    21    17    1
    13    26    25   ar
    14    31    28    1
    15    31    32    2
    16    28    29   ar
    17    18    17    2
    18    18     3    1
    19    17     1    1
    20    25    29   ar
    21    25     1    1
    22    29     5    1
    23     3    10    2
    24     1     6    1
    25     1    33    1
    26     5    34    2
    27    10     6   ar
    28    10     9   ar
    29     6     7   ar
    30    34    33    1
    31    34    35    1
    32    33    37    2
    33    11     9    1
    34     9     8   ar
    35     7     8   ar
    36     7     2    2
    37    35    38    1
    38    35    36    2
    39    37     2    1
    40    37    36    1
    41     8    12    1
    42    36    39    1
    43    13    12    1
    44    13    14    1
    45    39    40    1
    46    15    14   ar
    47    14    16   ar
    48    40    41    1
    49    43    41   ar
    50    41    42   ar
