@<TRIPOS>MOLECULE
1hco_HEM_A_1.pdb
 43 50 0 0 0
SMALL
GASTEIGER

@<TRIPOS>ATOM
      1  CHA        9.4100    9.5800  -17.9100 C.2   200  HEM200      0.0000
      2  CHB       10.6400   11.3700  -13.6000 C.2   200  HEM200      0.0000
      3  CHC        8.9100    7.4000  -11.4600 C.2   200  HEM200      0.0000
      4  CHD        7.6800    5.6200  -15.7700 C.2   200  HEM200      0.0000
      5  C1A        9.8900   10.4100  -16.9200 C.2   200  HEM200      0.0000
      6  C2A       10.5000   11.7200  -17.1500 C.2   200  HEM200      0.0000
      7  C3A       10.8400   12.2100  -15.9600 C.2   200  HEM200      0.0000
      8  C4A       10.4600   11.2300  -14.9500 C.2   200  HEM200      0.0000
      9  CMA       11.5100   13.5500  -15.7100 C.3   200  HEM200      0.0000
     10  CAA       10.7100   12.4000  -18.4800 C.3   200  HEM200      0.0000
     11  CBA       10.4300   13.9100  -18.3500 C.3   200  HEM200      0.0000
     12  CGA       10.1300   14.5000  -19.7300 C.2   200  HEM200      0.0000
     13  O1A       10.5700   13.9000  -20.7300 O.co2 200  HEM200      0.0000
     14  O2A        9.4500   15.5400  -19.7900 O.co2 200  HEM200      0.0000
     15  C1B       10.2800   10.4500  -12.6400 C.ar  200  HEM200      0.0000
     16  C2B       10.4800   10.6000  -11.2100 C.ar  200  HEM200      0.0000
     17  C3B       10.0000    9.5000  -10.6200 C.ar  200  HEM200      0.0000
     18  C4B        9.4900    8.6300  -11.6600 C.ar  200  HEM200      0.0000
     19  CMB       11.1100   11.7800  -10.5000 C.3   200  HEM200      0.0000
     20  CAB       10.0000    9.2300   -9.1300 C.2   200  HEM200      0.0000
     21  CBB       11.1100    9.4100   -8.4100 C.2   200  HEM200      0.0000
     22  C1C        8.4300    6.5700  -12.4400 C.2   200  HEM200      0.0000
     23  C2C        7.8200    5.2700  -12.2200 C.2   200  HEM200      0.0000
     24  C3C        7.4800    4.7800  -13.4100 C.2   200  HEM200      0.0000
     25  C4C        7.8600    5.7500  -14.4100 C.2   200  HEM200      0.0000
     26  CMC        7.6100    4.5800  -10.8900 C.3   200  HEM200      0.0000
     27  CAC        6.8100    3.4400  -13.6500 C.2   200  HEM200      0.0000
     28  CBC        6.3400    3.1300  -14.8600 C.2   200  HEM200      0.0000
     29  C1D        8.0400    6.5400  -16.7300 C.ar  200  HEM200      0.0000
     30  C2D        7.8400    6.3800  -18.1600 C.ar  200  HEM200      0.0000
     31  C3D        8.3200    7.4800  -18.7500 C.ar  200  HEM200      0.0000
     32  C4D        8.8300    8.3500  -17.7000 C.ar  200  HEM200      0.0000
     33  CMD        7.2100    5.2000  -18.8700 C.3   200  HEM200      0.0000
     34  CAD        8.3200    7.7500  -20.2400 C.3   200  HEM200      0.0000
     35  CBD        9.3800    6.9000  -20.8600 C.3   200  HEM200      0.0000
     36  CGD        9.4400    7.2300  -22.3500 C.2   200  HEM200      0.0000
     37  O1D        8.5500    6.9200  -23.0700 O.co2 200  HEM200      0.0000
     38  O2D       10.4000    7.8200  -22.8100 O.co2 200  HEM200      0.0000
     39  NA         9.8800   10.1400  -15.5700 N.2   200  HEM200      0.0000
     40  NB         9.6700    9.2300  -12.9000 N.ar  200  HEM200      0.0000
     41  NC         8.4400    6.8500  -13.8000 N.2   200  HEM200      0.0000
     42  ND         8.6500    7.7500  -16.4700 N.ar  200  HEM200      0.0000
     43 FE          9.1200    8.5100  -14.6800 Fe    200  HEM200      0.0000
@<TRIPOS>BOND
     1    37    36   ar
     2    38    36   ar
     3    36    35    1
     4    35    34    1
     5    13    12   ar
     6    34    31    1
     7    14    12   ar
     8    12    11    1
     9    33    30    1
    10    31    30   ar
    11    31    32   ar
    12    10    11    1
    13    10     6    1
    14    30    29   ar
    15     1    32    2
    16     1     5    1
    17    32    42   ar
    18     6     5    1
    19     6     7    2
    20     5    39    2
    21    29    42   ar
    22    29     4    2
    23    42    43    1
    24     7     9    1
    25     7     8    1
    26     4    25    1
    27    39     8    1
    28    39    43    1
    29     8     2    2
    30    28    27    2
    31    43    41    1
    32    43    40    1
    33    25    41    2
    34    25    24    1
    35    41    22    1
    36    27    24    1
    37     2    15    1
    38    24    23    2
    39    40    15   ar
    40    40    18   ar
    41    15    16   ar
    42    22    23    1
    43    22     3    2
    44    23    26    1
    45    18     3    1
    46    18    17   ar
    47    16    17   ar
    48    16    19    1
    49    17    20    1
    50    20    21    2
