@<TRIPOS>MOLECULE
1hcu_NAG_A_1.pdb
 14 14 0 0 0
SMALL
GASTEIGER

@<TRIPOS>ATOM
      1  C1       -11.0100  -15.7160  -19.5490 C.3   600  NAG600      0.1665
      2  C2       -11.9830  -15.7790  -20.7330 C.3   600  NAG600      0.1576
      3  C3       -13.3070  -15.1070  -20.3440 C.3   600  NAG600      0.2069
      4  C4       -13.8540  -15.6650  -19.0250 C.3   600  NAG600      0.2134
      5  C5       -12.7680  -15.6060  -17.9430 C.3   600  NAG600      0.1809
      6  C6       -13.2080  -16.2380  -16.6420 C.3   600  NAG600      0.2141
      7  C7       -11.0480  -15.7230  -22.9590 C.2   600  NAG600      0.2420
      8  C8       -11.5410  -15.1630  -24.2830 C.3   600  NAG600      0.0964
      9  N2       -11.3990  -15.0690  -21.8570 N.am  600  NAG600     -0.2019
     10  O3       -14.2620  -15.2980  -21.3800 O.3   600  NAG600     -0.2184
     11  O4       -14.9780  -14.8980  -18.6060 O.3   600  NAG600     -0.2176
     12  O5       -11.5940  -16.3120  -18.3850 O.3   600  NAG600     -0.3489
     13  O6       -12.4960  -15.6970  -15.5400 O.3   600  NAG600     -0.2176
     14  O7       -10.3580  -16.7430  -22.9410 O.2   600  NAG600     -0.2733
@<TRIPOS>BOND
     1     8     7    1
     2     7    14    2
     3     7     9   am
     4     9     2    1
     5    10     3    1
     6     2     3    1
     7     2     1    1
     8     3     4    1
     9     1    12    1
    10     4    11    1
    11     4     5    1
    12    12     5    1
    13     5     6    1
    14     6    13    1
