@<TRIPOS>MOLECULE
1hcx_TPT_A_1.pdb
 19 23 0 0 0
SMALL
GASTEIGER

@<TRIPOS>ATOM
      1 PT1        17.5910   51.3060   39.8710 Pt    1319  TPT1319     0.0000
      2  N1        17.2990   49.1350   40.0790 N.pl3 1319  TPT1319     0.0000
      3  N2        18.9180   50.6850   38.7000 N.pl3 1319  TPT1319     0.0000
      4  N3        18.1410   53.1970   38.9600 N.pl3 1319  TPT1319     0.0000
      5  C1        16.3720   48.4310   40.8470 C.3   1319  TPT1319     0.0000
      6  C2        16.4720   47.0350   40.9480 C.2   1319  TPT1319     0.0000
      7  C3        17.5180   46.3750   40.2620 C.2   1319  TPT1319     0.0000
      8  C4        18.4540   47.0850   39.4870 C.2   1319  TPT1319     0.0000
      9  C5        18.3380   48.4890   39.3970 C.2   1319  TPT1319     0.0000
     10  C6        19.2070   49.3260   38.6570 C.3   1319  TPT1319     0.0000
     11  C7        20.3090   48.8770   37.9050 C.2   1319  TPT1319     0.0000
     12  C8        21.0880   49.8330   37.2210 C.2   1319  TPT1319     0.0000
     13  C9        20.7820   51.2090   37.2770 C.2   1319  TPT1319     0.0000
     14  C10       19.6730   51.6330   38.0340 C.2   1319  TPT1319     0.0000
     15  C11       19.2570   52.9660   38.1750 C.3   1319  TPT1319     0.0000
     16  C12       19.8930   54.0680   37.5770 C.2   1319  TPT1319     0.0000
     17  C13       19.3690   55.3610   37.8000 C.2   1319  TPT1319     0.0000
     18  C14       18.2350   55.5650   38.6010 C.2   1319  TPT1319     0.0000
     19  C15       17.6210   54.4630   39.1840 C.2   1319  TPT1319     0.0000
@<TRIPOS>BOND
     1    12    13    1
     2    12    11    2
     3    13    14    2
     4    16    17    2
     5    16    15    1
     6    17    18    1
     7    11    10    1
     8    14    15    1
     9    14     3    1
    10    15     4    1
    11    18    19    2
    12    10     3    1
    13    10     9    1
    14     3     1    1
    15     4    19    1
    16     4     1    1
    17     9     8    2
    18     9     2    1
    19     8     7    1
    20     1     2    1
    21     2     5    1
    22     7     6    2
    23     5     6    1
