@<TRIPOS>MOLECULE
1hcz_HEM_A_1.pdb
 43 50 0 0 0
SMALL
GASTEIGER

@<TRIPOS>ATOM
      1 FE         88.6440   81.9400   -5.9560 Fe    253  HEM253      0.0000
      2  CHA       88.1430   84.2010   -8.4670 C.2   253  HEM253      0.0000
      3  CHB       85.3530   81.8360   -5.3450 C.2   253  HEM253      0.0000
      4  CHC       89.1610   79.1820   -3.9880 C.2   253  HEM253      0.0000
      5  CHD       91.9890   82.4330   -6.1080 C.2   253  HEM253      0.0000
      6  NA        87.0220   82.8560   -6.7630 N.2   253  HEM253      0.0000
      7  C1A       86.9990   83.7100   -7.8340 C.2   253  HEM253      0.0000
      8  C2A       85.6240   84.0170   -8.1670 C.2   253  HEM253      0.0000
      9  C3A       84.8330   83.4270   -7.2650 C.2   253  HEM253      0.0000
     10  C4A       85.7140   82.6320   -6.4130 C.2   253  HEM253      0.0000
     11  CMA       83.2700   83.4600   -7.1470 C.3   253  HEM253      0.0000
     12  CAA       85.2790   85.0700   -9.2300 C.3   253  HEM253      0.0000
     13  CBA       85.2790   86.5040   -8.6320 C.3   253  HEM253      0.0000
     14  CGA       84.8550   87.6060   -9.5610 C.2   253  HEM253      0.0000
     15  O1A       84.2700   88.6040   -9.0910 O.co2 253  HEM253      0.0000
     16  O2A       85.0240   87.3730  -10.7730 O.co2 253  HEM253      0.0000
     17  NB        87.5060   80.7330   -4.9000 N.ar  253  HEM253      0.0000
     18  C1B       86.1600   80.9480   -4.6460 C.ar  253  HEM253      0.0000
     19  C2B       85.7100   80.0320   -3.6200 C.ar  253  HEM253      0.0000
     20  C3B       86.7710   79.3020   -3.2540 C.ar  253  HEM253      0.0000
     21  C4B       87.8880   79.6820   -4.0890 C.ar  253  HEM253      0.0000
     22  CMB       84.2410   79.9870   -3.0870 C.3   253  HEM253      0.0000
     23  CAB       86.8410   78.1800   -2.2200 C.2   253  HEM253      0.0000
     24  CBB       86.0670   77.0840   -2.4220 C.2   253  HEM253      0.0000
     25  NC        90.2620   80.9830   -5.1880 N.2   253  HEM253      0.0000
     26  C1C       90.2700   79.8200   -4.4740 C.2   253  HEM253      0.0000
     27  C2C       91.6310   79.4250   -4.2100 C.2   253  HEM253      0.0000
     28  C3C       92.4350   80.3240   -4.7930 C.2   253  HEM253      0.0000
     29  C4C       91.5820   81.3140   -5.4170 C.2   253  HEM253      0.0000
     30  CMC       91.9530   78.1440   -3.3890 C.3   253  HEM253      0.0000
     31  CAC       93.9800   80.3710   -4.8070 C.2   253  HEM253      0.0000
     32  CBC       94.6730   79.2810   -5.1860 C.2   253  HEM253      0.0000
     33  ND        89.8310   83.1010   -7.0660 N.ar  253  HEM253      0.0000
     34  C1D       91.2030   83.1950   -6.9540 C.ar  253  HEM253      0.0000
     35  C2D       91.6820   84.2200   -7.8570 C.ar  253  HEM253      0.0000
     36  C3D       90.6320   84.7040   -8.5070 C.ar  253  HEM253      0.0000
     37  C4D       89.4520   83.9870   -8.0620 C.ar  253  HEM253      0.0000
     38  CMD       93.1720   84.6080   -7.9910 C.3   253  HEM253      0.0000
     39  CAD       90.6280   85.7710   -9.6010 C.3   253  HEM253      0.0000
     40  CBD       90.9550   85.2300  -10.9830 C.3   253  HEM253      0.0000
     41  CGD       91.0680   86.3190  -12.0030 C.2   253  HEM253      0.0000
     42  O1D       92.2140   86.6340  -12.3720 O.co2 253  HEM253      0.0000
     43  O2D       90.0390   86.9820  -12.2540 O.co2 253  HEM253      0.0000
@<TRIPOS>BOND
     1    42    41   ar
     2    43    41   ar
     3    41    40    1
     4    40    39    1
     5    16    14   ar
     6    39    36    1
     7    14    15   ar
     8    14    13    1
     9    12    13    1
    10    12     8    1
    11    36    37   ar
    12    36    35   ar
    13     2    37    2
    14     2     7    1
    15     8     7    1
    16     8     9    2
    17    37    33   ar
    18    38    35    1
    19    35    34   ar
    20     7     6    2
    21     9    11    1
    22     9    10    1
    23    33    34   ar
    24    33     1    1
    25    34     5    2
    26     6    10    1
    27     6     1    1
    28    10     3    2
    29     5    29    1
    30     1    25    1
    31     1    17    1
    32    29    25    2
    33    29    28    1
    34     3    18    1
    35    25    26    1
    36    32    31    2
    37    17    18   ar
    38    17    21   ar
    39    31    28    1
    40    28    27    2
    41    18    19   ar
    42    26    27    1
    43    26     4    2
    44    27    30    1
    45    21     4    1
    46    21    20   ar
    47    19    20   ar
    48    19    22    1
    49    20    23    1
    50    24    23    2
