@<TRIPOS>MOLECULE
1hd4_NAG_A_1.pdb
 27 27 0 0 0
SMALL
GASTEIGER

@<TRIPOS>ATOM
      1  C1        12.9300    0.0660    2.0630 C.3   178  NAG178      0.1078
      2  C2        14.3930   -0.2030    2.3900 C.3   178  NAG178      0.0802
      3  C3        14.6580   -1.7010    2.4460 C.3   178  NAG178      0.1076
      4  C4        13.6580   -2.3790    3.3690 C.3   178  NAG178      0.1493
      5  C5        12.2360   -2.0080    2.9700 C.3   178  NAG178      0.1137
      6  C6        11.1840   -2.5850    3.8980 C.3   178  NAG178      0.0730
      7  C7        16.0480    1.3890    1.6480 C.2   178  NAG178      0.2103
      8  C8        16.8350    1.9990    0.4990 C.3   178  NAG178      0.0122
      9  N2        15.2120    0.3980    1.3550 N.am  178  NAG178     -0.3075
     10  O3        15.9740   -1.9270    2.9360 O.3   178  NAG178     -0.3871
     11  O4        13.8150   -3.8080    3.2820 O.3   178  NAG178     -0.2256
     12  O5        12.0650   -0.5930    2.9910 O.3   178  NAG178     -0.3638
     13  O6         9.8950   -2.0650    3.6010 O.3   178  NAG178     -0.3924
     14  O7        16.2050    1.8150    2.7920 O.2   178  NAG178     -0.2761
     15  H1        12.6840   -0.3140    1.0540 H     178  NAG178      0.0642
     16  H2        14.6310    0.2620    3.3600 H     178  NAG178      0.0551
     17  H3        14.5740   -2.1100    1.4260 H     178  NAG178      0.0641
     18  H4        13.8610   -2.0510    4.4020 H     178  NAG178      0.0682
     19  H5        12.0380   -2.3730    1.9520 H     178  NAG178      0.0647
     20  H61       11.1770   -3.6780    3.7890 H     178  NAG178      0.0584
     21  H62       11.4530   -2.3470    4.9350 H     178  NAG178      0.0584
     22  H81       16.2940    1.8630   -0.4490 H     178  NAG178      0.0322
     23  H82       16.9810    3.0760    0.6660 H     178  NAG178      0.0322
     24  H83       17.8200    1.5210    0.4130 H     178  NAG178      0.0322
     25  HN2       15.1360    0.0920    0.4280 H     178  NAG178      0.1491
     26  HO3       16.6070   -1.5020    2.3520 H     178  NAG178      0.2100
     27  HO6        9.9120   -1.1080    3.6820 H     178  NAG178      0.2095
@<TRIPOS>BOND
     1    22     8    1
     2    24     8    1
     3    25     9    1
     4     8    23    1
     5     8     7    1
     6    15     1    1
     7     9     7   am
     8     9     2    1
     9    17     3    1
    10     7    14    2
    11    19     5    1
    12     1     2    1
    13     1    12    1
    14    26    10    1
    15     2     3    1
    16     2    16    1
    17     3    10    1
    18     3     4    1
    19     5    12    1
    20     5     4    1
    21     5     6    1
    22    11     4    1
    23     4    18    1
    24    13    27    1
    25    13     6    1
    26    20     6    1
    27     6    21    1
