@<TRIPOS>MOLECULE
1hda_HEM_A_1.pdb
 43 50 0 0 0
SMALL
GASTEIGER

@<TRIPOS>ATOM
      1 FE         25.2880   51.6540    5.3980 Fe    143  HEM143      0.0000
      2  CHA       25.2440   53.1800    2.3080 C.2   143  HEM143      0.0000
      3  CHB       27.9470   53.6820    6.3020 C.2   143  HEM143      0.0000
      4  CHC       25.8750   49.7540    8.1930 C.2   143  HEM143      0.0000
      5  CHD       23.5160   49.0150    4.0590 C.2   143  HEM143      0.0000
      6  NA        26.3690   53.1210    4.4880 N.2   143  HEM143      0.0000
      7  C1A       26.1950   53.6140    3.2090 C.2   143  HEM143      0.0000
      8  C2A       27.1510   54.6810    2.9770 C.2   143  HEM143      0.0000
      9  C3A       27.8820   54.8360    4.0740 C.2   143  HEM143      0.0000
     10  C4A       27.4110   53.8530    5.0330 C.2   143  HEM143      0.0000
     11  CMA       29.0520   55.8080    4.3440 C.3   143  HEM143      0.0000
     12  CAA       27.2470   55.4540    1.6410 C.3   143  HEM143      0.0000
     13  CBA       26.4450   56.7310    1.4580 C.3   143  HEM143      0.0000
     14  CGA       26.6110   57.3660    0.0970 C.2   143  HEM143      0.0000
     15  O1A       26.1160   56.8140   -0.9140 O.co2 143  HEM143      0.0000
     16  O2A       27.2890   58.4030    0.0430 O.co2 143  HEM143      0.0000
     17  NB        26.6960   51.6620    6.8830 N.ar  143  HEM143      0.0000
     18  C1B       27.6320   52.6410    7.1500 C.ar  143  HEM143      0.0000
     19  C2B       28.2190   52.4210    8.4600 C.ar  143  HEM143      0.0000
     20  C3B       27.6430   51.3360    8.9670 C.ar  143  HEM143      0.0000
     21  C4B       26.6890   50.8530    8.0000 C.ar  143  HEM143      0.0000
     22  CMB       29.3210   53.3300    9.0520 C.3   143  HEM143      0.0000
     23  CAB       27.8400   50.6100   10.3160 C.2   143  HEM143      0.0000
     24  CBB       28.9800   50.7170   10.9760 C.2   143  HEM143      0.0000
     25  NC        24.7980   49.7790    6.0050 N.2   143  HEM143      0.0000
     26  C1C       25.0860   49.1810    7.2180 C.2   143  HEM143      0.0000
     27  C2C       24.5050   47.8550    7.3010 C.2   143  HEM143      0.0000
     28  C3C       23.8720   47.6420    6.1440 C.2   143  HEM143      0.0000
     29  C4C       24.0400   48.8350    5.3210 C.2   143  HEM143      0.0000
     30  CMC       24.6740   46.9360    8.5240 C.3   143  HEM143      0.0000
     31  CAC       23.0690   46.4210    5.6760 C.2   143  HEM143      0.0000
     32  CBC       23.4360   45.2110    6.1020 C.2   143  HEM143      0.0000
     33  ND        24.5600   51.1640    3.5580 N.ar  143  HEM143      0.0000
     34  C1D       23.7720   50.0880    3.2320 C.ar  143  HEM143      0.0000
     35  C2D       23.2460   50.2360    1.8840 C.ar  143  HEM143      0.0000
     36  C3D       23.7140   51.3930    1.4170 C.ar  143  HEM143      0.0000
     37  C4D       24.5560   51.9870    2.4420 C.ar  143  HEM143      0.0000
     38  CMD       22.3240   49.1970    1.2060 C.3   143  HEM143      0.0000
     39  CAD       23.5310   52.0310    0.0120 C.3   143  HEM143      0.0000
     40  CBD       24.4670   51.4140   -1.0460 C.3   143  HEM143      0.0000
     41  CGD       24.1480   51.6490   -2.4970 C.2   143  HEM143      0.0000
     42  O1D       24.8790   52.4690   -3.1160 O.co2 143  HEM143      0.0000
     43  O2D       23.1800   51.0150   -3.0200 O.co2 143  HEM143      0.0000
@<TRIPOS>BOND
     1    42    41   ar
     2    43    41   ar
     3    41    40    1
     4    40    39    1
     5    15    14   ar
     6    39    36    1
     7    16    14   ar
     8    14    13    1
     9    38    35    1
    10    36    35   ar
    11    36    37   ar
    12    13    12    1
    13    12     8    1
    14    35    34   ar
    15     2    37    2
    16     2     7    1
    17    37    33   ar
    18     8     7    1
    19     8     9    2
    20     7     6    2
    21    34    33   ar
    22    34     5    2
    23    33     1    1
    24     5    29    1
    25     9    11    1
    26     9    10    1
    27     6    10    1
    28     6     1    1
    29    10     3    2
    30    29    25    2
    31    29    28    1
    32     1    25    1
    33     1    17    1
    34    31    32    2
    35    31    28    1
    36    25    26    1
    37    28    27    2
    38     3    18    1
    39    17    18   ar
    40    17    21   ar
    41    18    19   ar
    42    26    27    1
    43    26     4    2
    44    27    30    1
    45    21     4    1
    46    21    20   ar
    47    19    20   ar
    48    19    22    1
    49    20    23    1
    50    23    24    2
