@<TRIPOS>MOLECULE
1hdb_HEM_A_1.pdb
 43 50 0 0 0
SMALL
GASTEIGER

@<TRIPOS>ATOM
      1 FE         18.6650   18.4710   23.8720 Fe    142  HEM142      0.0000
      2  CHA       19.0510   18.6430   20.4650 C.2   142  HEM142      0.0000
      3  CHB       21.3200   20.7330   24.1880 C.2   142  HEM142      0.0000
      4  CHC       18.7900   17.8840   27.2050 C.2   142  HEM142      0.0000
      5  CHD       16.8900   15.4830   23.4790 C.2   142  HEM142      0.0000
      6  NA        19.9640   19.4450   22.5960 N.2   142  HEM142      0.0000
      7  C1A       19.8990   19.3980   21.2030 C.2   142  HEM142      0.0000
      8  C2A       20.9150   20.2910   20.6620 C.2   142  HEM142      0.0000
      9  C3A       21.5470   20.8750   21.6680 C.2   142  HEM142      0.0000
     10  C4A       20.9350   20.3700   22.9160 C.2   142  HEM142      0.0000
     11  CMA       22.7310   21.8780   21.6220 C.3   142  HEM142      0.0000
     12  CAA       21.1200   20.4590   19.1450 C.3   142  HEM142      0.0000
     13  CBA       20.6380   21.8110   18.6540 C.3   142  HEM142      0.0000
     14  CGA       20.6860   22.0720   17.1640 C.2   142  HEM142      0.0000
     15  O1A       21.1500   21.2370   16.3640 O.co2 142  HEM142      0.0000
     16  O2A       20.1400   23.1880   16.8640 O.co2 142  HEM142      0.0000
     17  NB        19.8500   19.0670   25.3800 N.ar  142  HEM142      0.0000
     18  C1B       20.8130   20.0810   25.3240 C.ar  142  HEM142      0.0000
     19  C2B       21.3500   20.3110   26.6430 C.ar  142  HEM142      0.0000
     20  C3B       20.6620   19.5460   27.4960 C.ar  142  HEM142      0.0000
     21  C4B       19.7370   18.7520   26.6910 C.ar  142  HEM142      0.0000
     22  CMB       22.4640   21.3520   26.9810 C.3   142  HEM142      0.0000
     23  CAB       20.7860   19.4490   29.0160 C.2   142  HEM142      0.0000
     24  CBB       21.8330   19.3410   29.8220 C.2   142  HEM142      0.0000
     25  NC        17.9100   16.9910   25.0920 N.2   142  HEM142      0.0000
     26  C1C       18.0720   16.9520   26.4780 C.2   142  HEM142      0.0000
     27  C2C       17.5150   15.7390   26.9860 C.2   142  HEM142      0.0000
     28  C3C       17.0570   15.0400   25.9310 C.2   142  HEM142      0.0000
     29  C4C       17.2710   15.8410   24.7420 C.2   142  HEM142      0.0000
     30  CMC       17.4600   15.3660   28.4770 C.3   142  HEM142      0.0000
     31  CAC       16.2730   13.6910   25.9250 C.2   142  HEM142      0.0000
     32  CBC       16.2330   12.8210   26.8880 C.2   142  HEM142      0.0000
     33  ND        18.1210   17.2850   22.3410 N.ar  142  HEM142      0.0000
     34  C1D       17.3580   16.1410   22.3750 C.ar  142  HEM142      0.0000
     35  C2D       16.9610   15.7900   21.0350 C.ar  142  HEM142      0.0000
     36  C3D       17.5800   16.6470   20.2020 C.ar  142  HEM142      0.0000
     37  C4D       18.3080   17.5900   21.0020 C.ar  142  HEM142      0.0000
     38  CMD       16.1570   14.5240   20.6430 C.3   142  HEM142      0.0000
     39  CAD       17.6310   16.6000   18.6410 C.3   142  HEM142      0.0000
     40  CBD       18.5720   15.4580   18.1940 C.3   142  HEM142      0.0000
     41  CGD       18.7860   15.3880   16.6780 C.2   142  HEM142      0.0000
     42  O1D       19.9000   15.8160   16.3210 O.co2 142  HEM142      0.0000
     43  O2D       17.8230   14.9940   15.9420 O.co2 142  HEM142      0.0000
@<TRIPOS>BOND
     1    43    41   ar
     2    42    41   ar
     3    15    14   ar
     4    41    40    1
     5    16    14   ar
     6    14    13    1
     7    40    39    1
     8    39    36    1
     9    13    12    1
    10    12     8    1
    11    36    37   ar
    12    36    35   ar
    13     2    37    2
    14     2     7    1
    15    38    35    1
    16     8     7    1
    17     8     9    2
    18    37    33   ar
    19    35    34   ar
    20     7     6    2
    21    11     9    1
    22     9    10    1
    23    33    34   ar
    24    33     1    1
    25    34     5    2
    26     6    10    1
    27     6     1    1
    28    10     3    2
    29     5    29    1
    30     1    25    1
    31     1    17    1
    32     3    18    1
    33    29    25    2
    34    29    28    1
    35    25    26    1
    36    18    17   ar
    37    18    19   ar
    38    17    21   ar
    39    31    28    1
    40    31    32    2
    41    28    27    2
    42    26    27    1
    43    26     4    2
    44    19    22    1
    45    19    20   ar
    46    21     4    1
    47    21    20   ar
    48    27    30    1
    49    20    23    1
    50    23    24    2
