@<TRIPOS>MOLECULE
1hdc_CBO_A_1.pdb
 41 45 0 0 0
SMALL
GASTEIGER

@<TRIPOS>ATOM
      1  C1        -1.2190    2.1820  -22.6680 C.3   301  CBO301      0.0041
      2  C2        -2.4900    2.4550  -21.8410 C.3   301  CBO301      0.0436
      3  C3        -2.8170    1.2420  -20.9210 C.3   301  CBO301      0.1686
      4  C4        -1.6570    0.7600  -19.9990 C.3   301  CBO301      0.0369
      5  C5        -0.3420    0.6140  -20.8990 C.3   301  CBO301      0.0038
      6  C6         0.9640    0.1930  -20.0800 C.3   301  CBO301      0.0001
      7  C7         1.9900   -0.4490  -20.9730 C.3   301  CBO301      0.0007
      8  C8         2.3930    0.4880  -22.2640 C.3   301  CBO301      0.0100
      9  C9         1.0980    1.2140  -22.8930 C.3   301  CBO301      0.0622
     10  C10       -0.0390    1.8250  -21.9050 C.3   301  CBO301      0.0071
     11  C11        1.5200    2.0400  -24.1030 C.2   301  CBO301      0.1721
     12  C12        2.5800    1.5560  -24.8960 C.2   301  CBO301      0.0289
     13  C13        3.2940    0.4460  -24.6310 C.2   301  CBO301     -0.0423
     14  C14        2.9760   -0.4340  -23.4450 C.3   301  CBO301      0.0156
     15  C15        4.2750   -1.2210  -22.8650 C.3   301  CBO301      0.0038
     16  C16        5.0430   -1.8480  -24.0080 C.3   301  CBO301      0.0006
     17  C17        5.5350   -0.7690  -25.0600 C.3   301  CBO301      0.0035
     18  C18        4.3060    0.0400  -25.6780 C.3   301  CBO301      0.0189
     19  C19        0.6100    3.2090  -21.2560 C.3   301  CBO301      0.0004
     20  C20        3.4990   -0.6410  -26.8520 C.3   301  CBO301      0.0147
     21  C21        4.4540   -1.1230  -27.9370 C.3   301  CBO301      0.0941
     22  C22        5.4090   -2.1510  -27.2490 C.3   301  CBO301      0.0107
     23  C23        6.3090   -1.4810  -26.2210 C.3   301  CBO301      0.0008
     24  C24       -1.3750    1.7240  -18.7540 C.3   301  CBO301      0.0036
     25  C25       -1.9940   -0.6020  -19.4270 C.3   301  CBO301      0.0036
     26  C26        3.5060    1.6590  -21.8600 C.3   301  CBO301      0.0007
     27  C27        1.9900   -1.5060  -24.0050 C.3   301  CBO301      0.0041
     28  C28        6.5270    0.1740  -24.3450 C.3   301  CBO301      0.0003
     29  C29       -5.2150    1.5760  -20.2780 C.2   301  CBO301      0.3174
     30  C30       -6.0060    2.2300  -19.1760 C.3   301  CBO301      0.1213
     31  C31       -5.6890    3.7360  -18.8580 C.3   301  CBO301      0.1257
     32  C32       -5.4250    4.6260  -20.0700 C.2   301  CBO301      0.3654
     33  C33        5.3260    0.0960  -28.5190 C.2   301  CBO301      0.3638
     34  C34        3.6020   -1.7320  -29.0700 C.3   301  CBO301      0.0113
     35  O3        -3.8750    1.6540  -20.0090 O.3   301  CBO301     -0.4523
     36  O11        1.0440    3.1480  -24.4260 O.2   301  CBO301     -0.2914
     37  O29       -5.7080    1.0570  -21.2520 O.2   301  CBO301     -0.2501
     38  O32       -6.0230    4.2630  -21.1640 O.co2 301  CBO301     -0.2456
     39  O33       -4.6610    5.6800  -20.0210 O.co2 301  CBO301     -0.2456
     40  O34        6.4560   -0.1520  -29.0360 O.co2 301  CBO301     -0.2457
     41  O35        4.9700    1.4250  -28.4470 O.co2 301  CBO301     -0.2457
@<TRIPOS>BOND
     1    34    21    1
     2    40    33   ar
     3    33    41   ar
     4    33    21    1
     5    21    22    1
     6    21    20    1
     7    22    23    1
     8    20    18    1
     9    23    17    1
    10    18    17    1
    11    18    13    1
    12    17    28    1
    13    17    16    1
    14    12    13    2
    15    12    11    1
    16    13    14    1
    17    36    11    2
    18    11     9    1
    19    16    15    1
    20    27    14    1
    21    14    15    1
    22    14     8    1
    23     9     8    1
    24     9    10    1
    25     1    10    1
    26     1     2    1
    27     8    26    1
    28     8     7    1
    29    10    19    1
    30    10     5    1
    31     2     3    1
    32    37    29    2
    33    38    32   ar
    34     7     6    1
    35     3    35    1
    36     3     4    1
    37     5     6    1
    38     5     4    1
    39    29    35    1
    40    29    30    1
    41    32    39   ar
    42    32    31    1
    43     4    25    1
    44     4    24    1
    45    30    31    1
