@<TRIPOS>MOLECULE
1hdg_NAD_O_1.pdb
 44 48 0 0 0
SMALL
GASTEIGER

@<TRIPOS>ATOM
      1  PA        27.6490   50.8040  140.8340 P.3   336  NAD336      0.2189
      2  O1A       27.2510   49.5970  141.5690 O.3   336  NAD336     -0.4371
      3  O2A       28.6400   50.8260  139.7570 O.2   336  NAD336     -0.5170
      4  O5B       28.4160   51.7240  141.8630 O.3   336  NAD336     -0.3112
      5  C5B       28.0690   51.7160  143.2590 C.3   336  NAD336      0.1813
      6  C4B       29.4050   51.9790  143.9440 C.3   336  NAD336      0.1821
      7  O4B       29.2630   52.4130  145.3010 O.3   336  NAD336     -0.3135
      8  C3B       30.2610   50.7370  143.9740 C.3   336  NAD336      0.2184
      9  O3B       31.5590   51.1080  143.5690 O.3   336  NAD336     -0.2174
     10  C2B       30.1920   50.2420  145.4140 C.3   336  NAD336      0.2570
     11  O2B       31.4520   49.6190  145.7460 O.3   336  NAD336     -0.2130
     12  C1B       29.9670   51.5340  146.1930 C.3   336  NAD336      0.3186
     13  N9A       29.2500   51.3790  147.4780 N.pl3 336  NAD336     -0.1439
     14  C8A       28.2650   50.5140  147.7430 C.3   336  NAD336      0.3377
     15  N7A       28.0010   50.5330  149.0530 N.2   336  NAD336     -0.2095
     16  C5A       28.8080   51.4610  149.5780 C.2   336  NAD336      0.2526
     17  C6A       28.7880   51.9630  150.8920 C.2   336  NAD336      0.4393
     18  N6A       27.9920   51.5350  151.8660 N.pl3 336  NAD336      0.2180
     19  N1A       29.5940   52.9960  151.1310 N.2   336  NAD336      0.0021
     20  C2A       30.3440   53.5430  150.1840 C.3   336  NAD336      0.5254
     21  N3A       30.3440   53.0780  148.9400 N.2   336  NAD336     -0.0055
     22  C4A       29.5840   52.0200  148.5990 C.2   336  NAD336      0.3518
     23  O3        26.3620   51.6310  140.3960 O.3   336  NAD336     -0.2703
     24  PN        26.0770   52.9160  139.4590 P.3   336  NAD336      0.2189
     25  O1N       25.4540   52.4680  138.1730 O.2   336  NAD336     -0.5170
     26  O2N       27.2170   53.8380  139.4060 O.3   336  NAD336     -0.4371
     27  O5D       24.9180   53.6540  140.2660 O.3   336  NAD336     -0.3112
     28  C5D       25.0750   54.3760  141.4930 C.3   336  NAD336      0.1813
     29  C4D       23.7720   55.1170  141.7810 C.3   336  NAD336      0.1799
     30  O4D       23.5220   56.0200  140.6780 O.3   336  NAD336     -0.3327
     31  C3D       22.5050   54.2610  141.8740 C.3   336  NAD336      0.2158
     32  O3D       21.5620   54.8580  142.7870 O.3   336  NAD336     -0.2175
     33  C2D       21.8830   54.3130  140.4770 C.3   336  NAD336      0.2309
     34  O2D       20.4540   54.0330  140.4580 O.3   336  NAD336     -0.2158
     35  C1D       22.2480   55.7290  140.0540 C.3   336  NAD336      0.2263
     36  N1N       22.3080   55.9290  138.5810 N.pl3 336  NAD336     -0.2787
     37  C2N       22.8280   54.9780  137.6770 C.3   336  NAD336      0.1244
     38  C3N       22.8550   55.3050  136.3220 C.2   336  NAD336      0.0544
     39  C7N       23.4890   54.3920  135.2870 C.2   336  NAD336      0.2818
     40  O7N       23.1040   54.4790  134.1110 O.2   336  NAD336     -0.2670
     41  N7N       24.3380   53.4850  135.7720 N.am  336  NAD336     -0.0839
     42  C4N       22.3200   56.5070  135.8370 C.2   336  NAD336      0.0033
     43  C5N       21.7870   57.4230  136.7150 C.2   336  NAD336      0.0157
     44  C6N       21.8140   57.1470  138.0810 C.2   336  NAD336      0.0633
@<TRIPOS>BOND
     1    40    39    2
     2    39    41   am
     3    39    38    1
     4    42    38    2
     5    42    43    1
     6    38    37    1
     7    43    44    2
     8    37    36    1
     9    44    36    1
    10    25    24    2
    11    36    35    1
    12    26    24    1
    13    24    27    1
    14    24    23    1
    15     3     1    2
    16    35    33    1
    17    35    30    1
    18    27    28    1
    19    23     1    1
    20    34    33    1
    21    33    31    1
    22    30    29    1
    23     1     2    1
    24     1     4    1
    25    28    29    1
    26    29    31    1
    27     4     5    1
    28    31    32    1
    29     5     6    1
    30     9     8    1
    31     6     8    1
    32     6     7    1
    33     8    10    1
    34     7    12    1
    35    10    11    1
    36    10    12    1
    37    12    13    1
    38    13    14    1
    39    13    22    1
    40    14    15    1
    41    22    21    2
    42    22    16    1
    43    21    20    1
    44    15    16    2
    45    16    17    1
    46    20    19    1
    47    17    19    2
    48    17    18    1
