@<TRIPOS>MOLECULE
1hdi_3PG_A_1.pdb
 11 10 0 0 0
SMALL
GASTEIGER

@<TRIPOS>ATOM
      1  C1        34.6050   29.1130   24.7990 C.2   419  3PG419      0.3972
      2  O1        34.2480   29.3400   26.0330 O.co2 419  3PG419     -0.2427
      3  O2        34.0510   28.1510   24.0950 O.co2 419  3PG419     -0.2427
      4  C2        35.7680   30.0290   24.0800 C.3   419  3PG419      0.2838
      5  O3        36.2430   31.1290   24.9500 O.3   419  3PG419     -0.2081
      6  C3        35.2300   30.4900   22.7360 C.3   419  3PG419      0.1983
      7  O1P       34.6850   31.8100   22.7870 O.3   419  3PG419     -0.2669
      8  P         33.6430   32.1310   21.6020 P.3   419  3PG419      0.5327
      9  O2P       34.3910   32.4560   20.3420 O.2   419  3PG419     -0.2224
     10  O3P       32.7800   33.2640   22.0000 O.3   419  3PG419     -0.1145
     11  O4P       32.8100   30.9110   21.3460 O.3   419  3PG419     -0.1145
@<TRIPOS>BOND
     1     9     8    2
     2    11     8    1
     3     8    10    1
     4     8     7    1
     5     6     7    1
     6     6     4    1
     7     4     1    1
     8     4     5    1
     9     3     1   ar
    10     1     2   ar
