@<TRIPOS>MOLECULE
1hdi_AMP_A_1.pdb
 23 25 0 0 0
SMALL
GASTEIGER

@<TRIPOS>ATOM
      1  P         23.5310   19.7210   22.8390 P.3   417  AMP417      0.5327
      2  O1P       24.9290   19.4790   23.2890 O.3   417  AMP417     -0.1145
      3  O2P       23.1230   18.9810   21.6110 O.2   417  AMP417     -0.2224
      4  O3P       23.3780   21.1820   22.6750 O.3   417  AMP417     -0.1145
      5  O5'       22.6240   19.2620   24.0710 O.3   417  AMP417     -0.2675
      6  C5'       23.2240   19.2540   25.3590 C.3   417  AMP417      0.1860
      7  C4'       22.1570   18.8260   26.3280 C.3   417  AMP417      0.1823
      8  O4'       21.1560   17.9340   25.9090 O.3   417  AMP417     -0.3135
      9  C3'       22.0850   19.1570   27.8000 C.3   417  AMP417      0.2184
     10  O3'       21.4620   20.4670   27.9350 O.3   417  AMP417     -0.2174
     11  C2'       21.1060   18.0840   28.3010 C.3   417  AMP417      0.2570
     12  O2'       20.2340   18.6150   29.2970 O.3   417  AMP417     -0.2130
     13  C1'       20.3400   17.6720   27.0260 C.3   417  AMP417      0.3186
     14  N9        19.8550   16.2620   27.1140 N.pl3 417  AMP417     -0.1439
     15  C8        20.5800   15.1650   27.3480 C.3   417  AMP417      0.3377
     16  N7        19.7350   14.0910   27.2580 N.2   417  AMP417     -0.2095
     17  C5        18.5220   14.5830   26.9460 C.2   417  AMP417      0.2526
     18  C6        17.2860   13.9750   26.7300 C.2   417  AMP417      0.4393
     19  N6        17.0810   12.5220   26.9170 N.pl3 417  AMP417      0.2180
     20  N1        16.2230   14.7510   26.4100 N.2   417  AMP417      0.0021
     21  C2        16.3420   16.1070   26.3150 C.3   417  AMP417      0.5254
     22  N3        17.5350   16.6980   26.5410 N.2   417  AMP417     -0.0055
     23  C4        18.6150   15.9290   26.8570 C.2   417  AMP417      0.3518
@<TRIPOS>BOND
     1     3     1    2
     2     4     1    1
     3     1     2    1
     4     1     5    1
     5     5     6    1
     6     6     7    1
     7     8     7    1
     8     8    13    1
     9    21    20    1
    10    21    22    1
    11     7     9    1
    12    20    18    2
    13    22    23    2
    14    18    19    1
    15    18    17    1
    16    23    17    1
    17    23    14    1
    18    17    16    2
    19    13    14    1
    20    13    11    1
    21    14    15    1
    22    16    15    1
    23     9    10    1
    24     9    11    1
    25    11    12    1
