@<TRIPOS>MOLECULE
1hdo_NAP_A_1.pdb
 48 52 0 0 0
SMALL
GASTEIGER

@<TRIPOS>ATOM
      1  PA        24.8670   -4.9480    7.0710 P.3   500  NAP500      0.2189
      2  O1A       24.9860   -6.2150    7.6720 O.3   500  NAP500     -0.4371
      3  O2A       25.0000   -4.6410    5.5970 O.2   500  NAP500     -0.5170
      4  O5B       25.9180   -3.9640    7.7650 O.3   500  NAP500     -0.3112
      5  C5B       26.2890   -4.2110    9.1370 C.3   500  NAP500      0.1813
      6  C4B       26.9590   -2.8610    9.5310 C.3   500  NAP500      0.1820
      7  O4B       27.4280   -3.0770   10.9280 O.3   500  NAP500     -0.3136
      8  C3B       28.2900   -2.6050    8.7710 C.3   500  NAP500      0.2157
      9  O3B       28.4240   -1.1880    8.7330 O.3   500  NAP500     -0.2175
     10  C2B       29.3380   -3.2260    9.6730 C.3   500  NAP500      0.2314
     11  O2B       30.6380   -2.6790    9.5230 O.3   500  NAP500     -0.2630
     12  C1B       28.7910   -2.7630   11.0470 C.3   500  NAP500      0.3158
     13  N9A       29.4330   -3.5340   12.0810 N.pl3 500  NAP500     -0.1439
     14  C8A       29.4030   -4.8800   12.3450 C.3   500  NAP500      0.3377
     15  N7A       30.1890   -5.2490   13.3380 N.2   500  NAP500     -0.2095
     16  C5A       30.6930   -4.0390   13.8030 C.2   500  NAP500      0.2526
     17  C6A       31.5820   -3.7980   14.8420 C.2   500  NAP500      0.4393
     18  N6A       32.1280   -4.7050   15.6770 N.pl3 500  NAP500      0.2180
     19  N1A       31.9220   -2.4760   15.0670 N.2   500  NAP500      0.0021
     20  C2A       31.4010   -1.4630   14.2720 C.3   500  NAP500      0.5254
     21  N3A       30.5480   -1.6730   13.2200 N.2   500  NAP500     -0.0055
     22  C4A       30.2160   -2.9820   13.0300 C.2   500  NAP500      0.3518
     23  O3        23.5000   -4.2940    7.4940 O.3   500  NAP500     -0.2703
     24  PN        22.1060   -4.1990    6.7640 P.3   500  NAP500      0.2189
     25  O1N       22.0120   -5.2240    5.7090 O.2   500  NAP500     -0.5170
     26  O2N       21.9020   -2.7850    6.3930 O.3   500  NAP500     -0.4371
     27  O5D       21.1140   -4.6480    7.9100 O.3   500  NAP500     -0.3112
     28  C5D       20.7860   -3.7130    8.9870 C.3   500  NAP500      0.1813
     29  C4D       20.1250   -4.5180   10.0750 C.3   500  NAP500      0.1799
     30  O4D       18.8570   -4.9880    9.5860 O.3   500  NAP500     -0.3327
     31  C3D       20.9050   -5.8050   10.4880 C.3   500  NAP500      0.2158
     32  O3D       20.8660   -5.9760   11.9120 O.3   500  NAP500     -0.2175
     33  C2D       20.1330   -6.9130    9.7870 C.3   500  NAP500      0.2309
     34  O2D       20.2160   -8.1440   10.4760 O.3   500  NAP500     -0.2158
     35  C1D       18.7450   -6.4040    9.8830 C.3   500  NAP500      0.2263
     36  N1N       17.8360   -6.8670    8.8280 N.pl3 500  NAP500     -0.2787
     37  C2N       18.2660   -7.3150    7.5750 C.3   500  NAP500      0.1244
     38  C3N       17.3110   -7.7300    6.6750 C.2   500  NAP500      0.0544
     39  C7N       17.7530   -8.1830    5.2970 C.2   500  NAP500      0.2818
     40  O7N       16.8720   -8.3260    4.4870 O.2   500  NAP500     -0.2670
     41  N7N       19.0140   -8.2050    4.9730 N.am  500  NAP500     -0.0839
     42  C4N       15.8990   -7.6810    6.9730 C.2   500  NAP500      0.0033
     43  C5N       15.5240   -7.1490    8.2180 C.2   500  NAP500      0.0157
     44  C6N       16.4820   -6.8170    9.1940 C.2   500  NAP500      0.0633
     45  P2B       31.6690   -3.1500    8.3530 P.3   500  NAP500      0.5328
     46  O1X       31.2970   -2.3600    7.0920 O.2   500  NAP500     -0.2224
     47  O2X       32.9620   -2.6970    8.9510 O.3   500  NAP500     -0.1145
     48  O3X       31.4880   -4.6410    8.1640 O.3   500  NAP500     -0.1145
@<TRIPOS>BOND
     1    40    39    2
     2    41    39   am
     3    39    38    1
     4     3     1    2
     5    25    24    2
     6    26    24    1
     7    38    42    2
     8    38    37    1
     9    24    23    1
    10    24    27    1
    11    42    43    1
    12     1    23    1
    13     1     2    1
    14     1     4    1
    15    46    45    2
    16    37    36    1
    17     4     5    1
    18    27    28    1
    19    48    45    1
    20    43    44    2
    21    45    47    1
    22    45    11    1
    23     9     8    1
    24     8     6    1
    25     8    10    1
    26    36    44    1
    27    36    35    1
    28    28    29    1
    29     5     6    1
    30    11    10    1
    31     6     7    1
    32    30    35    1
    33    30    29    1
    34    10    12    1
    35    33    35    1
    36    33    34    1
    37    33    31    1
    38    29    31    1
    39    31    32    1
    40     7    12    1
    41    12    13    1
    42    13    14    1
    43    13    22    1
    44    14    15    1
    45    22    21    2
    46    22    16    1
    47    21    20    1
    48    15    16    2
    49    16    17    1
    50    20    19    1
    51    17    19    2
    52    17    18    1
