@<TRIPOS>MOLECULE
1hdq_INF_A_1.pdb
 16 16 0 0 0
SMALL
GASTEIGER

@<TRIPOS>ATOM
      1  N         -2.1330   30.7500   -6.0920 N.am  1308  INF1308    -0.2052
      2  CA        -1.2390   31.8850   -6.3600 C.3   1308  INF1308     0.2012
      3  C          0.1820   31.3410   -6.6460 C.2   1308  INF1308     0.3845
      4  O          1.1610   32.0170   -6.6550 O.co2 1308  INF1308    -0.2437
      5  CB        -1.7560   32.7370   -7.5670 C.3   1308  INF1308     0.0596
      6  CG        -2.0310   31.9920   -8.8700 C.ar  1308  INF1308    -0.0199
      7  CD1       -1.0350   31.9510   -9.8930 C.ar  1308  INF1308    -0.0042
      8  CD2       -3.2670   31.3260   -9.1020 C.ar  1308  INF1308    -0.0042
      9  CE1       -1.2660   31.2640  -11.1080 C.ar  1308  INF1308    -0.0003
     10  CE2       -3.5010   30.6360  -10.3200 C.ar  1308  INF1308    -0.0003
     11  CZ        -2.5000   30.6030  -11.3240 C.ar  1308  INF1308    -0.0000
     12  OXT        0.2080   30.0210   -6.9010 O.co2 1308  INF1308    -0.2437
     13  C1        -2.7510   30.5360   -4.9140 C.2   1308  INF1308     0.1840
     14  N2        -3.5200   29.4380   -4.9230 N.am  1308  INF1308    -0.1823
     15  O1        -2.6390   31.2580   -3.9310 O.2   1308  INF1308    -0.5240
     16  O2        -3.6170   28.6530   -6.0850 O.3   1308  INF1308    -0.4013
@<TRIPOS>BOND
     1    11     9   ar
     2    11    10   ar
     3     9     7   ar
     4    10     8   ar
     5     7     6   ar
     6     8     6   ar
     7     6     5    1
     8     5     2    1
     9    12     3   ar
    10     4     3   ar
    11     3     2    1
    12     2     1    1
    13     1    13   am
    14    16    14    1
    15    14    13   am
    16    13    15    2
