@<TRIPOS>MOLECULE
1hdr_NAD_A_1.pdb
 44 48 0 0 0
SMALL
GASTEIGER

@<TRIPOS>ATOM
      1  PA        29.2140   45.2490   34.5220 P.3   244  NAD244      0.2189
      2  O1A       30.0960   44.3880   33.7060 O.2   244  NAD244     -0.5170
      3  O2A       29.7990   45.3110   35.8780 O.3   244  NAD244     -0.4371
      4  O5B       27.7040   44.6480   34.5880 O.3   244  NAD244     -0.3112
      5  C5B       27.1330   44.1840   33.3500 C.3   244  NAD244      0.1813
      6  C4B       26.2560   42.9430   33.6000 C.3   244  NAD244      0.1821
      7  O4B       25.2850   42.8120   32.5530 O.3   244  NAD244     -0.3135
      8  C3B       27.1100   41.6770   33.5770 C.3   244  NAD244      0.2184
      9  O3B       26.7510   40.8880   34.7060 O.3   244  NAD244     -0.2174
     10  C2B       26.7260   40.9530   32.2840 C.3   244  NAD244      0.2570
     11  O2B       26.6840   39.5310   32.4970 O.3   244  NAD244     -0.2130
     12  C1B       25.3170   41.4770   32.0060 C.3   244  NAD244      0.3186
     13  N9A       24.9500   41.5530   30.6520 N.pl3 244  NAD244     -0.1439
     14  C8A       25.9490   41.3430   29.6720 C.3   244  NAD244      0.3377
     15  N7A       25.4480   40.4220   28.7240 N.2   244  NAD244     -0.2095
     16  C5A       24.2070   40.0970   29.1940 C.2   244  NAD244      0.2526
     17  C6A       23.3190   39.2570   28.6130 C.2   244  NAD244      0.4393
     18  N6A       23.6070   38.6420   27.4150 N.pl3 244  NAD244      0.2180
     19  N1A       22.1050   39.0260   29.2060 N.2   244  NAD244      0.0021
     20  C2A       21.8260   39.7050   30.3990 C.3   244  NAD244      0.5254
     21  N3A       22.7460   40.5920   30.9570 N.2   244  NAD244     -0.0055
     22  C4A       23.9240   40.7310   30.2910 C.2   244  NAD244      0.3518
     23  O3        29.1610   46.7140   33.8430 O.3   244  NAD244     -0.2703
     24  PN        28.9920   47.9720   34.8620 P.3   244  NAD244      0.2189
     25  O1N       30.3040   48.2940   35.4720 O.2   244  NAD244     -0.5170
     26  O2N       28.0080   47.6520   35.9160 O.3   244  NAD244     -0.4371
     27  O5D       28.5050   49.2520   33.9810 O.3   244  NAD244     -0.3112
     28  C5D       27.1250   49.2310   33.5700 C.3   244  NAD244      0.1813
     29  C4D       26.9540   49.9540   32.2280 C.3   244  NAD244      0.1799
     30  O4D       27.6200   51.2480   32.2270 O.3   244  NAD244     -0.3327
     31  C3D       27.5700   49.1040   31.1100 C.3   244  NAD244      0.2158
     32  O3D       26.6690   49.1410   29.9950 O.3   244  NAD244     -0.2175
     33  C2D       28.8640   49.8300   30.7530 C.3   244  NAD244      0.2309
     34  O2D       29.1820   49.6620   29.3570 O.3   244  NAD244     -0.2158
     35  C1D       28.5110   51.3030   31.0690 C.3   244  NAD244      0.2263
     36  N1N       29.6320   52.0740   31.3680 N.pl3 244  NAD244     -0.2787
     37  C2N       30.4770   51.5900   32.3250 C.3   244  NAD244      0.1244
     38  C3N       31.7900   51.9790   32.3360 C.2   244  NAD244      0.0544
     39  C7N       32.6540   51.4210   33.2630 C.2   244  NAD244      0.2818
     40  O7N       32.2260   50.3640   34.0490 O.2   244  NAD244     -0.2670
     41  N7N       33.9340   51.8900   33.4070 N.am  244  NAD244     -0.0839
     42  C4N       32.2300   52.8800   31.3910 C.2   244  NAD244      0.0033
     43  C5N       31.3740   53.3430   30.4220 C.2   244  NAD244      0.0157
     44  C6N       30.0610   52.9290   30.3940 C.2   244  NAD244      0.0633
@<TRIPOS>BOND
     1    18    17    1
     2    17    16    1
     3    17    19    2
     4    15    16    2
     5    15    14    1
     6    16    22    1
     7    19    20    1
     8    34    33    1
     9    14    13    1
    10    32    31    1
    11    22    13    1
    12    22    21    2
    13    44    43    2
    14    44    36    1
    15    20    21    1
    16    43    42    1
    17    13    12    1
    18    33    35    1
    19    33    31    1
    20    35    36    1
    21    35    30    1
    22    31    29    1
    23    36    37    1
    24    42    38    2
    25    12    10    1
    26    12     7    1
    27    30    29    1
    28    29    28    1
    29    10    11    1
    30    10     8    1
    31    37    38    1
    32    38    39    1
    33     7     6    1
    34    39    41   am
    35    39    40    2
    36     5     6    1
    37     5     4    1
    38    28    27    1
    39     8     6    1
    40     8     9    1
    41     2     1    2
    42    23     1    1
    43    23    24    1
    44    27    24    1
    45     1     4    1
    46     1     3    1
    47    24    25    2
    48    24    26    1
