@<TRIPOS>MOLECULE
1hds_HEM_A_1.pdb
 43 50 0 0 0
SMALL
GASTEIGER

@<TRIPOS>ATOM
      1 FE         44.6690   -5.5740   16.1350 Fe    142  HEM142      0.0000
      2  CHA       47.0100   -7.8440   15.7950 C.2   142  HEM142      0.0000
      3  CHB       47.0420   -3.0530   16.1980 C.2   142  HEM142      0.0000
      4  CHC       42.4540   -3.2220   15.9310 C.2   142  HEM142      0.0000
      5  CHD       42.3670   -7.9660   16.7650 C.2   142  HEM142      0.0000
      6  NA        46.6070   -5.3600   15.9080 N.ar  142  HEM142      0.0000
      7  C1A       47.3780   -6.4420   15.9030 C.ar  142  HEM142      0.0000
      8  C2A       48.8970   -6.3670   16.2080 C.ar  142  HEM142      0.0000
      9  C3A       48.7670   -4.7830   16.2280 C.ar  142  HEM142      0.0000
     10  C4A       47.2800   -4.6740   16.0510 C.ar  142  HEM142      0.0000
     11  CMA       49.9730   -3.5210   16.4060 C.3   142  HEM142      0.0000
     12  CAA       49.8500   -7.6820   16.1860 C.3   142  HEM142      0.0000
     13  CBA       51.0790   -7.0550   15.1120 C.3   142  HEM142      0.0000
     14  CGA       52.3500   -7.6630   15.7420 C.2   142  HEM142      0.0000
     15  O1A       52.7410   -8.7540   16.8040 O.co2 142  HEM142      0.0000
     16  O2A       53.0810   -7.1930   14.6690 O.co2 142  HEM142      0.0000
     17  NB        44.6750   -3.6940   16.0950 N.2   142  HEM142      0.0000
     18  C1B       45.5630   -2.3260   16.0930 C.2   142  HEM142      0.0000
     19  C2B       45.5200   -1.3580   15.8340 C.2   142  HEM142      0.0000
     20  C3B       43.9130   -1.1360   15.7480 C.2   142  HEM142      0.0000
     21  C4B       43.3140   -2.7650   15.8220 C.2   142  HEM142      0.0000
     22  CMB       46.2860    0.0840   15.6190 C.3   142  HEM142      0.0000
     23  CAB       42.6870   -0.4880   15.6580 C.3   142  HEM142      0.0000
     24  CBB       43.0500    0.5670   16.3770 C.3   142  HEM142      0.0000
     25  NC        42.7100   -5.6930   16.1850 N.ar  142  HEM142      0.0000
     26  C1C       41.6860   -4.6510   16.2930 C.ar  142  HEM142      0.0000
     27  C2C       40.3880   -5.0300   16.6450 C.ar  142  HEM142      0.0000
     28  C3C       40.3120   -6.5090   17.0340 C.ar  142  HEM142      0.0000
     29  C4C       41.7040   -6.7010   16.5770 C.ar  142  HEM142      0.0000
     30  CMC       39.0330   -4.0960   16.7200 C.3   142  HEM142      0.0000
     31  CAC       39.2270   -7.1590   17.5060 C.1   142  HEM142      0.0000
     32  CBC       38.3430   -7.3410   17.7730 C.1   142  HEM142      0.0000
     33  ND        44.5600   -7.4370   16.0930 N.2   142  HEM142      0.0000
     34  C1D       43.6880   -8.3370   16.6720 C.2   142  HEM142      0.0000
     35  C2D       44.3270   -9.9340   17.1120 C.2   142  HEM142      0.0000
     36  C3D       45.2100   -9.9020   16.8220 C.2   142  HEM142      0.0000
     37  C4D       45.2600   -8.4810   16.1330 C.2   142  HEM142      0.0000
     38  CMD       43.1430  -10.6160   17.5330 C.3   142  HEM142      0.0000
     39  CAD       46.2350  -10.5920   17.0140 C.3   142  HEM142      0.0000
     40  CBD       47.7500  -11.1800   17.6440 C.3   142  HEM142      0.0000
     41  CGD       48.0860  -13.1880   17.0680 C.2   142  HEM142      0.0000
     42  O1D       49.4810  -13.4390   16.5370 O.co2 142  HEM142      0.0000
     43  O2D       47.1100  -13.8300   17.2130 O.co2 142  HEM142      0.0000
@<TRIPOS>BOND
     1    16    14   ar
     2    13    14    1
     3    13    12    1
     4    22    19    1
     5    23    20    1
     6    23    24    1
     7    14    15   ar
     8    20    21    1
     9    20    19    2
    10     2     7    2
    11     2    37    1
    12    21     4    2
    13    21    17    1
    14    19    18    1
    15     7     6   ar
    16     7     8   ar
    17     6    10   ar
    18     6     1    1
    19     4    26    1
    20    10     3    2
    21    10     9   ar
    22    33    37    2
    23    33     1    1
    24    33    34    1
    25    18    17    2
    26    18     3    1
    27    17     1    1
    28    37    34    1
    29    37    36    1
    30     1    25    1
    31    25    26   ar
    32    25    29   ar
    33    12     8    1
    34     8     9   ar
    35     9    11    1
    36    26    27   ar
    37    42    41   ar
    38    29     5    1
    39    29    28   ar
    40    27    30    1
    41    27    28   ar
    42    34     5    2
    43    34    35    1
    44    36    39    1
    45    36    35    2
    46    39    40    1
    47    28    31    1
    48    41    43   ar
    49    35    38    1
    50    31    32    3
