@<TRIPOS>MOLECULE
1hdt_0E7_H_1.pdb
 40 41 0 0 0
SMALL
GASTEIGER

@<TRIPOS>ATOM
      1  C         14.5380   38.0800    6.2290 C.2     1  0E71        0.2419
      2  O         13.5820   38.8710    6.0680 O.2     1  0E71       -0.2733
      3  CA        15.3060   38.0060    7.5550 C.3     1  0E71        0.0905
      4  CB        14.4600   37.9850    8.8120 C.3     1  0E71        0.0565
      5  CD        13.5690   36.7840    8.9630 C.3     1  0E71        0.2209
      6  NE        12.3770   36.9620    8.1500 N.pl3   1  0E71       -0.0865
      7  CZ        11.1390   36.9780    8.5920 C.cat   1  0E71        0.5346
      8  NH1       10.8400   36.8070    9.8790 N.pl3   1  0E71        0.1354
      9  NH2       10.1950   37.2230    7.7240 N.pl3   1  0E71        0.1354
     10  N         14.9380   37.1840    5.3260 N.am    1  0E71       -0.1974
     11  CA1       14.3710   36.9670    3.9880 C.3     1  0E71        0.1770
     12  C1        12.8700   36.5940    4.0290 C.2     1  0E71        0.2620
     13  O1        12.3910   36.0070    5.0170 O.2     1  0E71       -0.2715
     14  CB1       15.1580   35.8030    3.3620 C.3     1  0E71        0.0574
     15  CG        14.9330   35.6220    1.8990 C.ar    1  0E71       -0.0200
     16  CD1       15.6840   36.3790    0.9680 C.ar    1  0E71       -0.0042
     17  CD2       13.9330   34.7240    1.4200 C.ar    1  0E71       -0.0042
     18  CE1       15.4420   36.2550   -0.4280 C.ar    1  0E71       -0.0003
     19  CE2       13.6770   34.5930    0.0230 C.ar    1  0E71       -0.0003
     20  CZ1       14.4290   35.3630   -0.8980 C.ar    1  0E71       -0.0000
     21  N1        12.1180   36.9680    2.9910 N.am    1  0E71       -0.1937
     22  CA2       10.6920   36.6120    2.9150 C.3     1  0E71        0.2028
     23  CB2        9.7180   37.8380    3.0200 C.3     1  0E71        0.1808
     24  CG2        9.9170   38.6150    4.3390 C.3     1  0E71        0.0379
     25  OG1        8.3550   37.3790    2.9840 O.3     1  0E71       -0.2208
     26  C2        10.3760   35.7570    1.6820 C.2     1  0E71        0.2643
     27  O2        10.9360   35.9630    0.6120 O.2     1  0E71       -0.2714
     28  N2         9.5290   34.7500    1.8890 N.am    1  0E71       -0.1939
     29  CA3        9.0700   33.8230    0.8650 C.3     1  0E71        0.1978
     30  C3         7.5750   34.0580    0.7040 C.2     1  0E71        0.3374
     31  CB3        9.2660   32.3760    1.3190 C.3     1  0E71        0.0594
     32  CG1       10.6410   31.8170    1.0730 C.ar    1  0E71       -0.0199
     33 CD11       11.0530   31.4530   -0.2470 C.ar    1  0E71       -0.0042
     34 CD21       11.5250   31.5940    2.1650 C.ar    1  0E71       -0.0042
     35 CE11       12.3440   30.8610   -0.4770 C.ar    1  0E71       -0.0003
     36 CE21       12.8180   31.0050    1.9640 C.ar    1  0E71       -0.0003
     37  CZ2       13.2300   30.6370    0.6350 C.ar    1  0E71       -0.0000
     38  O3         7.0380   33.9540   -0.4080 O.2     1  0E71       -0.2482
     39  CM         5.3170   34.4640    1.6880 C.3     1  0E71        0.2557
     40  OXT        6.6830   34.3200    1.8360 O.3     1  0E71       -0.4432
@<TRIPOS>BOND
     1    20    18   ar
     2    20    19   ar
     3    35    33   ar
     4    35    37   ar
     5    18    16   ar
     6    38    30    2
     7    33    32   ar
     8    19    17   ar
     9    27    26    2
    10    37    36   ar
    11    30    29    1
    12    30    40    1
    13    29    31    1
    14    29    28    1
    15    16    15   ar
    16    32    31    1
    17    32    34   ar
    18    17    15   ar
    19    26    28   am
    20    26    22    1
    21    39    40    1
    22    15    14    1
    23    36    34   ar
    24    22    21    1
    25    22    23    1
    26    25    23    1
    27    21    12   am
    28    23    24    1
    29    14    11    1
    30    11    12    1
    31    11    10    1
    32    12    13    2
    33    10     1   am
    34     2     1    2
    35     1     3    1
    36     3     4    1
    37     9     7    1
    38     6     7    2
    39     6     5    1
    40     7     8    1
    41     4     5    1
