@<TRIPOS>MOLECULE
1hdx_NAD_A_1.pdb
 44 48 0 0 0
SMALL
GASTEIGER

@<TRIPOS>ATOM
      1  PA        -8.8470   13.2460  -27.7570 P.3   377  NAD377      0.2189
      2  O1A       -9.6950   12.1800  -27.1550 O.2   377  NAD377     -0.5170
      3  O2A       -9.2680   14.5080  -27.0760 O.3   377  NAD377     -0.4371
      4  O5B       -9.1200   13.3510  -29.3400 O.3   377  NAD377     -0.3112
      5  C5B      -10.3110   12.7780  -29.9520 C.3   377  NAD377      0.1813
      6  C4B      -10.9190   13.9500  -30.6590 C.3   377  NAD377      0.1821
      7  O4B      -11.4140   13.4410  -31.8860 O.3   377  NAD377     -0.3135
      8  C3B      -12.0790   14.6080  -29.8870 C.3   377  NAD377      0.2184
      9  O3B      -12.2440   15.9480  -30.2880 O.3   377  NAD377     -0.2174
     10  C2B      -13.2680   13.8540  -30.4610 C.3   377  NAD377      0.2570
     11  O2B      -14.4250   14.7090  -30.4390 O.3   377  NAD377     -0.2130
     12  C1B      -12.8000   13.6680  -31.9100 C.3   377  NAD377      0.3186
     13  N9A      -13.4760   12.5400  -32.5330 N.pl3 377  NAD377     -0.1439
     14  C8A      -14.0170   11.4550  -31.9680 C.3   377  NAD377      0.3377
     15  N7A      -14.6940   10.6920  -32.8240 N.2   377  NAD377     -0.2095
     16  C5A      -14.5490   11.3290  -33.9690 C.2   377  NAD377      0.2526
     17  C6A      -14.9850   10.9960  -35.2490 C.2   377  NAD377      0.4393
     18  N6A      -15.7200    9.8970  -35.5380 N.pl3 377  NAD377      0.2180
     19  N1A      -14.6240   11.8210  -36.2180 N.2   377  NAD377      0.0021
     20  C2A      -13.8820   12.9120  -35.9900 C.3   377  NAD377      0.5254
     21  N3A      -13.4600   13.2480  -34.7710 N.2   377  NAD377     -0.0055
     22  C4A      -13.8050   12.4470  -33.7850 C.2   377  NAD377      0.3518
     23  O3        -7.3540   13.0760  -27.3820 O.3   377  NAD377     -0.2703
     24  PN        -5.9760   12.9940  -27.9880 P.3   377  NAD377      0.2189
     25  O1N       -5.0340   12.5180  -26.9510 O.3   377  NAD377     -0.4371
     26  O2N       -5.4190   14.2630  -28.5340 O.2   377  NAD377     -0.5170
     27  O5D       -6.0490   11.8810  -29.1440 O.3   377  NAD377     -0.3112
     28  C5D       -4.8510   11.5660  -29.8820 C.3   377  NAD377      0.1813
     29  C4D       -4.9940   10.1850  -30.3780 C.3   377  NAD377      0.1799
     30  O4D       -3.6740    9.8170  -30.7180 O.3   377  NAD377     -0.3327
     31  C3D       -5.4280    9.1610  -29.4140 C.3   377  NAD377      0.2158
     32  O3D       -5.9470    8.1130  -30.2180 O.3   377  NAD377     -0.2175
     33  C2D       -4.1200    8.7040  -28.7070 C.3   377  NAD377      0.2309
     34  O2D       -4.4250    7.3350  -28.3640 O.3   377  NAD377     -0.2158
     35  C1D       -3.1470    8.8070  -29.8740 C.3   377  NAD377      0.2263
     36  N1N       -1.7730    9.2460  -29.5690 N.pl3 377  NAD377     -0.2787
     37  C2N       -0.8080    8.8040  -30.3570 C.3   377  NAD377      0.1244
     38  C3N        0.4610    9.1030  -30.0820 C.2   377  NAD377      0.0544
     39  C7N        1.4590    8.6500  -30.8460 C.2   377  NAD377      0.2818
     40  O7N        2.6280    8.8240  -30.4840 O.2   377  NAD377     -0.2670
     41  N7N        1.2520    8.0910  -32.0410 N.am  377  NAD377     -0.0839
     42  C4N        0.7730    9.8590  -29.0160 C.2   377  NAD377      0.0033
     43  C5N       -0.1770   10.3310  -28.2120 C.2   377  NAD377      0.0157
     44  C6N       -1.4870   10.0000  -28.5100 C.2   377  NAD377      0.0633
@<TRIPOS>BOND
     1    19    20    1
     2    19    17    2
     3    20    21    1
     4    18    17    1
     5    17    16    1
     6    21    22    2
     7    16    22    1
     8    16    15    2
     9    22    13    1
    10    15    14    1
    11    13    14    1
    12    13    12    1
    13    41    39   am
    14    12     7    1
    15    12    10    1
    16     7     6    1
    17    39    40    2
    18    39    38    1
    19    30    29    1
    20    30    35    1
    21     6     5    1
    22     6     8    1
    23    10    11    1
    24    10     8    1
    25    29    28    1
    26    29    31    1
    27    37    38    1
    28    37    36    1
    29     9     8    1
    30    32    31    1
    31    38    42    2
    32     5     4    1
    33    28    27    1
    34    35    36    1
    35    35    33    1
    36    36    44    1
    37    31    33    1
    38     4     1    1
    39    27    24    1
    40    42    43    1
    41    33    34    1
    42    26    24    2
    43    44    43    2
    44    24    23    1
    45    24    25    1
    46     1    23    1
    47     1     2    2
    48     1     3    1
