@<TRIPOS>MOLECULE
1hdy_NAD_A_1.pdb
 44 48 0 0 0
SMALL
GASTEIGER

@<TRIPOS>ATOM
      1  PA        -8.5300   13.3740  -27.5220 P.3   377  NAD377      0.2189
      2  O1A       -9.6500   12.5060  -27.0170 O.2   377  NAD377     -0.5170
      3  O2A       -8.6120   14.6470  -26.7680 O.3   377  NAD377     -0.4371
      4  O5B       -8.8410   13.5460  -29.0890 O.3   377  NAD377     -0.3112
      5  C5B       -9.8040   12.7390  -29.8320 C.3   377  NAD377      0.1813
      6  C4B      -10.6300   13.6850  -30.6320 C.3   377  NAD377      0.1821
      7  O4B      -11.1740   12.9010  -31.6730 O.3   377  NAD377     -0.3135
      8  C3B      -11.7960   14.3580  -29.8660 C.3   377  NAD377      0.2184
      9  O3B      -11.9770   15.6790  -30.3290 O.3   377  NAD377     -0.2174
     10  C2B      -12.9710   13.6060  -30.4350 C.3   377  NAD377      0.2570
     11  O2B      -14.1100   14.4720  -30.4810 O.3   377  NAD377     -0.2130
     12  C1B      -12.4950   13.3610  -31.8640 C.3   377  NAD377      0.3186
     13  N9A      -13.2870   12.3230  -32.5020 N.pl3 377  NAD377     -0.1439
     14  C8A      -13.6800   11.1670  -31.9940 C.3   377  NAD377      0.3377
     15  N7A      -14.3900   10.4410  -32.8380 N.2   377  NAD377     -0.2095
     16  C5A      -14.4360   11.1750  -33.9120 C.2   377  NAD377      0.2526
     17  C6A      -14.9230   10.8510  -35.1700 C.2   377  NAD377      0.4393
     18  N6A      -15.5900    9.6880  -35.4260 N.pl3 377  NAD377      0.2180
     19  N1A      -14.6750   11.7380  -36.1340 N.2   377  NAD377      0.0021
     20  C2A      -13.9960   12.8730  -35.8970 C.3   377  NAD377      0.5254
     21  N3A      -13.5260   13.2010  -34.6890 N.2   377  NAD377     -0.0055
     22  C4A      -13.7650   12.3300  -33.7100 C.2   377  NAD377      0.3518
     23  O3        -7.1410   12.6480  -27.2540 O.3   377  NAD377     -0.2703
     24  PN        -5.6700   12.8560  -27.8210 P.3   377  NAD377      0.2189
     25  O1N       -4.6960   12.8880  -26.6990 O.3   377  NAD377     -0.4371
     26  O2N       -5.3970   14.0400  -28.7010 O.2   377  NAD377     -0.5170
     27  O5D       -5.3260   11.5180  -28.5770 O.3   377  NAD377     -0.3112
     28  C5D       -5.9740   11.1280  -29.8160 C.3   377  NAD377      0.1813
     29  C4D       -5.3170    9.8480  -30.2830 C.3   377  NAD377      0.1799
     30  O4D       -3.9140   10.0700  -30.4810 O.3   377  NAD377     -0.3327
     31  C3D       -5.4620    8.7640  -29.2340 C.3   377  NAD377      0.2158
     32  O3D       -5.7150    7.5150  -29.8760 O.3   377  NAD377     -0.2175
     33  C2D       -4.0300    8.7140  -28.6760 C.3   377  NAD377      0.2309
     34  O2D       -3.8370    7.3860  -28.1980 O.3   377  NAD377     -0.2158
     35  C1D       -3.2020    8.9670  -29.9470 C.3   377  NAD377      0.2263
     36  N1N       -1.8010    9.3200  -29.6400 N.pl3 377  NAD377     -0.2787
     37  C2N       -0.8450    8.8820  -30.4360 C.3   377  NAD377      0.1244
     38  C3N        0.4410    9.1170  -30.1560 C.2   377  NAD377      0.0544
     39  C7N        1.4310    8.6820  -30.9380 C.2   377  NAD377      0.2818
     40  O7N        2.5950    8.9560  -30.6190 O.2   377  NAD377     -0.2670
     41  N7N        1.2170    7.9170  -32.0120 N.am  377  NAD377     -0.0839
     42  C4N        0.7720    9.7900  -29.0640 C.2   377  NAD377      0.0033
     43  C5N       -0.1570   10.2580  -28.2370 C.2   377  NAD377      0.0157
     44  C6N       -1.4850    9.9940  -28.5530 C.2   377  NAD377      0.0633
@<TRIPOS>BOND
     1    19    20    1
     2    19    17    2
     3    20    21    1
     4    18    17    1
     5    17    16    1
     6    21    22    2
     7    16    22    1
     8    16    15    2
     9    22    13    1
    10    15    14    1
    11    13    14    1
    12    13    12    1
    13    41    39   am
    14    12     7    1
    15    12    10    1
    16     7     6    1
    17    39    40    2
    18    39    38    1
    19     6     8    1
    20     6     5    1
    21    30    29    1
    22    30    35    1
    23    11    10    1
    24    37    38    1
    25    37    36    1
    26    10     8    1
    27     9     8    1
    28    29    28    1
    29    29    31    1
    30    38    42    2
    31    35    36    1
    32    35    33    1
    33    32    31    1
    34     5     4    1
    35    28    27    1
    36    36    44    1
    37    31    33    1
    38     4     1    1
    39    42    43    1
    40    26    24    2
    41    33    34    1
    42    27    24    1
    43    44    43    2
    44    24    23    1
    45    24    25    1
    46     1    23    1
    47     1     2    2
    48     1     3    1
