@<TRIPOS>MOLECULE
1hdz_NAD_A_1.pdb
 44 48 0 0 0
SMALL
GASTEIGER

@<TRIPOS>ATOM
      1  PA        -8.3820   13.2140  -27.8820 P.3   377  NAD377      0.2189
      2  O1A       -9.4400   12.3640  -27.2590 O.2   377  NAD377     -0.5170
      3  O2A       -8.3490   14.4740  -27.1060 O.3   377  NAD377     -0.4371
      4  O5B       -8.8360   13.5050  -29.4010 O.3   377  NAD377     -0.3112
      5  C5B       -9.7970   12.6610  -30.1300 C.3   377  NAD377      0.1813
      6  C4B      -10.6300   13.6040  -30.9300 C.3   377  NAD377      0.1821
      7  O4B      -11.1290   12.9100  -32.0530 O.3   377  NAD377     -0.3135
      8  C3B      -11.8140   14.1030  -30.1260 C.3   377  NAD377      0.2184
      9  O3B      -11.9100   15.4900  -30.3030 O.3   377  NAD377     -0.2174
     10  C2B      -12.9800   13.4780  -30.7940 C.3   377  NAD377      0.2570
     11  O2B      -14.0400   14.4340  -30.7680 O.3   377  NAD377     -0.2130
     12  C1B      -12.4580   13.2970  -32.2210 C.3   377  NAD377      0.3186
     13  N9A      -13.2010   12.2450  -32.8770 N.pl3 377  NAD377     -0.1439
     14  C8A      -13.7760   11.2000  -32.2950 C.3   377  NAD377      0.3377
     15  N7A      -14.4770   10.4440  -33.1200 N.2   377  NAD377     -0.2095
     16  C5A      -14.3270   11.0570  -34.2580 C.2   377  NAD377      0.2526
     17  C6A      -14.9130   10.7490  -35.4650 C.2   377  NAD377      0.4393
     18  N6A      -15.6460    9.6220  -35.6240 N.pl3 377  NAD377      0.2180
     19  N1A      -14.6780   11.5840  -36.4540 N.2   377  NAD377      0.0021
     20  C2A      -13.8960   12.6780  -36.2850 C.3   377  NAD377      0.5254
     21  N3A      -13.3120   12.9900  -35.1280 N.2   377  NAD377     -0.0055
     22  C4A      -13.5510   12.1540  -34.1240 C.2   377  NAD377      0.3518
     23  O3        -7.0220   12.4480  -27.8930 O.3   377  NAD377     -0.2703
     24  PN        -5.5600   12.8850  -28.1490 P.3   377  NAD377      0.2189
     25  O1N       -4.7760   12.8670  -26.8920 O.3   377  NAD377     -0.4371
     26  O2N       -5.2910   14.1780  -28.8090 O.2   377  NAD377     -0.5170
     27  O5D       -4.8930   11.7570  -29.0290 O.3   377  NAD377     -0.3112
     28  C5D       -5.7160   11.0620  -30.0140 C.3   377  NAD377      0.1813
     29  C4D       -4.9730    9.8980  -30.5790 C.3   377  NAD377      0.1799
     30  O4D       -3.5490   10.0860  -30.7010 O.3   377  NAD377     -0.3327
     31  C3D       -5.1970    8.8070  -29.6140 C.3   377  NAD377      0.2158
     32  O3D       -5.5880    7.7240  -30.4170 O.3   377  NAD377     -0.2175
     33  C2D       -3.8080    8.6020  -29.0100 C.3   377  NAD377      0.2309
     34  O2D       -3.8180    7.2190  -28.6650 O.3   377  NAD377     -0.2158
     35  C1D       -2.9050    8.9250  -30.2110 C.3   377  NAD377      0.2263
     36  N1N       -1.5220    9.2890  -29.8790 N.pl3 377  NAD377     -0.2787
     37  C2N       -0.5840    8.7540  -30.6270 C.3   377  NAD377      0.1244
     38  C3N        0.7050    9.0200  -30.4080 C.2   377  NAD377      0.0544
     39  C7N        1.6480    8.4690  -31.1960 C.2   377  NAD377      0.2818
     40  O7N        2.8240    8.7680  -30.9700 O.2   377  NAD377     -0.2670
     41  N7N        1.3750    8.0600  -32.4580 N.am  377  NAD377     -0.0839
     42  C4N        1.0830    9.8530  -29.4070 C.2   377  NAD377      0.0033
     43  C5N        0.1570   10.4150  -28.6240 C.2   377  NAD377      0.0157
     44  C6N       -1.1930   10.1090  -28.8840 C.2   377  NAD377      0.0633
@<TRIPOS>BOND
     1    19    20    1
     2    19    17    2
     3    20    21    1
     4    18    17    1
     5    17    16    1
     6    21    22    2
     7    16    22    1
     8    16    15    2
     9    22    13    1
    10    15    14    1
    11    13    14    1
    12    13    12    1
    13    41    39   am
    14    12     7    1
    15    12    10    1
    16     7     6    1
    17    39    40    2
    18    39    38    1
    19     6     5    1
    20     6     8    1
    21    10    11    1
    22    10     8    1
    23    30    29    1
    24    30    35    1
    25    37    38    1
    26    37    36    1
    27    29    28    1
    28    29    31    1
    29    32    31    1
    30    38    42    2
    31     9     8    1
    32    35    36    1
    33    35    33    1
    34     5     4    1
    35    28    27    1
    36    36    44    1
    37    31    33    1
    38    42    43    1
    39     4     1    1
    40    27    24    1
    41    33    34    1
    42    44    43    2
    43    26    24    2
    44    24    23    1
    45    24    25    1
    46    23     1    1
    47     1     2    2
    48     1     3    1
