@<TRIPOS>MOLECULE
1he1_GDP_C_1.pdb
 28 30 0 0 0
SMALL
GASTEIGER

@<TRIPOS>ATOM
      1  PB        -0.9320   43.9400   14.6740 P.3   200  GDP200      0.5373
      2  O1B       -0.9050   45.2220   15.4120 O.3   200  GDP200     -0.1143
      3  O2B       -0.2190   42.8310   15.2650 O.3   200  GDP200     -0.1143
      4  O3B       -2.4000   43.4360   14.4610 O.2   200  GDP200     -0.2221
      5  O3A       -0.3760   44.2270   13.1650 O.3   200  GDP200     -0.2261
      6  PA         0.8870   43.4660   12.4700 P.3   200  GDP200      0.2231
      7  O1A        2.0670   43.5650   13.3140 O.3   200  GDP200     -0.4370
      8  O2A        0.4520   42.1720   11.9880 O.2   200  GDP200     -0.5169
      9  O5'        1.2350   44.4410   11.3210 O.3   200  GDP200     -0.3111
     10  C5'        0.3460   44.6190   10.2690 C.3   200  GDP200      0.1813
     11  C4'        1.0500   44.8720    8.9510 C.3   200  GDP200      0.1799
     12  O4'        1.5930   46.1910    8.7630 O.3   200  GDP200     -0.3326
     13  C3'        2.1730   43.8890    8.6350 C.3   200  GDP200      0.2158
     14  O3'        1.6190   42.8090    7.8680 O.3   200  GDP200     -0.2175
     15  C2'        3.1790   44.7540    7.8620 C.3   200  GDP200      0.2310
     16  O2'        3.0860   44.6290    6.4160 O.3   200  GDP200     -0.2158
     17  C1'        2.9090   46.1860    8.2520 C.3   200  GDP200      0.2293
     18  N9         3.8790   46.7910    9.1450 N.pl3 200  GDP200     -0.2354
     19  C8         4.0990   46.6190   10.4560 C.3   200  GDP200      0.2246
     20  N7         5.0570   47.3320   10.9600 N.2   200  GDP200     -0.2322
     21  C5         5.5250   48.0510    9.8900 C.2   200  GDP200      0.2182
     22  C6         6.5880   49.0360    9.7890 C.1   200  GDP200      0.2372
     23  O6         7.3470   49.4840   10.6500 O.2   200  GDP200     -0.2069
     24  N1         6.7200   49.5190    8.4790 N.2   200  GDP200     -0.2485
     25  C2         5.9550   49.1280    7.3890 C.1   200  GDP200      0.2531
     26  N2         6.2220   49.6840    6.2010 N.pl3 200  GDP200     -0.0226
     27  N3         4.9660   48.2120    7.4980 N.2   200  GDP200     -0.3074
     28  C4         4.8080   47.7190    8.7690 C.2   200  GDP200      0.2300
@<TRIPOS>BOND
     1    26    25    1
     2    16    15    1
     3    25    27    2
     4    25    24    2
     5    27    28    2
     6    15    17    1
     7    15    13    1
     8    14    13    1
     9    17    12    1
    10    17    18    1
    11    24    22    2
    12    13    11    1
    13    12    11    1
    14    28    18    1
    15    28    21    1
    16    11    10    1
    17    18    19    1
    18    22    21    1
    19    22    23    2
    20    21    20    2
    21    10     9    1
    22    19    20    1
    23     9     6    1
    24     8     6    2
    25     6     5    1
    26     6     7    1
    27     5     1    1
    28     4     1    2
    29     1     3    1
    30     1     2    1
