@<TRIPOS>MOLECULE
1he2_NAP_A_1.pdb
 48 52 0 0 0
SMALL
GASTEIGER

@<TRIPOS>ATOM
      1  PA        25.0140   -4.9630    7.1600 P.3   1206  NAP1206     0.2189
      2  O1A       25.1370   -6.2470    7.7830 O.3   1206  NAP1206    -0.4371
      3  O2A       25.1240   -4.7480    5.6800 O.2   1206  NAP1206    -0.5170
      4  O5B       26.0900   -3.9860    7.8390 O.3   1206  NAP1206    -0.3112
      5  C5B       26.4650   -4.2050    9.2110 C.3   1206  NAP1206     0.1813
      6  C4B       27.1470   -2.8960    9.6150 C.3   1206  NAP1206     0.1820
      7  O4B       27.5860   -3.1240   11.0010 O.3   1206  NAP1206    -0.3136
      8  C3B       28.4640   -2.5900    8.8550 C.3   1206  NAP1206     0.2157
      9  O3B       28.5950   -1.1810    8.8150 O.3   1206  NAP1206    -0.2175
     10  C2B       29.4910   -3.2130    9.7680 C.3   1206  NAP1206     0.2314
     11  O2B       30.8070   -2.6750    9.5790 O.3   1206  NAP1206    -0.2630
     12  C1B       28.9550   -2.7830   11.1390 C.3   1206  NAP1206     0.3158
     13  N9A       29.6250   -3.5510   12.1740 N.pl3 1206  NAP1206    -0.1439
     14  C8A       29.5840   -4.9080   12.4180 C.3   1206  NAP1206     0.3377
     15  N7A       30.3460   -5.2410   13.4590 N.2   1206  NAP1206    -0.2095
     16  C5A       30.8660   -4.0690   13.8930 C.2   1206  NAP1206     0.2526
     17  C6A       31.7750   -3.7930   14.9450 C.2   1206  NAP1206     0.4393
     18  N6A       32.2820   -4.7110   15.7570 N.pl3 1206  NAP1206     0.2180
     19  N1A       32.1220   -2.4350   15.1530 N.2   1206  NAP1206     0.0021
     20  C2A       31.6360   -1.4100   14.3420 C.3   1206  NAP1206     0.5254
     21  N3A       30.7350   -1.6470   13.3400 N.2   1206  NAP1206    -0.0055
     22  C4A       30.3980   -3.0010   13.1010 C.2   1206  NAP1206     0.3518
     23  O3        23.6080   -4.3810    7.5210 O.3   1206  NAP1206    -0.2703
     24  PN        22.2500   -4.2000    6.8150 P.3   1206  NAP1206     0.2189
     25  O1N       22.1480   -5.2340    5.7890 O.2   1206  NAP1206    -0.5170
     26  O2N       22.0030   -2.7850    6.4080 O.3   1206  NAP1206    -0.4371
     27  O5D       21.2620   -4.6610    7.9760 O.3   1206  NAP1206    -0.3112
     28  C5D       20.8940   -3.7420    9.0270 C.3   1206  NAP1206     0.1813
     29  C4D       20.2240   -4.5430   10.1280 C.3   1206  NAP1206     0.1799
     30  O4D       18.9790   -5.0190    9.5980 O.3   1206  NAP1206    -0.3327
     31  C3D       21.0230   -5.8200   10.5570 C.3   1206  NAP1206     0.2158
     32  O3D       20.9990   -6.0130   11.9790 O.3   1206  NAP1206    -0.2175
     33  C2D       20.2650   -6.9580    9.8630 C.3   1206  NAP1206     0.2309
     34  O2D       20.3250   -8.1770   10.5820 O.3   1206  NAP1206    -0.2158
     35  C1D       18.8470   -6.4380    9.9670 C.3   1206  NAP1206     0.2263
     36  N1N       17.9250   -6.8780    8.9210 N.pl3 1206  NAP1206    -0.2787
     37  C2N       18.3890   -7.3240    7.6070 C.3   1206  NAP1206     0.1244
     38  C3N       17.4140   -7.7630    6.7000 C.2   1206  NAP1206     0.0544
     39  C7N       17.8170   -8.2330    5.2850 C.2   1206  NAP1206     0.2818
     40  O7N       16.8740   -8.4080    4.5290 O.2   1206  NAP1206    -0.2670
     41  N7N       19.1110   -8.2400    5.0410 N.am  1206  NAP1206    -0.0839
     42  C4N       15.9730   -7.7030    7.0310 C.2   1206  NAP1206     0.0033
     43  C5N       15.5390   -7.2410    8.3160 C.2   1206  NAP1206     0.0157
     44  C6N       16.5450   -6.8470    9.2710 C.2   1206  NAP1206     0.0633
     45  P2B       31.8590   -3.1420    8.4550 P.3   1206  NAP1206     0.5328
     46  O1X       31.5440   -2.3910    7.1820 O.2   1206  NAP1206    -0.2224
     47  O2X       33.1520   -2.7220    9.0670 O.3   1206  NAP1206    -0.1145
     48  O3X       31.6810   -4.6430    8.2320 O.3   1206  NAP1206    -0.1145
@<TRIPOS>BOND
     1    40    39    2
     2    41    39   am
     3    39    38    1
     4     3     1    2
     5    25    24    2
     6    26    24    1
     7    38    42    2
     8    38    37    1
     9    24    23    1
    10    24    27    1
    11    42    43    1
    12     1    23    1
    13     1     2    1
    14     1     4    1
    15    46    45    2
    16    37    36    1
    17     4     5    1
    18    27    28    1
    19    48    45    1
    20    43    44    2
    21    45    47    1
    22    45    11    1
    23     9     8    1
    24     8     6    1
    25     8    10    1
    26    36    44    1
    27    36    35    1
    28    28    29    1
    29     5     6    1
    30    11    10    1
    31    30    35    1
    32    30    29    1
    33     6     7    1
    34    10    12    1
    35    33    35    1
    36    33    31    1
    37    33    34    1
    38    29    31    1
    39    31    32    1
    40     7    12    1
    41    12    13    1
    42    13    14    1
    43    13    22    1
    44    14    15    1
    45    22    21    2
    46    22    16    1
    47    21    20    1
    48    15    16    2
    49    16    17    1
    50    20    19    1
    51    17    19    2
    52    17    18    1
