@<TRIPOS>MOLECULE
1he2_BLA_A_1.pdb
 43 46 0 0 0
SMALL
GASTEIGER

@<TRIPOS>ATOM
      1  CHA       13.2280  -12.1120    3.5250 C.3   1207  BLA1207     0.1170
      2  NA        15.2700  -13.3570    3.0670 N.2   1207  BLA1207    -0.4104
      3  C1A       13.9400  -13.0910    2.8110 C.2   1207  BLA1207     0.1114
      4  C2A       13.4350  -13.9570    1.7290 C.2   1207  BLA1207     0.0024
      5  C3A       14.5000  -14.7220    1.3720 C.2   1207  BLA1207     0.0021
      6  C4A       15.6360  -14.3450    2.2060 C.2   1207  BLA1207     0.1114
      7  CMA       14.5470  -15.7910    0.3030 C.3   1207  BLA1207     0.0331
      8  CAA       12.0260  -13.9930    1.1350 C.3   1207  BLA1207     0.0402
      9  CBA       11.2620  -15.3230    1.4480 C.3   1207  BLA1207     0.1188
     10  CGA       12.1230  -16.5860    1.5410 C.2   1207  BLA1207     0.3652
     11  O1A       12.1030  -17.5350    0.7250 O.co2 1207  BLA1207    -0.2456
     12  O2A       12.7800  -16.7670    2.7420 O.co2 1207  BLA1207    -0.2456
     13  CHB       16.9290  -14.8930    2.1610 C.3   1207  BLA1207     0.1181
     14  NB        17.6220  -14.4520    4.4270 N.2   1207  BLA1207    -0.3375
     15  C1B       17.9160  -14.8550    3.1530 C.2   1207  BLA1207     0.1254
     16  C2B       19.3610  -15.2200    3.0160 C.2   1207  BLA1207     0.0128
     17  C3B       19.9170  -15.0130    4.2800 C.2   1207  BLA1207     0.0706
     18  C4B       18.8140  -14.5460    5.1000 C.1   1207  BLA1207     0.2000
     19  CMB       20.0610  -15.7120    1.7530 C.3   1207  BLA1207     0.0339
     20  OB        18.9070  -14.2530    6.2890 O.2   1207  BLA1207    -0.2096
     21  CAB       21.1940  -15.1620    4.8150 C.3   1207  BLA1207     0.0390
     22  CBB       22.4010  -14.9310    4.1540 C.3   1207  BLA1207     0.0058
     23  NC        17.7700  -11.4430    6.2830 N.2   1207  BLA1207    -0.3375
     24  C1C       19.1240  -11.4970    6.5980 C.1   1207  BLA1207     0.2000
     25  C2C       19.3680  -11.1750    7.9710 C.2   1207  BLA1207     0.0710
     26  C3C       18.1710  -10.9150    8.5120 C.2   1207  BLA1207     0.0125
     27  C4C       17.1190  -11.0900    7.4270 C.2   1207  BLA1207     0.1254
     28  CMC       20.7890  -11.1710    8.5420 C.3   1207  BLA1207     0.0445
     29  OC        20.0320  -11.7860    5.8060 O.2   1207  BLA1207    -0.2096
     30  CAC       17.9600  -10.5570    9.8700 C.3   1207  BLA1207     0.0291
     31  CBC       17.7090  -11.6530   10.8160 C.3   1207  BLA1207     0.0051
     32  CHD       15.7360  -10.9180    7.5680 C.3   1207  BLA1207     0.1181
     33  ND        14.8340  -11.6450    5.3650 N.2   1207  BLA1207    -0.4104
     34  C1D       14.7090  -11.1170    6.6400 C.2   1207  BLA1207     0.1114
     35  C2D       13.3230  -10.7800    6.9080 C.2   1207  BLA1207     0.0021
     36  C3D       12.6120  -11.1100    5.7960 C.2   1207  BLA1207     0.0024
     37  C4D       13.5480  -11.6420    4.8370 C.2   1207  BLA1207     0.1114
     38  CMD       12.7280  -10.1730    8.1850 C.3   1207  BLA1207     0.0331
     39  CAD       11.1180  -10.9240    5.6210 C.3   1207  BLA1207     0.0402
     40  CBD       10.8060  -11.0880    4.1100 C.3   1207  BLA1207     0.1188
     41  CGD        9.4650  -11.7790    3.9350 C.2   1207  BLA1207     0.3652
     42  O1D        8.6350  -11.8190    4.8490 O.co2 1207  BLA1207    -0.2456
     43  O2D        9.1390  -12.4810    2.8050 O.co2 1207  BLA1207    -0.2456
@<TRIPOS>BOND
     1     7     5    1
     2    11    10   ar
     3     8     9    1
     4     8     4    1
     5     5     4    2
     6     5     6    1
     7     9    10    1
     8    10    12   ar
     9     4     3    1
    10    19    16    1
    11    13     6    1
    12    13    15    1
    13     6     2    2
    14    43    41   ar
    15     3     2    2
    16     3     1    1
    17    16    15    1
    18    16    17    2
    19    15    14    2
    20     1    37    1
    21    41    40    1
    22    41    42   ar
    23    40    39    1
    24    22    21    1
    25    17    21    1
    26    17    18    1
    27    14    18    2
    28    37    33    2
    29    37    36    1
    30    18    20    2
    31    33    34    2
    32    39    36    1
    33    36    35    2
    34    29    24    2
    35    23    24    2
    36    23    27    2
    37    24    25    1
    38    34    35    1
    39    34    32    1
    40    35    38    1
    41    27    32    1
    42    27    26    1
    43    25    26    2
    44    25    28    1
    45    26    30    1
    46    30    31    1
