@<TRIPOS>MOLECULE
1he3_MBV_A_1.pdb
 43 46 0 0 0
SMALL
GASTEIGER

@<TRIPOS>ATOM
      1  O1        17.4540  -13.2580    1.8560 O.2   1207  MBV1207    -0.2096
      2  C1        16.1970  -13.1790    2.0190 C.1   1207  MBV1207     0.2000
      3  N1        15.5150  -12.6680    3.1970 N.2   1207  MBV1207    -0.3375
      4  C4        14.0810  -12.6550    2.9060 C.2   1207  MBV1207     0.1254
      5  C2        15.1950  -13.4450    1.0530 C.2   1207  MBV1207     0.0710
      6  C3        13.8740  -13.0500    1.6460 C.2   1207  MBV1207     0.0125
      7  C1A       15.3940  -14.0960   -0.2760 C.3   1207  MBV1207     0.0445
      8  C2A       12.5410  -13.1380    0.9570 C.3   1207  MBV1207     0.0291
      9  C5        13.1540  -12.0700    3.8560 C.3   1207  MBV1207     0.1181
     10  C6        13.3980  -11.5760    5.0700 C.2   1207  MBV1207     0.1114
     11  N2        14.7190  -11.5430    5.7030 N.2   1207  MBV1207    -0.4104
     12  C9        14.5050  -10.9230    7.0030 C.2   1207  MBV1207     0.1114
     13  C7        12.4080  -10.9680    6.0160 C.2   1207  MBV1207     0.0024
     14  C8        13.0470  -10.5910    7.1320 C.2   1207  MBV1207     0.0021
     15  C1B       10.9460  -10.8140    5.7440 C.3   1207  MBV1207     0.0402
     16  C6B       12.4380   -9.9400    8.3370 C.3   1207  MBV1207     0.0331
     17  C10       15.4390  -10.6850    7.9320 C.3   1207  MBV1207     0.1170
     18  C11       16.8830  -10.9650    7.7600 C.2   1207  MBV1207     0.1114
     19  N3        17.6160  -11.3740    6.5680 N.2   1207  MBV1207    -0.4104
     20  C14       19.0120  -11.5060    6.9740 C.2   1207  MBV1207     0.1114
     21  C12       17.7460  -10.8610    8.7730 C.2   1207  MBV1207     0.0021
     22  C13       19.1170  -11.2100    8.2670 C.2   1207  MBV1207     0.0024
     23  C6C       17.4150  -10.4560   10.2210 C.3   1207  MBV1207     0.0331
     24  C1C       20.3550  -11.2110    9.1100 C.3   1207  MBV1207     0.0402
     25  C15       19.9610  -11.9020    5.9850 C.3   1207  MBV1207     0.1181
     26  C16       20.3160  -13.0570    5.4110 C.2   1207  MBV1207     0.1254
     27  N4        19.5000  -13.9610    4.8270 N.2   1207  MBV1207    -0.3375
     28  C19       20.2400  -15.0110    4.3570 C.1   1207  MBV1207     0.2000
     29  C17       21.6820  -13.6630    5.2560 C.2   1207  MBV1207     0.0125
     30  C18       21.6520  -14.7540    4.6700 C.2   1207  MBV1207     0.0710
     31  C2D       22.9930  -13.1590    5.6870 C.3   1207  MBV1207     0.0291
     32  C1D       22.7430  -15.8040    4.2430 C.3   1207  MBV1207     0.0445
     33  O20       19.8340  -16.0360    3.7590 O.2   1207  MBV1207    -0.2096
     34  C3A       11.8450  -14.4740    1.1750 C.3   1207  MBV1207     0.0051
     35  C2B       10.7230  -10.0400    4.4550 C.3   1207  MBV1207     0.1188
     36  C3B        9.9530  -10.8430    3.4360 C.2   1207  MBV1207     0.3652
     37  O4B        9.2420  -11.7900    4.0610 O.co2 1207  MBV1207    -0.2456
     38  O5B        9.8260  -10.5470    2.2680 O.co2 1207  MBV1207    -0.2456
     39  C2C       21.3430  -10.2380    8.4830 C.3   1207  MBV1207     0.1188
     40  C3C       22.7020  -10.8940    8.4980 C.2   1207  MBV1207     0.3652
     41  O4C       22.9240  -11.4590    7.3040 O.co2 1207  MBV1207    -0.2456
     42  O5C       23.3130  -11.1950    9.5020 O.co2 1207  MBV1207    -0.2456
     43  C3D       24.1060  -12.5920    4.8110 C.3   1207  MBV1207     0.0051
@<TRIPOS>BOND
     1     7     5    1
     2     8    34    1
     3     8     6    1
     4     5     6    2
     5     5     2    1
     6     6     4    1
     7     1     2    2
     8     2     3    2
     9    38    36   ar
    10     4     3    2
    11     4     9    1
    12    36    37   ar
    13    36    35    1
    14    33    28    2
    15     9    10    1
    16    32    30    1
    17    28    30    1
    18    28    27    2
    19    35    15    1
    20    30    29    2
    21    43    31    1
    22    27    26    2
    23    10    11    2
    24    10    13    1
    25    29    26    1
    26    29    31    1
    27    26    25    1
    28    11    12    2
    29    15    13    1
    30    25    20    1
    31    13    14    2
    32    19    20    2
    33    19    18    2
    34    20    22    1
    35    12    14    1
    36    12    17    1
    37    14    16    1
    38    41    40   ar
    39    18    17    1
    40    18    21    1
    41    22    21    2
    42    22    24    1
    43    39    40    1
    44    39    24    1
    45    40    42   ar
    46    21    23    1
