@<TRIPOS>MOLECULE
1he3_NAP_A_1.pdb
 48 52 0 0 0
SMALL
GASTEIGER

@<TRIPOS>ATOM
      1  PA        24.9840   -4.8290    7.2190 P.3   1206  NAP1206     0.2189
      2  O1A       25.1140   -6.1240    7.8700 O.3   1206  NAP1206    -0.4371
      3  O2A       25.0650   -4.6230    5.7150 O.2   1206  NAP1206    -0.5170
      4  O5B       26.0240   -3.8070    7.8930 O.3   1206  NAP1206    -0.3112
      5  C5B       26.4090   -4.0450    9.2700 C.3   1206  NAP1206     0.1813
      6  C4B       27.0720   -2.7150    9.6460 C.3   1206  NAP1206     0.1820
      7  O4B       27.5430   -2.9190   11.0350 O.3   1206  NAP1206    -0.3136
      8  C3B       28.3870   -2.4270    8.8850 C.3   1206  NAP1206     0.2157
      9  O3B       28.5470   -1.0020    8.8670 O.3   1206  NAP1206    -0.2175
     10  C2B       29.4340   -3.0350    9.7930 C.3   1206  NAP1206     0.2314
     11  O2B       30.7210   -2.4680    9.5800 O.3   1206  NAP1206    -0.2630
     12  C1B       28.9100   -2.5340   11.1620 C.3   1206  NAP1206     0.3158
     13  N9A       29.5650   -3.3500   12.1870 N.pl3 1206  NAP1206    -0.1439
     14  C8A       29.5140   -4.7120   12.3990 C.3   1206  NAP1206     0.3377
     15  N7A       30.2750   -5.0420   13.4310 N.2   1206  NAP1206    -0.2095
     16  C5A       30.7630   -3.8770   13.9390 C.2   1206  NAP1206     0.2526
     17  C6A       31.6770   -3.6480   14.9900 C.2   1206  NAP1206     0.4393
     18  N6A       32.1930   -4.5530   15.8060 N.pl3 1206  NAP1206     0.2180
     19  N1A       32.0080   -2.2910   15.1680 N.2   1206  NAP1206     0.0021
     20  C2A       31.5240   -1.2790   14.3480 C.3   1206  NAP1206     0.5254
     21  N3A       30.6220   -1.4680   13.3670 N.2   1206  NAP1206    -0.0055
     22  C4A       30.3310   -2.8190   13.1250 C.2   1206  NAP1206     0.3518
     23  O3        23.5440   -4.2920    7.6230 O.3   1206  NAP1206    -0.2703
     24  PN        22.1840   -4.0670    6.8970 P.3   1206  NAP1206     0.2189
     25  O1N       22.0720   -5.1070    5.8450 O.2   1206  NAP1206    -0.5170
     26  O2N       21.9450   -2.6560    6.4820 O.3   1206  NAP1206    -0.4371
     27  O5D       21.1910   -4.5260    8.0670 O.3   1206  NAP1206    -0.3112
     28  C5D       20.8270   -3.5680    9.1110 C.3   1206  NAP1206     0.1813
     29  C4D       20.1540   -4.3910   10.1840 C.3   1206  NAP1206     0.1799
     30  O4D       18.9390   -4.9000    9.5950 O.3   1206  NAP1206    -0.3327
     31  C3D       20.9560   -5.6700   10.6230 C.3   1206  NAP1206     0.2158
     32  O3D       20.9470   -5.8330   12.0390 O.3   1206  NAP1206    -0.2175
     33  C2D       20.2190   -6.8060    9.9250 C.3   1206  NAP1206     0.2309
     34  O2D       20.2740   -8.0370   10.6410 O.3   1206  NAP1206    -0.2158
     35  C1D       18.8130   -6.2990   10.0190 C.3   1206  NAP1206     0.2263
     36  N1N       17.8280   -6.7160    9.0260 N.pl3 1206  NAP1206    -0.2787
     37  C2N       18.2740   -7.1940    7.7130 C.3   1206  NAP1206     0.1244
     38  C3N       17.3020   -7.6010    6.8360 C.2   1206  NAP1206     0.0544
     39  C7N       17.7020   -8.0930    5.4340 C.2   1206  NAP1206     0.2818
     40  O7N       16.7380   -8.3180    4.7510 O.2   1206  NAP1206    -0.2670
     41  N7N       18.9870   -8.1120    5.2110 N.am  1206  NAP1206    -0.0839
     42  C4N       15.8720   -7.5190    7.1700 C.2   1206  NAP1206     0.0033
     43  C5N       15.4590   -7.0250    8.4370 C.2   1206  NAP1206     0.0157
     44  C6N       16.4740   -6.6220    9.4190 C.2   1206  NAP1206     0.0633
     45  P2B       31.8000   -2.9740    8.4890 P.3   1206  NAP1206     0.5328
     46  O1X       31.4420   -2.1750    7.2480 O.2   1206  NAP1206    -0.2224
     47  O2X       33.0690   -2.5680    9.1440 O.3   1206  NAP1206    -0.1145
     48  O3X       31.5810   -4.4740    8.3090 O.3   1206  NAP1206    -0.1145
@<TRIPOS>BOND
     1    40    39    2
     2    41    39   am
     3    39    38    1
     4     3     1    2
     5    25    24    2
     6    26    24    1
     7    38    42    2
     8    38    37    1
     9    24    23    1
    10    24    27    1
    11    42    43    1
    12     1    23    1
    13     1     2    1
    14     1     4    1
    15    46    45    2
    16    37    36    1
    17     4     5    1
    18    27    28    1
    19    48    45    1
    20    43    44    2
    21    45    47    1
    22    45    11    1
    23     9     8    1
    24     8     6    1
    25     8    10    1
    26    36    44    1
    27    36    35    1
    28    28    29    1
    29     5     6    1
    30    11    10    1
    31    30    35    1
    32    30    29    1
    33     6     7    1
    34    10    12    1
    35    33    35    1
    36    33    31    1
    37    33    34    1
    38    29    31    1
    39    31    32    1
    40     7    12    1
    41    12    13    1
    42    13    14    1
    43    13    22    1
    44    14    15    1
    45    22    21    2
    46    22    16    1
    47    21    20    1
    48    15    16    2
    49    16    17    1
    50    20    19    1
    51    17    19    2
    52    17    18    1
