@<TRIPOS>MOLECULE
1he4_FMN_A_1.pdb
 31 33 0 0 0
SMALL
GASTEIGER

@<TRIPOS>ATOM
      1  N1        18.7430  -11.9320    5.7860 N.2   1207  FMN1207    -0.2890
      2  C2        20.0030  -11.8200    6.3170 C.1   1207  FMN1207     0.3669
      3  O2        20.9910  -12.2360    5.7710 O.2   1207  FMN1207    -0.1744
      4  N3        20.1640  -11.2840    7.6370 N.2   1207  FMN1207    -0.2300
      5  C4        19.1440  -10.9110    8.4400 C.1   1207  FMN1207     0.2513
      6  O4        19.4070  -10.3930    9.5320 O.2   1207  FMN1207    -0.2057
      7  C4A       17.8040  -10.9830    7.8500 C.2   1207  FMN1207     0.2700
      8  N5        16.7420  -10.5840    8.5330 N.2   1207  FMN1207    -0.3878
      9  C5A       15.5090  -10.6270    7.9470 C.2   1207  FMN1207     0.1320
     10  C6        14.3670  -10.1450    8.7100 C.2   1207  FMN1207     0.0250
     11  C7        13.0960  -10.1420    8.2250 C.2   1207  FMN1207    -0.0238
     12  C7M       11.9190   -9.6390    9.0590 C.3   1207  FMN1207     0.0308
     13  C8        12.8320  -10.6020    6.8440 C.2   1207  FMN1207    -0.0280
     14  C8M       11.4260  -10.6100    6.2830 C.3   1207  FMN1207     0.0304
     15  C9        13.9160  -11.0900    6.1050 C.2   1207  FMN1207    -0.0041
     16  C9A       15.2420  -11.1100    6.6000 C.3   1207  FMN1207     0.1497
     17  N10       16.3980  -11.5810    5.8940 N.pl3 1207  FMN1207    -0.2691
     18  C10       17.6760  -11.5220    6.4660 C.2   1207  FMN1207     0.2416
     19  C1'       16.2460  -12.0990    4.5040 C.3   1207  FMN1207     0.1294
     20  C2'       17.5570  -12.0000    3.7230 C.3   1207  FMN1207     0.2044
     21  O2'       17.9390  -10.6540    3.4610 O.3   1207  FMN1207    -0.2185
     22  C3'       17.4770  -12.7220    2.3500 C.3   1207  FMN1207     0.2164
     23  O3'       17.6020  -14.1770    2.5220 O.3   1207  FMN1207    -0.2175
     24  C4'       18.5330  -12.2590    1.3710 C.3   1207  FMN1207     0.2147
     25  O4'       17.9070  -11.9820    0.0900 O.3   1207  FMN1207    -0.2176
     26  C5'       19.6360  -13.2690    1.1200 C.3   1207  FMN1207     0.1892
     27  O5'       20.5660  -12.7510    0.1520 O.3   1207  FMN1207    -0.2674
     28  P         22.0470  -13.2920    0.0470 P.3   1207  FMN1207     0.5327
     29  O1P       22.7160  -13.0710    1.3770 O.3   1207  FMN1207    -0.1145
     30  O2P       21.9780  -14.7420   -0.3610 O.3   1207  FMN1207    -0.1145
     31  O3P       22.6700  -12.4360   -1.1170 O.2   1207  FMN1207    -0.2224
@<TRIPOS>BOND
     1    31    28    2
     2    30    28    1
     3    28    27    1
     4    28    29    1
     5    25    24    1
     6    27    26    1
     7    26    24    1
     8    24    22    1
     9    22    23    1
    10    22    20    1
    11    21    20    1
    12    20    19    1
    13    19    17    1
    14     3     2    2
    15     1     2    2
    16     1    18    2
    17    17    18    1
    18    17    16    1
    19    15    16    1
    20    15    13    2
    21    14    13    1
    22     2     4    2
    23    18     7    1
    24    16     9    1
    25    13    11    1
    26     4     5    2
    27     7     5    1
    28     7     8    2
    29     9     8    2
    30     9    10    1
    31    11    10    2
    32    11    12    1
    33     5     6    2
