@<TRIPOS>MOLECULE
1he4_NAP_A_1.pdb
 48 52 0 0 0
SMALL
GASTEIGER

@<TRIPOS>ATOM
      1  PA        24.9670   -4.8590    7.2360 P.3   1206  NAP1206     0.2189
      2  O1A       25.1410   -6.1300    7.8990 O.3   1206  NAP1206    -0.4371
      3  O2A       25.0530   -4.6090    5.7590 O.2   1206  NAP1206    -0.5170
      4  O5B       26.0110   -3.8600    7.9310 O.3   1206  NAP1206    -0.3112
      5  C5B       26.3800   -4.0830    9.3150 C.3   1206  NAP1206     0.1813
      6  C4B       27.0580   -2.7580    9.6840 C.3   1206  NAP1206     0.1820
      7  O4B       27.5180   -2.9560   11.0740 O.3   1206  NAP1206    -0.3136
      8  C3B       28.3800   -2.4690    8.9110 C.3   1206  NAP1206     0.2157
      9  O3B       28.5320   -1.0580    8.8770 O.3   1206  NAP1206    -0.2175
     10  C2B       29.4090   -3.0630    9.8320 C.3   1206  NAP1206     0.2314
     11  O2B       30.7160   -2.5310    9.6270 O.3   1206  NAP1206    -0.2630
     12  C1B       28.8890   -2.5900   11.1930 C.3   1206  NAP1206     0.3158
     13  N9A       29.5420   -3.3980   12.2150 N.pl3 1206  NAP1206    -0.1439
     14  C8A       29.4970   -4.7450   12.4590 C.3   1206  NAP1206     0.3377
     15  N7A       30.3120   -5.0970   13.4740 N.2   1206  NAP1206    -0.2095
     16  C5A       30.7800   -3.9230   13.9580 C.2   1206  NAP1206     0.2526
     17  C6A       31.7020   -3.6780   14.9900 C.2   1206  NAP1206     0.4393
     18  N6A       32.1970   -4.5930   15.8080 N.pl3 1206  NAP1206     0.2180
     19  N1A       32.0560   -2.3290   15.1780 N.2   1206  NAP1206     0.0021
     20  C2A       31.5440   -1.2980   14.3900 C.3   1206  NAP1206     0.5254
     21  N3A       30.6570   -1.5200   13.3850 N.2   1206  NAP1206    -0.0055
     22  C4A       30.3340   -2.8730   13.1440 C.2   1206  NAP1206     0.3518
     23  O3        23.5450   -4.2970    7.6410 O.3   1206  NAP1206    -0.2703
     24  PN        22.1850   -4.1170    6.8990 P.3   1206  NAP1206     0.2189
     25  O1N       22.0670   -5.1700    5.8880 O.2   1206  NAP1206    -0.5170
     26  O2N       21.9650   -2.7000    6.4940 O.3   1206  NAP1206    -0.4371
     27  O5D       21.1570   -4.5410    8.0500 O.3   1206  NAP1206    -0.3112
     28  C5D       20.8240   -3.5990    9.1160 C.3   1206  NAP1206     0.1813
     29  C4D       20.1290   -4.4140   10.1860 C.3   1206  NAP1206     0.1799
     30  O4D       18.9060   -4.9600    9.6640 O.3   1206  NAP1206    -0.3327
     31  C3D       20.9460   -5.6780   10.6430 C.3   1206  NAP1206     0.2158
     32  O3D       20.9470   -5.8320   12.0710 O.3   1206  NAP1206    -0.2175
     33  C2D       20.2100   -6.8360    9.9740 C.3   1206  NAP1206     0.2309
     34  O2D       20.2790   -8.0750   10.6500 O.3   1206  NAP1206    -0.2158
     35  C1D       18.7940   -6.3640   10.0650 C.3   1206  NAP1206     0.2263
     36  N1N       17.8780   -6.7750    9.0020 N.pl3 1206  NAP1206    -0.2787
     37  C2N       18.3640   -7.2350    7.7110 C.3   1206  NAP1206     0.1244
     38  C3N       17.3900   -7.6160    6.7820 C.2   1206  NAP1206     0.0544
     39  C7N       17.7990   -8.1020    5.3760 C.2   1206  NAP1206     0.2818
     40  O7N       16.8680   -8.3670    4.6670 O.2   1206  NAP1206    -0.2670
     41  N7N       19.0900   -8.1570    5.1430 N.am  1206  NAP1206    -0.0839
     42  C4N       15.9680   -7.5150    7.0890 C.2   1206  NAP1206     0.0033
     43  C5N       15.5110   -7.0660    8.3740 C.2   1206  NAP1206     0.0157
     44  C6N       16.5060   -6.6890    9.3450 C.2   1206  NAP1206     0.0633
     45  P2B       31.7710   -3.0440    8.4990 P.3   1206  NAP1206     0.5328
     46  O1X       31.4440   -2.2420    7.2470 O.2   1206  NAP1206    -0.2224
     47  O2X       33.0350   -2.5920    9.1670 O.3   1206  NAP1206    -0.1145
     48  O3X       31.5560   -4.5250    8.3120 O.3   1206  NAP1206    -0.1145
@<TRIPOS>BOND
     1    40    39    2
     2    41    39   am
     3    39    38    1
     4     3     1    2
     5    25    24    2
     6    26    24    1
     7    38    42    2
     8    38    37    1
     9    24    23    1
    10    24    27    1
    11    42    43    1
    12     1    23    1
    13     1     2    1
    14     1     4    1
    15    46    45    2
    16    37    36    1
    17     4     5    1
    18    27    28    1
    19    48    45    1
    20    43    44    2
    21    45    47    1
    22    45    11    1
    23     9     8    1
    24     8     6    1
    25     8    10    1
    26    36    44    1
    27    36    35    1
    28    28    29    1
    29     5     6    1
    30    11    10    1
    31    30    35    1
    32    30    29    1
    33     6     7    1
    34    10    12    1
    35    33    35    1
    36    33    31    1
    37    33    34    1
    38    29    31    1
    39    31    32    1
    40     7    12    1
    41    12    13    1
    42    13    14    1
    43    13    22    1
    44    14    15    1
    45    22    21    2
    46    22    16    1
    47    21    20    1
    48    15    16    2
    49    16    17    1
    50    20    19    1
    51    17    19    2
    52    17    18    1
