@<TRIPOS>MOLECULE
1he5_NAP_A_1.pdb
 48 52 0 0 0
SMALL
GASTEIGER

@<TRIPOS>ATOM
      1  PA        25.0210   -4.8800    7.1720 P.3   1206  NAP1206     0.2189
      2  O1A       25.1800   -6.1340    7.8740 O.3   1206  NAP1206    -0.4371
      3  O2A       25.0780   -4.6680    5.6930 O.2   1206  NAP1206    -0.5170
      4  O5B       26.0540   -3.8550    7.8550 O.3   1206  NAP1206    -0.3112
      5  C5B       26.4350   -4.1020    9.2250 C.3   1206  NAP1206     0.1813
      6  C4B       27.1130   -2.7960    9.6290 C.3   1206  NAP1206     0.1820
      7  O4B       27.5530   -2.9910   11.0170 O.3   1206  NAP1206    -0.3136
      8  C3B       28.4320   -2.5040    8.8640 C.3   1206  NAP1206     0.2157
      9  O3B       28.5780   -1.0920    8.8320 O.3   1206  NAP1206    -0.2175
     10  C2B       29.4560   -3.1300    9.7730 C.3   1206  NAP1206     0.2314
     11  O2B       30.7530   -2.5740    9.5680 O.3   1206  NAP1206    -0.2630
     12  C1B       28.9260   -2.6510   11.1350 C.3   1206  NAP1206     0.3158
     13  N9A       29.5760   -3.4310   12.1690 N.pl3 1206  NAP1206    -0.1439
     14  C8A       29.5110   -4.7890   12.4180 C.3   1206  NAP1206     0.3377
     15  N7A       30.3240   -5.1210   13.4370 N.2   1206  NAP1206    -0.2095
     16  C5A       30.7780   -3.9480   13.9240 C.2   1206  NAP1206     0.2526
     17  C6A       31.7080   -3.7110   14.9620 C.2   1206  NAP1206     0.4393
     18  N6A       32.2110   -4.6370   15.7790 N.pl3 1206  NAP1206     0.2180
     19  N1A       32.0890   -2.3730   15.1460 N.2   1206  NAP1206     0.0021
     20  C2A       31.6240   -1.3330   14.3330 C.3   1206  NAP1206     0.5254
     21  N3A       30.6910   -1.5520   13.3560 N.2   1206  NAP1206    -0.0055
     22  C4A       30.3710   -2.9030   13.0920 C.2   1206  NAP1206     0.3518
     23  O3        23.6010   -4.3080    7.5780 O.3   1206  NAP1206    -0.2703
     24  PN        22.2330   -4.0950    6.9030 P.3   1206  NAP1206     0.2189
     25  O1N       22.0870   -5.1300    5.8540 O.2   1206  NAP1206    -0.5170
     26  O2N       21.9680   -2.6920    6.4900 O.3   1206  NAP1206    -0.4371
     27  O5D       21.2610   -4.5850    8.0860 O.3   1206  NAP1206    -0.3112
     28  C5D       20.8390   -3.6220    9.0890 C.3   1206  NAP1206     0.1813
     29  C4D       20.1560   -4.4510   10.1740 C.3   1206  NAP1206     0.1799
     30  O4D       18.9300   -4.9610    9.6390 O.3   1206  NAP1206    -0.3327
     31  C3D       20.9890   -5.7440   10.5500 C.3   1206  NAP1206     0.2158
     32  O3D       20.9980   -5.9460   11.9820 O.3   1206  NAP1206    -0.2175
     33  C2D       20.2050   -6.8700    9.8780 C.3   1206  NAP1206     0.2309
     34  O2D       20.2840   -8.1080   10.5750 O.3   1206  NAP1206    -0.2158
     35  C1D       18.7900   -6.3640   10.0490 C.3   1206  NAP1206     0.2263
     36  N1N       17.8400   -6.7530    9.0030 N.pl3 1206  NAP1206    -0.2787
     37  C2N       18.3330   -7.2170    7.7000 C.3   1206  NAP1206     0.1244
     38  C3N       17.3720   -7.5800    6.7580 C.2   1206  NAP1206     0.0544
     39  C7N       17.8000   -8.0700    5.3590 C.2   1206  NAP1206     0.2818
     40  O7N       16.8510   -8.3250    4.6580 O.2   1206  NAP1206    -0.2670
     41  N7N       19.1000   -8.1160    5.1830 N.am  1206  NAP1206    -0.0839
     42  C4N       15.9260   -7.4830    7.0280 C.2   1206  NAP1206     0.0033
     43  C5N       15.4650   -7.0320    8.3070 C.2   1206  NAP1206     0.0157
     44  C6N       16.4570   -6.6680    9.3070 C.2   1206  NAP1206     0.0633
     45  P2B       31.8220   -3.0740    8.4540 P.3   1206  NAP1206     0.5328
     46  O1X       31.4780   -2.3050    7.2040 O.2   1206  NAP1206    -0.2224
     47  O2X       33.0940   -2.6130    9.1000 O.3   1206  NAP1206    -0.1145
     48  O3X       31.6210   -4.5630    8.2790 O.3   1206  NAP1206    -0.1145
@<TRIPOS>BOND
     1    40    39    2
     2    41    39   am
     3    39    38    1
     4     3     1    2
     5    25    24    2
     6    26    24    1
     7    38    42    2
     8    38    37    1
     9    24    23    1
    10    24    27    1
    11    42    43    1
    12     1    23    1
    13     1     4    1
    14     1     2    1
    15    46    45    2
    16    37    36    1
    17     4     5    1
    18    27    28    1
    19    48    45    1
    20    43    44    2
    21    45    47    1
    22    45    11    1
    23     9     8    1
    24     8     6    1
    25     8    10    1
    26    36    44    1
    27    36    35    1
    28    28    29    1
    29     5     6    1
    30    11    10    1
    31     6     7    1
    32    30    35    1
    33    30    29    1
    34    10    12    1
    35    33    35    1
    36    33    31    1
    37    33    34    1
    38    29    31    1
    39    31    32    1
    40     7    12    1
    41    12    13    1
    42    13    14    1
    43    13    22    1
    44    14    15    1
    45    22    21    2
    46    22    16    1
    47    21    20    1
    48    15    16    2
    49    16    17    1
    50    20    19    1
    51    17    19    2
    52    17    18    1
