@<TRIPOS>MOLECULE
1he5_LUM_A_1.pdb
 18 20 0 0 0
SMALL
GASTEIGER

@<TRIPOS>ATOM
      1  N1        19.1610  -11.6470    6.1670 N.2   1207  LUM1207    -0.2376
      2  C2        20.3820  -11.5530    6.7700 C.1   1207  LUM1207     0.3754
      3  C10       18.0410  -11.3040    6.8020 C.1   1207  LUM1207     0.1957
      4  O2        21.4070  -11.8520    6.2160 O.2   1207  LUM1207    -0.1738
      5  N3        20.4380  -11.1460    8.1420 N.2   1207  LUM1207    -0.2289
      6  C4        19.3660  -10.7630    8.8800 C.1   1207  LUM1207     0.2593
      7  O4        19.5240  -10.3760   10.0450 O.2   1207  LUM1207    -0.2051
      8  C4A       18.0540  -10.8260    8.2140 C.2   1207  LUM1207     0.3114
      9  N5        16.9470  -10.4830    8.8540 N.2   1207  LUM1207    -0.3754
     10  C5A       15.7450  -10.5370    8.2030 C.ar  1207  LUM1207     0.1633
     11  C6        14.5270  -10.1340    8.9010 C.ar  1207  LUM1207     0.0302
     12  C9A       15.5800  -10.9780    6.8200 C.ar  1207  LUM1207     0.1730
     13  C7        13.2870  -10.1500    8.3420 C.ar  1207  LUM1207    -0.0231
     14  C7M       12.0240   -9.7260    9.1050 C.3   1207  LUM1207     0.0308
     15  C8        13.1340  -10.5660    6.9310 C.ar  1207  LUM1207    -0.0231
     16  C8M       11.7780  -10.6240    6.2720 C.3   1207  LUM1207     0.0308
     17  C9        14.2850  -10.9900    6.2480 C.ar  1207  LUM1207     0.0311
     18  N10       16.7910  -11.3700    6.1470 N.2   1207  LUM1207    -0.3340
@<TRIPOS>BOND
     1    18     3    2
     2    18    12    2
     3     1     2    2
     4     1     3    2
     5     4     2    2
     6    17    12   ar
     7    17    15   ar
     8    16    15    1
     9     2     5    2
    10     3     8    1
    11    12    10   ar
    12    15    13   ar
    13     5     6    2
    14    10     9    2
    15    10    11   ar
    16     8     9    2
    17     8     6    1
    18    13    11   ar
    19    13    14    1
    20     6     7    2
