@<TRIPOS>MOLECULE
1hee_LHY_A_1.pdb
 16 16 0 0 0
SMALL
GASTEIGER

@<TRIPOS>ATOM
      1  N          6.0920    9.5800   -0.9080 N.am  1309  LHY1309    -0.2052
      2  CA         5.6080    9.2310   -2.2740 C.3   1309  LHY1309     0.2012
      3  C          6.8130    8.8410   -3.1520 C.2   1309  LHY1309     0.3845
      4  O          7.8680    9.3910   -3.1030 O.co2 1309  LHY1309    -0.2437
      5  CB         4.8580   10.4090   -2.9440 C.3   1309  LHY1309     0.0596
      6  CG         3.9950    9.9490   -4.0980 C.ar  1309  LHY1309    -0.0199
      7  CD1        2.7150    9.3780   -3.8580 C.ar  1309  LHY1309    -0.0042
      8  CD2        4.4530   10.0720   -5.4400 C.ar  1309  LHY1309    -0.0042
      9  CE1        1.9110    8.9400   -4.9380 C.ar  1309  LHY1309    -0.0003
     10  CE2        3.6470    9.6310   -6.5190 C.ar  1309  LHY1309    -0.0003
     11  CZ         2.3800    9.0660   -6.2680 C.ar  1309  LHY1309    -0.0000
     12  OXT        6.5240    7.8230   -3.9790 O.co2 1309  LHY1309    -0.2437
     13  C1         6.8460    8.7450   -0.1460 C.2   1309  LHY1309     0.1840
     14  O1         7.1910    7.6520   -0.5320 O.2   1309  LHY1309    -0.5240
     15  N2         7.2110    9.1660    1.0850 N.am  1309  LHY1309    -0.1823
     16  O2         6.7810   10.4360    1.4870 O.3   1309  LHY1309    -0.4013
@<TRIPOS>BOND
     1    10    11   ar
     2    10     8   ar
     3    11     9   ar
     4     8     6   ar
     5     9     7   ar
     6     6     7   ar
     7     6     5    1
     8    12     3   ar
     9     3     4   ar
    10     3     2    1
    11     5     2    1
    12     2     1    1
    13     1    13   am
    14    14    13    2
    15    13    15   am
    16    15    16    1
