@<TRIPOS>MOLECULE
1hef_III_I_1.pdb
 48 49 0 0 0
SMALL
GASTEIGER

@<TRIPOS>ATOM
      1  N        -13.6420   13.6160   34.9830 N.3   201  ALA201     -0.1231
      2  CA       -12.2960   13.8890   34.5570 C.3   201  ALA201      0.1694
      3  C        -12.2520   14.5870   33.1620 C.2   201  ALA201      0.2592
      4  O        -13.2750   14.4360   32.4770 O.2   201  ALA201     -0.2718
      5  CB       -11.3990   12.6720   34.5400 C.3   201  ALA201      0.0304
      6  N        -11.1350   15.2080   32.9240 N.am  202  ALA202     -0.1966
      7  CA       -10.3340   16.0110   32.1250 C.3   202  ALA202      0.1728
      8  C        -10.0430   15.3530   30.7410 C.2   202  ALA202      0.2612
      9  O         -9.3330   14.3720   30.6820 O.2   202  ALA202     -0.2715
     10  CB        -9.0600   16.4730   32.8210 C.3   202  ALA202      0.0334
     11  N        -10.5900   16.0090   29.7450 N.am  205  PJJ205     -0.2028
     12  C1       -10.8310   16.1070   28.3570 C.3   205  PJJ205      0.1299
     13  C2       -10.4180   17.4730   27.7490 C.3   205  PJJ205      0.1726
     14  O1       -11.2920   18.4600   28.2800 O.3   205  PJJ205     -0.2213
     15  C3       -12.3720   15.9770   28.1020 C.3   205  PJJ205      0.0506
     16  C4       -12.9550   14.6590   28.6170 C.ar  205  PJJ205     -0.0204
     17  C5       -12.2870   13.4330   28.3470 C.ar  205  PJJ205     -0.0042
     18  C6       -14.1280   14.6950   29.3820 C.ar  205  PJJ205     -0.0042
     19  C7       -12.8240   12.2320   28.8470 C.ar  205  PJJ205     -0.0003
     20  C8       -14.6620   13.4730   29.8700 C.ar  205  PJJ205     -0.0003
     21  C9       -14.0220   12.2730   29.5870 C.ar  205  PJJ205     -0.0000
     22  C10       -8.9690   17.7830   28.0620 C.3   205  PJJ205      0.0442
     23  CA        -7.9460   18.0530   26.9910 C.3   205  PJJ205      0.0851
     24  C         -7.7610   17.0710   25.8550 C.2   205  PJJ205      0.2417
     25  O         -7.1550   16.0070   26.0380 O.2   205  PJJ205     -0.2733
     26  C13       -6.5570   18.0280   27.7500 C.3   205  PJJ205      0.0356
     27  C14       -5.4470   18.1850   26.8670 C.ar  205  PJJ205     -0.0217
     28  C15       -5.3220   19.3400   26.0520 C.ar  205  PJJ205     -0.0043
     29  C16       -4.4870   17.1600   26.7730 C.ar  205  PJJ205     -0.0043
     30  C17       -4.2260   19.4600   25.1770 C.ar  205  PJJ205     -0.0003
     31  C18       -3.3940   17.2830   25.8920 C.ar  205  PJJ205     -0.0003
     32  C19       -3.2590   18.4530   25.1030 C.ar  205  PJJ205     -0.0000
     33  N         -8.2070   17.3680   24.6220 N.am  210  VAL210     -0.1978
     34  CA        -7.9530   16.4320   23.5160 C.3   210  VAL210      0.1726
     35  C         -7.1290   17.2710   22.4950 C.2   210  VAL210      0.2617
     36  O         -7.5590   18.3710   22.1260 O.2   210  VAL210     -0.2715
     37  CB        -9.1200   15.7860   22.8240 C.3   210  VAL210      0.0290
     38  CG1       -8.8110   14.3880   22.2450 C.3   210  VAL210      0.0023
     39  CG2      -10.4520   15.7510   23.5360 C.3   210  VAL210      0.0023
     40  N         -6.0500   16.6410   22.1220 N.am  211  VME211     -0.1943
     41  CA        -4.9650   16.8370   21.2520 C.3   211  VME211      0.1934
     42  C         -3.9780   17.8990   21.7610 C.2   211  VME211      0.3371
     43  O         -4.1100   18.1740   22.9550 O.2   211  VME211     -0.2482
     44  CB        -5.3750   17.2340   19.8230 C.3   211  VME211      0.0309
     45  CG1       -5.6010   18.7340   19.7330 C.3   211  VME211      0.0023
     46  CG2       -4.3190   16.6550   18.8580 C.3   211  VME211      0.0023
     47  CM        -3.5390   19.4440   19.9810 C.3   211  VME211      0.2557
     48  O2        -3.0530   18.5280   20.9390 O.3   211  VME211     -0.4432
@<TRIPOS>BOND
     1    46    44    1
     2    45    44    1
     3    44    41    1
     4    47    48    1
     5    48    42    1
     6    41    42    1
     7    41    40    1
     8    42    43    2
     9    40    35   am
    10    36    35    2
    11    38    37    1
    12    35    34    1
    13    37    34    1
    14    37    39    1
    15    34    33    1
    16    33    24   am
    17    32    30   ar
    18    32    31   ar
    19    30    28   ar
    20    24    25    2
    21    24    23    1
    22    31    29   ar
    23    28    27   ar
    24    29    27   ar
    25    27    26    1
    26    23    26    1
    27    23    22    1
    28    13    22    1
    29    13    14    1
    30    13    12    1
    31    15    12    1
    32    15    16    1
    33    17    16   ar
    34    17    19   ar
    35    12    11    1
    36    16    18   ar
    37    19    21   ar
    38    18    20   ar
    39    21    20   ar
    40    11     8   am
    41     9     8    2
    42     8     7    1
    43     7    10    1
    44     7     6    1
    45     4     3    2
    46     6     3   am
    47     3     2    1
    48     5     2    1
    49     2     1    1
