@<TRIPOS>MOLECULE
1heg_PSI_E_1.pdb
 41 42 0 0 0
SMALL
GASTEIGER

@<TRIPOS>ATOM
      1  N        -13.8230   14.4740   35.2070 N.3   201  PSI201     -0.1231
      2  CA       -12.5640   14.2090   34.5660 C.3   201  PSI201      0.1694
      3  C        -12.3220   15.0960   33.3430 C.2   201  PSI201      0.2592
      4  O        -13.0380   15.2390   32.3750 O.2   201  PSI201     -0.2718
      5  CB       -12.2500   12.7420   34.3720 C.3   201  PSI201      0.0304
      6  N1       -11.1640   15.7690   33.4360 N.am  201  PSI201     -0.1966
      7  CA1      -10.5980   16.6900   32.5180 C.3   201  PSI201      0.1728
      8  C1       -10.5140   16.1130   31.1200 C.2   201  PSI201      0.2612
      9  O1        -9.8530   15.1410   30.7800 O.2   201  PSI201     -0.2715
     10  CB1       -9.2620   17.1870   33.1080 C.3   201  PSI201      0.0334
     11  C3        -8.1830   17.8170   26.3600 C.2   201  PSI201      0.2418
     12  O2        -7.4700   16.8490   26.6960 O.2   201  PSI201     -0.2733
     13  CA3       -8.6050   18.8260   27.3980 C.3   201  PSI201      0.0895
     14  CM        -9.4050   18.1960   28.5460 C.3   201  PSI201      0.0443
     15  C2       -10.8180   17.7530   28.0100 C.3   201  PSI201      0.1726
     16  OS       -11.6970   18.8220   28.2490 O.3   201  PSI201     -0.2213
     17  CA2      -11.2840   16.4970   28.7790 C.3   201  PSI201      0.1299
     18  N2       -11.2340   16.8020   30.1970 N.am  201  PSI201     -0.2028
     19  CB2      -12.6700   16.0790   28.3220 C.3   201  PSI201      0.0506
     20  CG       -13.4320   14.9710   29.0480 C.ar  201  PSI201     -0.0204
     21  CD1      -13.0760   13.6290   28.9830 C.ar  201  PSI201     -0.0042
     22  CD2      -14.5600   15.3730   29.8070 C.ar  201  PSI201     -0.0042
     23  CE1      -13.8180   12.6380   29.6610 C.ar  201  PSI201     -0.0003
     24  CE2      -15.3000   14.3800   30.4830 C.ar  201  PSI201     -0.0003
     25  CZ       -14.9170   13.0430   30.4120 C.ar  201  PSI201     -0.0000
     26  N4        -8.5850   17.9710   25.1030 N.am  201  PSI201     -0.1978
     27  CA4       -8.2530   17.0230   24.0680 C.3   201  PSI201      0.1726
     28  C4        -7.3120   17.7050   23.0540 C.2   201  PSI201      0.2617
     29  O3        -7.5440   18.7990   22.5960 O.2   201  PSI201     -0.2715
     30  CB3       -9.4570   16.3770   23.3870 C.3   201  PSI201      0.0290
     31  CG1       -9.2640   14.9020   23.0550 C.3   201  PSI201      0.0023
     32  CG2      -10.7390   16.5330   24.2240 C.3   201  PSI201      0.0023
     33  N5        -6.2770   16.9100   22.7550 N.am  201  PSI201     -0.1943
     34  CA5       -5.1960   17.1430   21.8630 C.3   201  PSI201      0.1935
     35  C5        -4.2530   18.1990   22.4730 C.2   201  PSI201      0.3370
     36  O4        -4.4340   18.6540   23.6000 O.2   201  PSI201     -0.2482
     37  CB4       -5.5890   17.4860   20.4370 C.3   201  PSI201      0.0346
     38 CG11       -7.0590   17.8530   20.2000 C.3   201  PSI201      0.0025
     39 CG21       -4.6720   18.5350   19.8020 C.3   201  PSI201      0.0497
     40  C6        -3.5630   18.4470   20.2780 C.3   201  PSI201      0.2086
     41  O5        -3.1720   18.6000   21.6520 O.3   201  PSI201     -0.4473
@<TRIPOS>BOND
     1    39    40    1
     2    39    37    1
     3    38    37    1
     4    40    41    1
     5    37    34    1
     6    41    35    1
     7    34    35    1
     8    34    33    1
     9    35    36    2
    10    29    28    2
    11    33    28   am
    12    28    27    1
    13    31    30    1
    14    30    27    1
    15    30    32    1
    16    27    26    1
    17    26    11   am
    18    11    12    2
    19    11    13    1
    20    13    14    1
    21    15    16    1
    22    15    14    1
    23    15    17    1
    24    19    17    1
    25    19    20    1
    26    17    18    1
    27    21    20   ar
    28    21    23   ar
    29    20    22   ar
    30    23    25   ar
    31    22    24   ar
    32    18     8   am
    33    25    24   ar
    34     9     8    2
    35     8     7    1
    36     4     3    2
    37     7    10    1
    38     7     6    1
    39     3     6   am
    40     3     2    1
    41     5     2    1
    42     2     1    1
