@<TRIPOS>MOLECULE
1het_NAD_A_1.pdb
 44 48 0 0 0
SMALL
GASTEIGER

@<TRIPOS>ATOM
      1  PA        -1.0270   17.2540   18.2930 P.3   402  NAD402      0.2189
      2  O1A       -0.8850   18.4160   19.2020 O.3   402  NAD402     -0.4371
      3  O2A       -2.0280   16.1900   18.6130 O.2   402  NAD402     -0.5170
      4  O5B       -1.3120   17.8600   16.8510 O.3   402  NAD402     -0.3112
      5  C5B       -1.9180   17.0660   15.7800 C.3   402  NAD402      0.1813
      6  C4B       -2.8500   17.9770   15.0110 C.3   402  NAD402      0.1821
      7  O4B       -3.4200   17.1510   13.9200 O.3   402  NAD402     -0.3135
      8  C3B       -4.1060   18.4950   15.7990 C.3   402  NAD402      0.2184
      9  O3B       -4.1250   19.9530   15.8170 O.3   402  NAD402     -0.2174
     10  C2B       -5.3190   17.8760   15.1210 C.3   402  NAD402      0.2570
     11  O2B       -6.5050   18.6000   15.1200 O.3   402  NAD402     -0.2130
     12  C1B       -4.7440   17.5990   13.7200 C.3   402  NAD402      0.3186
     13  O3         0.3730   16.5080   18.1420 O.3   402  NAD402     -0.2703
     14  PN         1.9350   17.0010   18.2400 P.3   402  NAD402      0.2189
     15  O1N        2.3830   16.8990   19.6430 O.3   402  NAD402     -0.4371
     16  O2N        2.0870   18.2580   17.4600 O.2   402  NAD402     -0.5170
     17  O5D        2.6130   15.7550   17.4530 O.3   402  NAD402     -0.3112
     18  C5D        2.3530   15.5850   16.0250 C.3   402  NAD402      0.1813
     19  C4D        2.7950   14.2450   15.5810 C.3   402  NAD402      0.1799
     20  O4D        4.2790   14.1810   15.6160 O.3   402  NAD402     -0.3327
     21  C3D        2.3170   13.0640   16.5060 C.3   402  NAD402      0.2158
     22  O3D        1.9930   11.9090   15.7150 O.3   402  NAD402     -0.2175
     23  C2D        3.5800   12.7290   17.3290 C.3   402  NAD402      0.2309
     24  O2D        3.5640   11.4080   17.7950 O.3   402  NAD402     -0.2158
     25  C1D        4.6990   12.9610   16.2480 C.3   402  NAD402      0.2261
     26  N1N        6.0790   13.1420   16.7890 N.pl3 402  NAD402     -0.2831
     27  C2N        7.1340   12.7460   15.9180 C.2   402  NAD402      0.0633
     28  C3N        8.3970   13.0480   16.1660 C.2   402  NAD402      0.0490
     29  C7N        9.4980   12.5920   15.2410 C.2   402  NAD402      0.2814
     30  O7N       10.6730   12.6330   15.6620 O.2   402  NAD402     -0.2670
     31  N7N        9.1900   12.1970   14.0000 N.am  402  NAD402     -0.0839
     32  C4N        8.7870   13.8790   17.3650 C.3   402  NAD402      0.0341
     33  C5N        7.6290   14.7570   17.7300 C.3   402  NAD402      0.0264
     34  C6N        6.3520   14.1550   17.7300 C.3   402  NAD402      0.0934
     35  N9A       -5.4450   16.4880   13.1090 N.pl3 402  NAD402     -0.1439
     36  C8A       -5.8670   15.2610   13.5960 C.3   402  NAD402      0.3377
     37  N7A       -6.4570   14.5090   12.6830 N.2   402  NAD402     -0.2095
     38  C5A       -6.4460   15.1990   11.5310 C.2   402  NAD402      0.2526
     39  C6A       -6.9420   14.8990   10.1920 C.2   402  NAD402      0.4393
     40  N6A       -7.5470   13.7680    9.8870 N.pl3 402  NAD402      0.2180
     41  N1A       -6.7210   15.8940    9.2780 N.2   402  NAD402      0.0021
     42  C2A       -6.1260   17.0570    9.5320 C.3   402  NAD402      0.5254
     43  N3A       -5.6650   17.4100   10.7900 N.2   402  NAD402     -0.0055
     44  C4A       -5.8300   16.4410   11.7620 C.2   402  NAD402      0.3518
@<TRIPOS>BOND
     1    41    42    1
     2    41    39    2
     3    42    43    1
     4    40    39    1
     5    39    38    1
     6    43    44    2
     7    38    44    1
     8    38    37    2
     9    44    35    1
    10    37    36    1
    11    35    36    1
    12    35    12    1
    13    12     7    1
    14    12    10    1
    15     7     6    1
    16    31    29   am
    17     6     5    1
    18     6     8    1
    19    11    10    1
    20    10     8    1
    21    29    30    2
    22    29    28    1
    23    19    20    1
    24    19    18    1
    25    19    21    1
    26    20    25    1
    27    22    21    1
    28     5     4    1
    29     8     9    1
    30    27    28    2
    31    27    26    1
    32    18    17    1
    33    28    32    1
    34    25    26    1
    35    25    23    1
    36    21    23    1
    37    26    34    1
    38     4     1    1
    39    23    24    1
    40    32    33    1
    41    17    14    1
    42    16    14    2
    43    33    34    1
    44    13    14    1
    45    13     1    1
    46    14    15    1
    47     1     3    2
    48     1     2    1
