@<TRIPOS>MOLECULE
1heu_NAD_A_1.pdb
 44 48 0 0 0
SMALL
GASTEIGER

@<TRIPOS>ATOM
      1  PA        -1.0180   17.3620   18.2690 P.3   402  NAD402      0.2189
      2  O1A       -0.9770   18.5550   19.1760 O.3   402  NAD402     -0.4371
      3  O2A       -2.0050   16.2700   18.5380 O.2   402  NAD402     -0.5170
      4  O5B       -1.2320   17.9660   16.7960 O.3   402  NAD402     -0.3112
      5  C5B       -1.7890   17.1870   15.6990 C.3   402  NAD402      0.1813
      6  C4B       -2.8040   18.0480   15.0030 C.3   402  NAD402      0.1821
      7  O4B       -3.3710   17.2390   13.9010 O.3   402  NAD402     -0.3135
      8  C3B       -4.0420   18.5230   15.8290 C.3   402  NAD402      0.2184
      9  O3B       -4.1160   19.9830   15.8990 O.3   402  NAD402     -0.2174
     10  C2B       -5.2640   17.9200   15.1390 C.3   402  NAD402      0.2570
     11  O2B       -6.4600   18.6240   15.1440 O.3   402  NAD402     -0.2130
     12  C1B       -4.7220   17.6460   13.7340 C.3   402  NAD402      0.3186
     13  O3         0.4130   16.6710   18.2110 O.3   402  NAD402     -0.2703
     14  PN         1.9820   17.1720   18.2610 P.3   402  NAD402      0.2189
     15  O1N        2.4700   17.1020   19.6590 O.3   402  NAD402     -0.4371
     16  O2N        2.1160   18.4300   17.4750 O.2   402  NAD402     -0.5170
     17  O5D        2.6600   15.9340   17.4760 O.3   402  NAD402     -0.3112
     18  C5D        2.3860   15.7440   16.0570 C.3   402  NAD402      0.1813
     19  C4D        2.8180   14.3990   15.6000 C.3   402  NAD402      0.1799
     20  O4D        4.3130   14.3580   15.5950 O.3   402  NAD402     -0.3327
     21  C3D        2.3930   13.1980   16.4980 C.3   402  NAD402      0.2158
     22  O3D        2.0470   12.0460   15.7230 O.3   402  NAD402     -0.2175
     23  C2D        3.6590   12.8760   17.3370 C.3   402  NAD402      0.2309
     24  O2D        3.6420   11.5620   17.8010 O.3   402  NAD402     -0.2158
     25  C1D        4.7310   13.1320   16.2410 C.3   402  NAD402      0.2261
     26  N1N        6.1260   13.3330   16.7510 N.pl3 402  NAD402     -0.2831
     27  C2N        7.1770   12.9240   15.9090 C.2   402  NAD402      0.0633
     28  C3N        8.4700   13.2310   16.2130 C.2   402  NAD402      0.0490
     29  C7N        9.5870   12.8040   15.2870 C.2   402  NAD402      0.2814
     30  O7N       10.7580   12.8290   15.7200 O.2   402  NAD402     -0.2670
     31  N7N        9.3020   12.3870   14.0280 N.am  402  NAD402     -0.0839
     32  C4N        8.8260   14.0320   17.4320 C.3   402  NAD402      0.0341
     33  C5N        7.6730   14.8980   17.7720 C.3   402  NAD402      0.0264
     34  C6N        6.3850   14.3430   17.6820 C.3   402  NAD402      0.0934
     35  N9A       -5.4120   16.4870   13.1730 N.pl3 402  NAD402     -0.1439
     36  C8A       -5.8200   15.2610   13.6590 C.3   402  NAD402      0.3377
     37  N7A       -6.3920   14.4930   12.7350 N.2   402  NAD402     -0.2095
     38  C5A       -6.4000   15.1730   11.5860 C.2   402  NAD402      0.2526
     39  C6A       -6.9040   14.8460   10.2550 C.2   402  NAD402      0.4393
     40  N6A       -7.4880   13.7160    9.9090 N.pl3 402  NAD402      0.2180
     41  N1A       -6.6730   15.8470    9.3430 N.2   402  NAD402      0.0021
     42  C2A       -6.1110   17.0270    9.5870 C.3   402  NAD402      0.5254
     43  N3A       -5.6430   17.3900   10.8410 N.2   402  NAD402     -0.0055
     44  C4A       -5.7930   16.4300   11.8230 C.2   402  NAD402      0.3518
@<TRIPOS>BOND
     1    41    42    1
     2    41    39    2
     3    42    43    1
     4    40    39    1
     5    39    38    1
     6    43    44    2
     7    38    44    1
     8    38    37    2
     9    44    35    1
    10    37    36    1
    11    35    36    1
    12    35    12    1
    13    12     7    1
    14    12    10    1
    15     7     6    1
    16    31    29   am
    17     6     5    1
    18     6     8    1
    19    10    11    1
    20    10     8    1
    21    29    30    2
    22    29    28    1
    23    20    19    1
    24    20    25    1
    25    19    18    1
    26    19    21    1
    27     5     4    1
    28    22    21    1
    29     8     9    1
    30    27    28    2
    31    27    26    1
    32    18    17    1
    33    28    32    1
    34    25    26    1
    35    25    23    1
    36    21    23    1
    37    26    34    1
    38     4     1    1
    39    23    24    1
    40    32    33    1
    41    16    14    2
    42    17    14    1
    43    34    33    1
    44    13    14    1
    45    13     1    1
    46    14    15    1
    47     1     3    2
    48     1     2    1
