@<TRIPOS>MOLECULE
1hew_NAG_A_1.pdb
 15 15 0 0 0
SMALL
GASTEIGER

@<TRIPOS>ATOM
      1  C1         5.9910   25.2370   25.9800 C.3   201  NAG201      0.2917
      2  C2         4.8500   24.3020   26.4550 C.3   201  NAG201      0.1871
      3  C3         4.0460   24.9910   27.5380 C.3   201  NAG201      0.2095
      4  C4         5.0380   25.5480   28.6180 C.3   201  NAG201      0.2136
      5  C5         6.3140   26.2330   28.1080 C.3   201  NAG201      0.1835
      6  C6         7.3400   26.4660   29.1900 C.3   201  NAG201      0.2142
      7  C7         3.6350   22.6680   25.0080 C.2   201  NAG201      0.2421
      8  C8         2.7370   22.5630   23.8280 C.3   201  NAG201      0.0964
      9  N2         4.0070   23.9390   25.2990 N.am  201  NAG201     -0.1991
     10  O1         6.6920   24.4910   24.9910 O.3   201  NAG201     -0.1879
     11  O3         3.1500   24.0980   28.2160 O.3   201  NAG201     -0.2183
     12  O4         4.1960   26.5710   29.4630 O.3   201  NAG201     -0.2176
     13  O5         6.9360   25.3350   27.1160 O.3   201  NAG201     -0.3242
     14  O6         7.9440   25.1940   29.7180 O.3   201  NAG201     -0.2176
     15  O7         3.9990   21.7860   25.6410 O.2   201  NAG201     -0.2733
@<TRIPOS>BOND
     1     8     7    1
     2    10     1    1
     3     7     9   am
     4     7    15    2
     5     9     2    1
     6     1     2    1
     7     1    13    1
     8     2     3    1
     9    13     5    1
    10     3    11    1
    11     3     4    1
    12     5     4    1
    13     5     6    1
    14     4    12    1
    15     6    14    1
