@<TRIPOS>MOLECULE
1hex_NAD_A_1.pdb
 44 48 0 0 0
SMALL
GASTEIGER

@<TRIPOS>ATOM
      1  PA        36.7590    5.7640   61.5970 P.3   400  NAD400      0.2189
      2  O1A       35.3610    5.5630   62.0300 O.3   400  NAD400     -0.4371
      3  O2A       37.1080    5.6910   60.1610 O.2   400  NAD400     -0.5170
      4  O5B       37.2540    7.1730   62.1960 O.3   400  NAD400     -0.3112
      5  C5B       38.6030    7.6460   62.0380 C.3   400  NAD400      0.1813
      6  C4B       38.7100    9.1680   62.1190 C.3   400  NAD400      0.1821
      7  O4B       38.1460    9.7670   60.9350 O.3   400  NAD400     -0.3135
      8  C3B       37.9640    9.7640   63.3060 C.3   400  NAD400      0.2184
      9  O3B       38.5520   10.9670   63.8210 O.3   400  NAD400     -0.2174
     10  C2B       36.6110   10.0800   62.7160 C.3   400  NAD400      0.2570
     11  O2B       35.9260   11.0790   63.4670 O.3   400  NAD400     -0.2130
     12  C1B       36.9810   10.5230   61.3240 C.3   400  NAD400      0.3186
     13  N9A       35.8250   10.3810   60.4100 N.pl3 400  NAD400     -0.1439
     14  C8A       35.3630    9.2520   59.8490 C.3   400  NAD400      0.3377
     15  N7A       34.3060    9.5070   59.0700 N.2   400  NAD400     -0.2095
     16  C5A       34.1330   10.8160   59.1750 C.2   400  NAD400      0.2526
     17  C6A       33.1580   11.5630   58.5280 C.2   400  NAD400      0.4393
     18  N6A       32.2480   11.0260   57.7230 N.pl3 400  NAD400      0.2180
     19  N1A       33.1800   12.8910   58.7630 N.2   400  NAD400      0.0021
     20  C2A       34.0850   13.4550   59.5660 C.3   400  NAD400      0.5254
     21  N3A       35.0160   12.7300   60.1830 N.2   400  NAD400     -0.0055
     22  C4A       35.0670   11.3930   60.0010 C.2   400  NAD400      0.3518
     23  O3        37.6450    4.6870   62.3860 O.3   400  NAD400     -0.2703
     24  PN        37.7010    4.1170   63.8940 P.3   400  NAD400      0.2189
     25  O1N       38.6230    2.9520   63.8770 O.2   400  NAD400     -0.5170
     26  O2N       37.9640    5.2470   64.8220 O.3   400  NAD400     -0.4371
     27  O5D       36.1940    3.5940   64.1650 O.3   400  NAD400     -0.3112
     28  C5D       35.7190    2.4310   63.4720 C.3   400  NAD400      0.1813
     29  C4D       34.8170    1.5690   64.3450 C.3   400  NAD400      0.1799
     30  O4D       34.5110    0.3840   63.5770 O.3   400  NAD400     -0.3327
     31  C3D       35.5150    1.1310   65.6340 C.3   400  NAD400      0.2158
     32  O3D       34.7970    1.5300   66.8110 O.3   400  NAD400     -0.2175
     33  C2D       35.6390   -0.3860   65.5520 C.3   400  NAD400      0.2309
     34  O2D       34.9280   -1.0760   66.5820 O.3   400  NAD400     -0.2158
     35  C1D       35.0810   -0.7890   64.2110 C.3   400  NAD400      0.2263
     36  N1N       36.1300   -1.4990   63.4460 N.pl3 400  NAD400     -0.2787
     37  C2N       36.1980   -2.9050   63.5020 C.3   400  NAD400      0.1244
     38  C3N       37.1990   -3.5920   62.7960 C.2   400  NAD400      0.0544
     39  C7N       37.3030   -5.1380   62.7840 C.2   400  NAD400      0.2818
     40  O7N       38.1680   -5.6920   62.1100 O.2   400  NAD400     -0.2670
     41  N7N       36.3920   -5.7970   63.4860 N.am  400  NAD400     -0.0839
     42  C4N       38.1210   -2.8570   62.0450 C.2   400  NAD400      0.0033
     43  C5N       38.0700   -1.4590   61.9780 C.2   400  NAD400      0.0157
     44  C6N       37.0820   -0.7750   62.6870 C.2   400  NAD400      0.0633
@<TRIPOS>BOND
     1    18    17    1
     2    17    19    2
     3    17    16    1
     4    19    20    1
     5    15    16    2
     6    15    14    1
     7    16    22    1
     8    20    21    1
     9    14    13    1
    10    22    21    2
    11    22    13    1
    12     3     1    2
    13    13    12    1
    14     7    12    1
    15     7     6    1
    16    12    10    1
    17     1     2    1
    18     1     4    1
    19     1    23    1
    20    43    42    1
    21    43    44    2
    22     5     6    1
    23     5     4    1
    24    42    38    2
    25    40    39    2
    26     6     8    1
    27    23    24    1
    28    44    36    1
    29    10     8    1
    30    10    11    1
    31    39    38    1
    32    39    41   am
    33    38    37    1
    34     8     9    1
    35    36    37    1
    36    36    35    1
    37    28    27    1
    38    28    29    1
    39    30    35    1
    40    30    29    1
    41    25    24    2
    42    24    27    1
    43    24    26    1
    44    35    33    1
    45    29    31    1
    46    33    31    1
    47    33    34    1
    48    31    32    1
