@<TRIPOS>MOLECULE
1hf3_NAD_A_1.pdb
 44 48 0 0 0
SMALL
GASTEIGER

@<TRIPOS>ATOM
      1  PA        22.0850   17.9870   19.4800 P.3   402  NAD402      0.2189
      2  O1A       21.5830   18.9360   20.4850 O.3   402  NAD402     -0.4371
      3  O2A       23.2800   18.0160   18.5940 O.2   402  NAD402     -0.5170
      4  O5B       22.0740   16.5800   20.2250 O.3   402  NAD402     -0.3112
      5  C5B       22.7540   15.4240   19.6340 C.3   402  NAD402      0.1813
      6  C4B       23.2610   14.6800   20.8280 C.3   402  NAD402      0.1821
      7  O4B       23.7700   13.4260   20.2170 O.3   402  NAD402     -0.3135
      8  C3B       24.5410   15.3190   21.5450 C.3   402  NAD402      0.2184
      9  O3B       24.2810   15.1730   23.0040 O.3   402  NAD402     -0.2174
     10  C2B       25.7160   14.4810   21.1190 C.3   402  NAD402      0.2570
     11  O2B       26.7370   14.3180   21.9890 O.3   402  NAD402     -0.2130
     12  C1B       24.9480   13.1380   20.9100 C.3   402  NAD402      0.3186
     13  O3        20.8910   17.8010   18.4720 O.3   402  NAD402     -0.2703
     14  PN        19.3080   18.1180   18.5970 P.3   402  NAD402      0.2189
     15  O1N       19.0570   19.4770   18.2750 O.2   402  NAD402     -0.5170
     16  O2N       18.7410   17.4300   19.7730 O.3   402  NAD402     -0.4371
     17  O5D       18.7440   17.2890   17.3120 O.3   402  NAD402     -0.3112
     18  C5D       18.8290   15.8340   17.3740 C.3   402  NAD402      0.1813
     19  C4D       18.7150   15.3090   16.0010 C.3   402  NAD402      0.1799
     20  O4D       17.2390   15.4690   15.7140 O.3   402  NAD402     -0.3327
     21  C3D       19.3930   16.0730   14.7920 C.3   402  NAD402      0.2158
     22  O3D       19.6870   15.0590   13.9000 O.3   402  NAD402     -0.2175
     23  C2D       18.3130   17.0130   14.2140 C.3   402  NAD402      0.2309
     24  O2D       18.4750   17.3370   12.8930 O.3   402  NAD402     -0.2158
     25  C1D       17.1120   16.0270   14.4030 C.3   402  NAD402      0.2263
     26  N1N       15.7300   16.6810   14.3190 N.pl3 402  NAD402     -0.2787
     27  C2N       14.7750   16.0170   13.6150 C.3   402  NAD402      0.1244
     28  C3N       13.5000   16.4540   13.7790 C.2   402  NAD402      0.0544
     29  C7N       12.4230   15.6640   13.1690 C.2   402  NAD402      0.2818
     30  O7N       11.2640   16.1640   12.8720 O.2   402  NAD402     -0.2670
     31  N7N       12.5120   14.2570   13.0080 N.am  402  NAD402     -0.0839
     32  C4N       13.1270   17.7250   14.5330 C.2   402  NAD402      0.0033
     33  C5N       14.2960   18.3610   15.1040 C.2   402  NAD402      0.0157
     34  C6N       15.5420   17.9010   14.9930 C.2   402  NAD402      0.0633
     35  N9A       25.7270   12.3500   19.9740 N.pl3 402  NAD402     -0.1439
     36  C8A       26.3200   12.6950   18.7900 C.3   402  NAD402      0.3377
     37  N7A       26.9900   11.7570   18.1780 N.2   402  NAD402     -0.2095
     38  C5A       26.8800   10.6720   18.9560 C.2   402  NAD402      0.2526
     39  C6A       27.3950    9.3050   18.7730 C.2   402  NAD402      0.4393
     40  N6A       28.1340    8.8570   17.7870 N.pl3 402  NAD402      0.2180
     41  N1A       27.0180    8.4860   19.8120 N.2   402  NAD402      0.0021
     42  C2A       26.2920    8.7890   20.8740 C.3   402  NAD402      0.5254
     43  N3A       25.7870   10.0580   21.0690 N.2   402  NAD402     -0.0055
     44  C4A       26.0810   10.9920   20.0780 C.2   402  NAD402      0.3518
@<TRIPOS>BOND
     1    30    29    2
     2    24    23    1
     3    31    29   am
     4    29    28    1
     5    27    28    1
     6    27    26    1
     7    28    32    2
     8    22    21    1
     9    23    25    1
    10    23    21    1
    11    26    25    1
    12    26    34    1
    13    25    20    1
    14    32    33    1
    15    21    19    1
    16    34    33    2
    17    20    19    1
    18    19    18    1
    19    17    18    1
    20    17    14    1
    21    40    39    1
    22    37    36    1
    23    37    38    2
    24    15    14    2
    25    13    14    1
    26    13     1    1
    27     3     1    2
    28    14    16    1
    29    39    38    1
    30    39    41    2
    31    36    35    1
    32    38    44    1
    33     1     4    1
    34     1     2    1
    35     5     4    1
    36     5     6    1
    37    41    42    1
    38    35    44    1
    39    35    12    1
    40    44    43    2
    41     7     6    1
    42     7    12    1
    43     6     8    1
    44    42    43    1
    45    12    10    1
    46    10     8    1
    47    10    11    1
    48     8     9    1
