@<TRIPOS>MOLECULE
1hf6_CTR_A_1.pdb
 32 33 0 0 0
SMALL
GASTEIGER

@<TRIPOS>ATOM
      1  C1A       57.6050   50.0870   37.9050 C.3   500  CTR500      0.2695
      2  C2A       56.9480   50.6870   39.1480 C.3   500  CTR500      0.2406
      3  C3A       55.7660   51.5620   38.7710 C.3   500  CTR500      0.2198
      4  C4A       56.1930   52.6520   37.7760 C.3   500  CTR500      0.2144
      5  C5A       56.8480   51.9660   36.5960 C.3   500  CTR500      0.1835
      6  C6A       57.3680   52.9120   35.5610 C.3   500  CTR500      0.2142
      7  O2A       56.5200   49.6060   40.0020 O.3   500  CTR500     -0.2149
      8  O3A       55.2630   52.1920   39.9640 O.3   500  CTR500     -0.2174
      9  O4A       55.0740   53.3990   37.2780 O.3   500  CTR500     -0.2176
     10  O5A       57.9620   51.2380   37.0930 O.3   500  CTR500     -0.3256
     11  O6A       58.2630   53.8570   36.1560 O.3   500  CTR500     -0.2176
     12  C1B       61.1080   46.3990   36.8370 C.3   500  CTR500      0.2695
     13  C2B       61.4390   47.8060   36.3770 C.3   500  CTR500      0.2404
     14  C3B       60.8550   48.8140   37.3720 C.3   500  CTR500      0.2167
     15  C4B       59.3630   48.6260   37.3640 C.3   500  CTR500      0.1804
     16  C5B       59.1040   47.1690   37.8190 C.3   500  CTR500      0.1803
     17  C6B       57.6710   46.7460   37.9100 C.3   500  CTR500      0.2141
     18  O2B       62.8840   47.9540   36.3270 O.3   500  CTR500     -0.2149
     19  O3B       61.0680   50.1280   36.9730 O.3   500  CTR500     -0.2175
     20  O4B       58.7550   49.4790   38.3640 O.3   500  CTR500     -0.3257
     21  O5B       59.6800   46.3120   36.8210 O.3   500  CTR500     -0.3257
     22  O6B       57.0420   46.8940   36.6390 O.3   500  CTR500     -0.2176
     23  C2C       60.8970   42.0300   35.0630 C.3   500  CTR500      0.2174
     24  C3C       60.9350   43.5110   34.7690 C.3   500  CTR500      0.2143
     25  C4C       61.4440   44.2240   35.9960 C.3   500  CTR500      0.1835
     26  C5C       62.7970   43.7760   36.4570 C.3   500  CTR500      0.2143
     27  C6C       63.3530   44.4250   37.7050 C.3   500  CTR500      0.2174
     28  O2C       60.5270   41.2960   34.0440 O.3   500  CTR500     -0.2175
     29  O3C       59.6420   43.9410   34.3680 O.3   500  CTR500     -0.2176
     30  O4C       61.5620   45.5600   35.8050 O.3   500  CTR500     -0.3256
     31  O5C       62.7370   42.3720   36.8430 O.3   500  CTR500     -0.2176
     32  O6C       62.5230   44.0410   38.8350 O.3   500  CTR500     -0.2175
@<TRIPOS>BOND
     1    28    23    1
     2    29    24    1
     3    24    23    1
     4    24    25    1
     5     6    11    1
     6     6     5    1
     7    30    25    1
     8    30    12    1
     9    25    26    1
    10    18    13    1
    11    13    12    1
    12    13    14    1
    13    26    31    1
    14    26    27    1
    15     5    10    1
    16     5     4    1
    17    22    17    1
    18    21    12    1
    19    21    16    1
    20    19    14    1
    21    10     1    1
    22     9     4    1
    23    15    14    1
    24    15    16    1
    25    15    20    1
    26    27    32    1
    27     4     3    1
    28    16    17    1
    29     1    20    1
    30     1     2    1
    31     3     2    1
    32     3     8    1
    33     2     7    1
