@<TRIPOS>MOLECULE
1hfa_PIO_A_1.pdb
 24 24 0 0 0
SMALL
GASTEIGER

@<TRIPOS>ATOM
      1  C1        41.5770   69.3680   39.8650 C.3   300  PIO300      0.1918
      2  C2        41.9640   69.2580   38.3780 C.3   300  PIO300      0.2147
      3  C3        42.5950   67.8970   38.0270 C.3   300  PIO300      0.2146
      4  C4        41.8580   66.6310   38.5520 C.3   300  PIO300      0.1892
      5  C5        41.7080   66.7240   40.0720 C.3   300  PIO300      0.1891
      6  C6        40.9720   68.0450   40.4340 C.3   300  PIO300      0.2120
      7  O1        40.7550   70.5420   40.0680 O.3   300  PIO300     -0.2673
      8  O2        40.8590   69.5740   37.4940 O.3   300  PIO300     -0.2176
      9  O3        42.6960   67.9090   36.6040 O.3   300  PIO300     -0.2176
     10  O4        42.5790   65.4440   38.2890 O.3   300  PIO300     -0.2674
     11  O5        41.0320   65.6100   40.6640 O.3   300  PIO300     -0.2674
     12  O6        40.9380   68.1230   41.8710 O.3   300  PIO300     -0.2177
     13  P1        41.2520   72.0080   40.6790 P.3   300  PIO300      0.5327
     14  O11       41.7870   71.8110   42.2060 O.3   300  PIO300     -0.1145
     15  O12       40.1300   73.1470   40.3610 O.3   300  PIO300     -0.1145
     16  O13       42.5420   72.3210   39.7300 O.2   300  PIO300     -0.2224
     17  P4        42.3360   64.4370   37.0230 P.3   300  PIO300      0.5327
     18  O41       40.7410   64.2280   37.0370 O.3   300  PIO300     -0.1145
     19  O42       42.8860   65.2260   35.7100 O.2   300  PIO300     -0.2224
     20  O43       43.3090   63.2060   37.3570 O.3   300  PIO300     -0.1145
     21  P5        41.5180   64.8990   42.0350 P.3   300  PIO300      0.5327
     22  O53       43.0730   64.4950   41.9090 O.2   300  PIO300     -0.2224
     23  O52       41.1850   65.9700   43.1920 O.3   300  PIO300     -0.1145
     24  O51       40.5130   63.6840   42.0370 O.3   300  PIO300     -0.1145
@<TRIPOS>BOND
     1    19    17    2
     2     9     3    1
     3    17    18    1
     4    17    20    1
     5    17    10    1
     6     8     2    1
     7     3     2    1
     8     3     4    1
     9    10     4    1
    10     2     1    1
    11     4     5    1
    12    16    13    2
    13     1     7    1
    14     1     6    1
    15     7    13    1
    16     5     6    1
    17     5    11    1
    18    15    13    1
    19     6    12    1
    20    11    21    1
    21    13    14    1
    22    22    21    2
    23    21    24    1
    24    21    23    1
