@<TRIPOS>MOLECULE
1hfb_PEP_A_1.pdb
 10 9 0 0 0
SMALL
GASTEIGER

@<TRIPOS>ATOM
      1  C1        27.2140    2.4090   29.4070 C.2   500  PEP500      0.3919
      2  O1        26.1320    2.3300   30.0290 O.co2 500  PEP500     -0.2429
      3  O2'       27.8630    1.4060   29.0260 O.co2 500  PEP500     -0.2429
      4  C2        27.7640    3.7610   29.0800 C.3   500  PEP500      0.2285
      5  C3        26.9640    4.7850   29.5550 C.3   500  PEP500      0.0450
      6  O2        29.1000    3.9610   28.2590 O.3   500  PEP500     -0.2611
      7  P         30.0440    5.2070   28.3850 P.3   500  PEP500      0.5330
      8  O1P       30.3990    5.3320   29.8210 O.3   500  PEP500     -0.1145
      9  O2P       29.2720    6.3890   27.8900 O.3   500  PEP500     -0.1145
     10  O3P       31.2210    4.8960   27.5370 O.2   500  PEP500     -0.2224
@<TRIPOS>BOND
     1    10     7    2
     2     9     7    1
     3     6     7    1
     4     6     4    1
     5     7     8    1
     6     3     1   ar
     7     4     1    1
     8     4     5    1
     9     1     2   ar
