@<TRIPOS>MOLECULE
1hfc_PLH_A_1.pdb
 25 25 0 0 0
SMALL
GASTEIGER

@<TRIPOS>ATOM
      1  C1        21.1420   23.3300   26.8000 C.2   280  PLH280      0.0873
      2  C2        22.6380   23.4260   26.4960 C.3   280  PLH280      0.0603
      3  C3        22.9780   23.1650   24.9880 C.3   280  PLH280      0.0845
      4  C4        22.1780   24.0470   23.9970 C.3   280  PLH280      0.0095
      5  C5        22.2300   23.6020   22.4980 C.3   280  PLH280      0.0005
      6  C6        21.5760   22.2700   22.2320 C.3   280  PLH280      0.0000
      7  C7        21.5770   24.6900   21.6610 C.3   280  PLH280      0.0000
      8  C8        24.4540   23.2130   24.6480 C.2   280  PLH280      0.2417
      9  C9        26.4650   21.9820   24.2310 C.3   280  PLH280      0.1770
     10  C10       26.8650   22.2310   22.8270 C.2   280  PLH280      0.2616
     11  C11       28.3790   23.4890   21.4220 C.3   280  PLH280      0.1386
     12  C12       26.9070   20.5340   24.5860 C.3   280  PLH280      0.0574
     13  C13       28.4110   20.3870   24.5400 C.ar  280  PLH280     -0.0200
     14  C14       29.1820   20.8350   25.6090 C.ar  280  PLH280     -0.0042
     15  C15       30.5860   20.6820   25.5580 C.ar  280  PLH280     -0.0003
     16  C16       31.1310   20.2000   24.3970 C.ar  280  PLH280     -0.0000
     17  C17       30.4180   19.6040   23.4160 C.ar  280  PLH280     -0.0003
     18  C18       29.0030   19.6880   23.4810 C.ar  280  PLH280     -0.0042
     19  N1        20.4910   24.4210   27.0410 N.am  280  PLH280     -0.2030
     20  N2        25.0010   22.0420   24.3280 N.am  280  PLH280     -0.1974
     21  N3        27.8780   23.1290   22.7000 N.am  280  PLH280     -0.2021
     22  O1        19.1430   24.1650   27.2030 O.3   280  PLH280     -0.4026
     23  O2        20.7600   22.1410   26.7350 O.2   280  PLH280     -0.5395
     24  O3        25.0240   24.2730   24.8060 O.2   280  PLH280     -0.2733
     25  O4        26.3960   21.6290   21.8480 O.2   280  PLH280     -0.2715
@<TRIPOS>BOND
     1    11    21    1
     2     7     5    1
     3    25    10    2
     4     6     5    1
     5     5     4    1
     6    21    10   am
     7    10     9    1
     8    17    18   ar
     9    17    16   ar
    10    18    13   ar
    11     4     3    1
    12     9    20    1
    13     9    12    1
    14    20     8   am
    15    16    15   ar
    16    13    12    1
    17    13    14   ar
    18     8    24    2
    19     8     3    1
    20     3     2    1
    21    15    14   ar
    22     2     1    1
    23    23     1    2
    24     1    19   am
    25    19    22    1
