@<TRIPOS>MOLECULE
1hfp_MOT_A_1.pdb
 32 34 0 0 0
SMALL
GASTEIGER

@<TRIPOS>ATOM
      1  N1        28.8100   12.9600   -4.4750 N.2   188  MOT188     -0.2915
      2  C2        27.5390   12.6870   -4.5580 C.1   188  MOT188      0.2450
      3  NA2       27.1640   12.5240   -5.8600 N.pl3 188  MOT188     -0.0231
      4  N3        26.8270   12.5960   -3.4930 N.2   188  MOT188     -0.3110
      5  C4        27.2820   12.7830   -2.3090 C.2   188  MOT188      0.2236
      6  NA4       26.3930   12.6430   -1.3490 N.pl3 188  MOT188     -0.0961
      7  C4A       28.5410   13.0690   -2.1600 C.3   188  MOT188      0.1838
      8  C6        29.5460   13.3050   -1.1360 C.2   188  MOT188      0.0309
      9  C7        30.6810   13.4660   -1.8020 C.2   188  MOT188      0.1762
     10  O8        30.5500   13.3360   -2.9980 O.2   188  MOT188     -0.4268
     11  C8A       29.3240   13.0930   -3.2470 C.2   188  MOT188      0.2811
     12  C9        29.3920   13.3750    0.3680 C.3   188  MOT188      0.1176
     13  N10       30.5530   14.0610    1.0430 N.pl3 188  MOT188     -0.3020
     14  CM        31.4020   13.0310    1.6820 C.3   188  MOT188      0.1125
     15  C11       31.6640   18.0470    0.3070 C.ar  188  MOT188      0.0551
     16  C12       30.4270   17.5570   -0.0310 C.ar  188  MOT188      0.0058
     17  C13       30.0290   16.2790    0.2050 C.ar  188  MOT188      0.0147
     18  C14       30.8410   15.3670    0.8030 C.ar  188  MOT188      0.0481
     19  C15       32.0520   15.8690    1.1280 C.ar  188  MOT188      0.0147
     20  C16       32.4580   17.1230    0.9210 C.ar  188  MOT188      0.0058
     21  C         32.0640   19.3210    0.0390 C.2   188  MOT188      0.2655
     22  O         33.1740   19.7400    0.3830 O.2   188  MOT188     -0.2683
     23  N         31.2640   20.1510   -0.6650 N.am  188  MOT188     -0.1872
     24  CA        31.3780   21.5000   -1.1990 C.3   188  MOT188      0.2202
     25  CT        29.9530   22.0340   -1.3640 C.2   188  MOT188      0.3884
     26  O1        29.1880   21.1100   -1.4790 O.co2 188  MOT188     -0.2434
     27  O2        29.7530   23.2370   -1.4510 O.co2 188  MOT188     -0.2434
     28  CB        31.7300   21.6170   -2.7330 C.2   188  MOT188      0.0133
     29  CG        33.1490   21.3560   -3.0940 C.2   188  MOT188      0.0838
     30  CD        33.5020   21.3120   -4.5610 C.2   188  MOT188      0.3877
     31  OE1       33.5100   20.2010   -5.0010 O.co2 188  MOT188     -0.2406
     32  OE2       33.7770   22.3640   -5.1200 O.co2 188  MOT188     -0.2406
@<TRIPOS>BOND
     1     3     2    1
     2    32    30   ar
     3    31    30   ar
     4    30    29    1
     5     2     1    2
     6     2     4    2
     7     1    11    2
     8     4     5    2
     9    11    10    1
    10    11     7    1
    11    29    28    2
    12    10     9    1
    13    28    24    1
    14     5     7    1
    15     5     6    1
    16     7     8    1
    17     9     8    2
    18    26    25   ar
    19    27    25   ar
    20    25    24    1
    21    24    23    1
    22     8    12    1
    23    23    21   am
    24    16    17   ar
    25    16    15   ar
    26    21    15    1
    27    21    22    2
    28    17    18   ar
    29    15    20   ar
    30    12    13    1
    31    18    13    1
    32    18    19   ar
    33    20    19   ar
    34    13    14    1
