@<TRIPOS>MOLECULE
1hfp_NAP_A_1.pdb
 48 52 0 0 0
SMALL
GASTEIGER

@<TRIPOS>ATOM
      1  PA        26.4810    8.5330    8.7360 P.3   187  NAP187      0.2189
      2  O1A       27.0460    9.7750    8.1970 O.2   187  NAP187     -0.5170
      3  O2A       25.2350    7.9560    8.3670 O.3   187  NAP187     -0.4371
      4  O5B       26.7880    8.5780   10.3750 O.3   187  NAP187     -0.3112
      5  C5B       26.0050    7.5690   11.1540 C.3   187  NAP187      0.1813
      6  C4B       25.8280    8.3570   12.4820 C.3   187  NAP187      0.1820
      7  O4B       24.9980    9.2660   12.2620 O.3   187  NAP187     -0.3136
      8  C3B       25.1150    7.3270   13.5180 C.3   187  NAP187      0.2157
      9  O3B       26.2680    6.8660   14.3720 O.3   187  NAP187     -0.2175
     10  C2B       24.2080    8.3600   14.2380 C.3   187  NAP187      0.2314
     11  O2B       24.9180    9.1780   15.0320 O.3   187  NAP187     -0.2630
     12  C1B       23.7860    9.2540   13.0070 C.3   187  NAP187      0.3158
     13  N9A       22.6510    8.7610   12.2960 N.pl3 187  NAP187     -0.1439
     14  C8A       22.6900    8.0900   11.1220 C.3   187  NAP187      0.3377
     15  N7A       21.4980    7.7410   10.6980 N.2   187  NAP187     -0.2095
     16  C5A       20.6300    8.2970   11.6980 C.2   187  NAP187      0.2526
     17  C6A       19.1000    8.3570   11.9590 C.2   187  NAP187      0.4393
     18  N6A       18.1990    7.8150   11.1210 N.pl3 187  NAP187      0.2180
     19  N1A       18.6580    8.9500   13.0770 N.2   187  NAP187      0.0021
     20  C2A       19.5580    9.4940   13.8860 C.3   187  NAP187      0.5254
     21  N3A       20.8800    9.4550   13.7750 N.2   187  NAP187     -0.0055
     22  C4A       21.3740    8.8540   12.6290 C.2   187  NAP187      0.3518
     23  O3        27.6810    7.5800    8.3780 O.3   187  NAP187     -0.2703
     24  PN        28.1730    6.3760    7.4790 P.3   187  NAP187      0.2189
     25  O1N       27.2350    5.6280    6.6820 O.2   187  NAP187     -0.5170
     26  O2N       28.8100    5.5270    8.4200 O.3   187  NAP187     -0.4371
     27  O5D       29.3150    7.0010    6.5880 O.3   187  NAP187     -0.3112
     28  C5D       29.9400    8.1140    6.0660 C.3   187  NAP187      0.1813
     29  C4D       30.9930    7.4480    5.1650 C.3   187  NAP187      0.1799
     30  O4D       30.6470    7.4200    3.7370 O.3   187  NAP187     -0.3327
     31  C3D       32.3660    8.2500    5.1770 C.3   187  NAP187      0.2158
     32  O3D       33.2920    7.1960    4.8200 O.3   187  NAP187     -0.2175
     33  C2D       31.9950    9.3940    4.2130 C.3   187  NAP187      0.2309
     34  O2D       33.1140   10.0010    3.6750 O.3   187  NAP187     -0.2158
     35  C1D       31.2990    8.6250    3.1060 C.3   187  NAP187      0.2263
     36  N1N       30.1130    9.1810    2.3030 N.pl3 187  NAP187     -0.2787
     37  C2N       30.1610    9.0060    0.9070 C.3   187  NAP187      0.1244
     38  C3N       29.1000    9.4470    0.1890 C.2   187  NAP187      0.0544
     39  C7N       29.2090    9.2290   -1.2960 C.2   187  NAP187      0.2818
     40  O7N       28.2400    9.6280   -1.8670 O.2   187  NAP187     -0.2670
     41  N7N       30.2150    8.6330   -1.8950 N.am  187  NAP187     -0.0839
     42  C4N       27.8520   10.1110    0.8030 C.2   187  NAP187      0.0033
     43  C5N       27.9960   10.2190    2.2820 C.2   187  NAP187      0.0157
     44  C6N       29.0410    9.7860    2.9770 C.2   187  NAP187      0.0633
     45  P2B       25.0070    8.9400   16.7410 P.3   187  NAP187      0.5328
     46  O1X       23.6100    8.7000   17.1090 O.3   187  NAP187     -0.1145
     47  O2X       25.5830   10.2710   17.1100 O.3   187  NAP187     -0.1145
     48  O3X       25.9570    7.8160   16.8030 O.2   187  NAP187     -0.2224
@<TRIPOS>BOND
     1    41    39   am
     2    40    39    2
     3    39    38    1
     4    38    42    2
     5    38    37    1
     6    42    43    1
     7    37    36    1
     8    43    44    2
     9    36    44    1
    10    36    35    1
    11    35    30    1
    12    35    33    1
    13    34    33    1
    14    30    29    1
    15    33    31    1
    16    32    31    1
    17    29    31    1
    18    29    28    1
    19    28    27    1
    20    27    24    1
    21    25    24    2
    22    24    23    1
    23    24    26    1
    24     2     1    2
    25     3     1    1
    26    23     1    1
    27     1     4    1
    28     4     5    1
    29    15    14    1
    30    15    16    2
    31    18    17    1
    32    14    13    1
    33     5     6    1
    34    16    17    1
    35    16    22    1
    36    17    19    2
    37     7     6    1
    38     7    12    1
    39    13    22    1
    40    13    12    1
    41     6     8    1
    42    22    21    2
    43    12    10    1
    44    19    20    1
    45     8    10    1
    46     8     9    1
    47    21    20    1
    48    10    11    1
    49    11    45    1
    50    45    48    2
    51    45    46    1
    52    45    47    1
