@<TRIPOS>MOLECULE
1hfq_NAP_A_1.pdb
 48 52 0 0 0
SMALL
GASTEIGER

@<TRIPOS>ATOM
      1  PA        26.7630    8.6750    8.6940 P.3   187  NAP187      0.2189
      2  O1A       27.3240    9.9030    8.1700 O.2   187  NAP187     -0.5170
      3  O2A       25.5250    8.1230    8.3300 O.3   187  NAP187     -0.4371
      4  O5B       27.0770    8.7350   10.3430 O.3   187  NAP187     -0.3112
      5  C5B       26.4750    7.7010   11.1910 C.3   187  NAP187      0.1813
      6  C4B       26.0950    8.5730   12.4480 C.3   187  NAP187      0.1820
      7  O4B       25.1470    9.4100   12.1790 O.3   187  NAP187     -0.3136
      8  C3B       25.3550    7.4870   13.4220 C.3   187  NAP187      0.2157
      9  O3B       26.4400    6.8800   14.3250 O.3   187  NAP187     -0.2175
     10  C2B       24.4730    8.4890   14.2650 C.3   187  NAP187      0.2314
     11  O2B       25.2980    9.3730   14.9640 O.3   187  NAP187     -0.2630
     12  C1B       23.9950    9.4360   13.0480 C.3   187  NAP187      0.3158
     13  N9A       22.8810    8.9170   12.3710 N.pl3 187  NAP187     -0.1439
     14  C8A       22.9470    8.1850   11.2130 C.3   187  NAP187      0.3377
     15  N7A       21.7540    7.8380   10.8270 N.2   187  NAP187     -0.2095
     16  C5A       20.8510    8.3930   11.8180 C.2   187  NAP187      0.2526
     17  C6A       19.3230    8.4830   12.1170 C.2   187  NAP187      0.4393
     18  N6A       18.3090    7.9430   11.3850 N.pl3 187  NAP187      0.2180
     19  N1A       18.9500    9.1080   13.2480 N.2   187  NAP187      0.0021
     20  C2A       19.8410    9.7100   14.0110 C.3   187  NAP187      0.5254
     21  N3A       21.1890    9.6460   13.8800 N.2   187  NAP187     -0.0055
     22  C4A       21.6150    8.9710   12.7060 C.2   187  NAP187      0.3518
     23  O3        27.9240    7.6660    8.3840 O.3   187  NAP187     -0.2703
     24  PN        28.4730    6.3910    7.4400 P.3   187  NAP187      0.2189
     25  O1N       27.5100    5.5640    6.7940 O.2   187  NAP187     -0.5170
     26  O2N       29.1340    5.7050    8.4680 O.3   187  NAP187     -0.4371
     27  O5D       29.6030    7.0550    6.5970 O.3   187  NAP187     -0.3112
     28  C5D       30.2310    8.1720    6.0280 C.3   187  NAP187      0.1813
     29  C4D       31.2620    7.4900    5.0400 C.3   187  NAP187      0.1799
     30  O4D       30.7840    7.5590    3.6070 O.3   187  NAP187     -0.3327
     31  C3D       32.5800    8.4210    5.0640 C.3   187  NAP187      0.2158
     32  O3D       33.6040    7.3950    4.8380 O.3   187  NAP187     -0.2175
     33  C2D       32.1840    9.5440    4.1180 C.3   187  NAP187      0.2309
     34  O2D       33.3250   10.1390    3.5810 O.3   187  NAP187     -0.2158
     35  C1D       31.4480    8.7660    3.0110 C.3   187  NAP187      0.2263
     36  N1N       30.2840    9.3830    2.2560 N.pl3 187  NAP187     -0.2787
     37  C2N       30.3760    9.1520    0.8020 C.3   187  NAP187      0.1244
     38  C3N       29.2940    9.5550    0.1250 C.2   187  NAP187      0.0544
     39  C7N       29.4180    9.3740   -1.4020 C.2   187  NAP187      0.2818
     40  O7N       28.4040    9.8150   -1.9090 O.2   187  NAP187     -0.2670
     41  N7N       30.3700    8.6530   -1.9530 N.am  187  NAP187     -0.0839
     42  C4N       28.0640   10.2580    0.7060 C.2   187  NAP187      0.0033
     43  C5N       28.0990   10.3180    2.2230 C.2   187  NAP187      0.0157
     44  C6N       29.1980    9.9740    2.9930 C.2   187  NAP187      0.0633
     45  P2B       25.3910    8.9540   16.6490 P.3   187  NAP187      0.5328
     46  O1X       23.9830    8.8270   17.0700 O.3   187  NAP187     -0.1145
     47  O2X       26.0200   10.2230   17.0160 O.3   187  NAP187     -0.1145
     48  O3X       26.4100    7.8970   16.6430 O.2   187  NAP187     -0.2224
@<TRIPOS>BOND
     1    41    39   am
     2    40    39    2
     3    39    38    1
     4    38    42    2
     5    38    37    1
     6    42    43    1
     7    37    36    1
     8    43    44    2
     9    36    44    1
    10    36    35    1
    11    35    30    1
    12    35    33    1
    13    34    33    1
    14    30    29    1
    15    33    31    1
    16    32    31    1
    17    29    31    1
    18    29    28    1
    19    28    27    1
    20    27    24    1
    21    25    24    2
    22    24    23    1
    23    24    26    1
    24     2     1    2
    25     3     1    1
    26    23     1    1
    27     1     4    1
    28     4     5    1
    29    15    14    1
    30    15    16    2
    31     5     6    1
    32    14    13    1
    33    18    17    1
    34    16    17    1
    35    16    22    1
    36    17    19    2
    37     7     6    1
    38     7    12    1
    39    13    22    1
    40    13    12    1
    41     6     8    1
    42    22    21    2
    43    12    10    1
    44    19    20    1
    45     8    10    1
    46     8     9    1
    47    21    20    1
    48    10    11    1
    49    11    45    1
    50    48    45    2
    51    45    47    1
    52    45    46    1
