@<TRIPOS>MOLECULE
1hfq_MOT_A_1.pdb
 32 34 0 0 0
SMALL
GASTEIGER

@<TRIPOS>ATOM
      1  N1        29.1130   13.1860   -4.5990 N.2   188  MOT188     -0.2915
      2  C2        27.8120   12.8150   -4.5700 C.1   188  MOT188      0.2450
      3  NA2       27.3440   12.6440   -5.9270 N.pl3 188  MOT188     -0.0231
      4  N3        27.0400   12.6810   -3.6050 N.2   188  MOT188     -0.3110
      5  C4        27.4980   12.9200   -2.3620 C.2   188  MOT188      0.2236
      6  NA4       26.6500   12.7370   -1.4390 N.pl3 188  MOT188     -0.0961
      7  C4A       28.8100   13.1270   -2.1930 C.3   188  MOT188      0.1838
      8  C6        29.8370   13.4080   -1.2180 C.2   188  MOT188      0.0309
      9  C7        30.9600   13.6400   -1.8670 C.2   188  MOT188      0.1762
     10  O8        30.8120   13.4820   -3.1680 O.2   188  MOT188     -0.4268
     11  C8A       29.5960   13.2640   -3.3230 C.2   188  MOT188      0.2811
     12  C9        29.5810   13.4180    0.3210 C.3   188  MOT188      0.1176
     13  N10       30.7890   14.2280    0.9070 N.pl3 188  MOT188     -0.3020
     14  CM        31.7490   13.1740    1.4120 C.3   188  MOT188      0.1125
     15  C11       32.0540   18.2660    0.3740 C.ar  188  MOT188      0.0551
     16  C12       30.7870   17.8430    0.0100 C.ar  188  MOT188      0.0058
     17  C13       30.3700   16.5220    0.2110 C.ar  188  MOT188      0.0147
     18  C14       31.1140   15.5190    0.6680 C.ar  188  MOT188      0.0481
     19  C15       32.3900   15.9940    1.0420 C.ar  188  MOT188      0.0147
     20  C16       32.8510   17.2830    0.9440 C.ar  188  MOT188      0.0058
     21  C         32.3800   19.5230    0.1000 C.2   188  MOT188      0.2652
     22  O         33.4580   19.9840    0.3960 O.2   188  MOT188     -0.2684
     23  N         31.4950   20.2320   -0.6750 N.am  188  MOT188     -0.1918
     24  CA        31.7500   21.6210   -1.1540 C.3   188  MOT188      0.1986
     25  CT        30.3850   22.2420   -1.4240 C.2   188  MOT188      0.3842
     26  O1        29.4530   21.4760   -1.7680 O.co2 188  MOT188     -0.2437
     27  O2        30.1450   23.4770   -1.4330 O.co2 188  MOT188     -0.2437
     28  CB        32.2890   21.3130   -2.6010 C.3   188  MOT188      0.0451
     29  CG        32.6870   22.5210   -3.3500 C.3   188  MOT188      0.1164
     30  CD        33.7470   22.2010   -4.3830 C.2   188  MOT188      0.3649
     31  OE1       34.0540   21.0620   -4.7100 O.co2 188  MOT188     -0.2457
     32  OE2       34.2850   23.2950   -4.7010 O.co2 188  MOT188     -0.2457
@<TRIPOS>BOND
     1     3     2    1
     2    31    30   ar
     3    32    30   ar
     4     1     2    2
     5     1    11    2
     6     2     4    2
     7    30    29    1
     8     4     5    2
     9    29    28    1
    10    11    10    1
    11    11     7    1
    12    10     9    1
    13    28    24    1
    14     5     7    1
    15     5     6    1
    16     7     8    1
    17     9     8    2
    18    26    25   ar
    19    27    25   ar
    20    25    24    1
    21     8    12    1
    22    24    23    1
    23    23    21   am
    24    16    17   ar
    25    16    15   ar
    26    21    15    1
    27    21    22    2
    28    17    18   ar
    29    12    13    1
    30    15    20   ar
    31    18    13    1
    32    18    19   ar
    33    13    14    1
    34    20    19   ar
