@<TRIPOS>MOLECULE
1hfr_NAP_A_1.pdb
 48 52 0 0 0
SMALL
GASTEIGER

@<TRIPOS>ATOM
      1  PA        26.4980    8.5530    8.7770 P.3   187  NAP187      0.2189
      2  O1A       27.0050    9.7430    8.2340 O.2   187  NAP187     -0.5170
      3  O2A       25.1780    8.1090    8.2890 O.3   187  NAP187     -0.4371
      4  O5B       26.7170    8.4120   10.3910 O.3   187  NAP187     -0.3112
      5  C5B       25.9870    7.5100   11.2920 C.3   187  NAP187      0.1813
      6  C4B       25.7110    8.4950   12.4920 C.3   187  NAP187      0.1820
      7  O4B       24.7730    9.2670   12.1900 O.3   187  NAP187     -0.3136
      8  C3B       24.9270    7.4570   13.4850 C.3   187  NAP187      0.2157
      9  O3B       26.1250    6.9760   14.2980 O.3   187  NAP187     -0.2175
     10  C2B       24.0900    8.4920   14.2150 C.3   187  NAP187      0.2314
     11  O2B       24.8770    9.3370   14.9690 O.3   187  NAP187     -0.2630
     12  C1B       23.5930    9.3460   12.9690 C.3   187  NAP187      0.3158
     13  N9A       22.4040    8.8600   12.3310 N.pl3 187  NAP187     -0.1439
     14  C8A       22.4370    8.2090   11.1360 C.3   187  NAP187      0.3377
     15  N7A       21.2740    7.8250   10.7290 N.2   187  NAP187     -0.2095
     16  C5A       20.4080    8.3580   11.7220 C.2   187  NAP187      0.2526
     17  C6A       18.8640    8.3480   11.9970 C.2   187  NAP187      0.4393
     18  N6A       18.0900    7.7750   11.0470 N.pl3 187  NAP187      0.2180
     19  N1A       18.4180    8.8590   13.0370 N.2   187  NAP187      0.0021
     20  C2A       19.3000    9.4220   13.8570 C.3   187  NAP187      0.5254
     21  N3A       20.6120    9.4550   13.8060 N.2   187  NAP187     -0.0055
     22  C4A       21.1290    8.9140   12.6460 C.2   187  NAP187      0.3518
     23  O3        27.5770    7.5450    8.2890 O.3   187  NAP187     -0.2703
     24  PN        28.0480    6.3060    7.4590 P.3   187  NAP187      0.2189
     25  O1N       27.2580    5.5130    6.6410 O.2   187  NAP187     -0.5170
     26  O2N       29.0120    5.5600    8.1990 O.3   187  NAP187     -0.4371
     27  O5D       29.1710    7.0040    6.4260 O.3   187  NAP187     -0.3112
     28  C5D       29.8760    8.1640    6.1770 C.3   187  NAP187      0.1813
     29  C4D       30.9440    7.6330    5.2090 C.3   187  NAP187      0.1799
     30  O4D       30.6210    7.5230    3.7840 O.3   187  NAP187     -0.3327
     31  C3D       32.2840    8.5150    5.1960 C.3   187  NAP187      0.2158
     32  O3D       33.1830    7.4370    4.8270 O.3   187  NAP187     -0.2175
     33  C2D       31.9450    9.5460    4.1380 C.3   187  NAP187      0.2309
     34  O2D       33.1080   10.2120    3.6690 O.3   187  NAP187     -0.2158
     35  C1D       31.3530    8.6730    3.0770 C.3   187  NAP187      0.2263
     36  N1N       30.1320    9.2090    2.2720 N.pl3 187  NAP187     -0.2787
     37  C2N       30.1750    9.1080    0.8800 C.3   187  NAP187      0.1244
     38  C3N       29.0310    9.4840    0.2230 C.2   187  NAP187      0.0544
     39  C7N       29.1050    9.3380   -1.2790 C.2   187  NAP187      0.2818
     40  O7N       28.1290    9.6330   -1.8890 O.2   187  NAP187     -0.2670
     41  N7N       30.1910    8.8530   -1.7810 N.am  187  NAP187     -0.0839
     42  C4N       27.7890   10.0720    0.8910 C.2   187  NAP187      0.0033
     43  C5N       27.9220   10.0490    2.3810 C.2   187  NAP187      0.0157
     44  C6N       29.0520    9.6960    2.9930 C.2   187  NAP187      0.0633
     45  P2B       25.0040    8.8830   16.6590 P.3   187  NAP187      0.5328
     46  O1X       23.5980    8.7420   17.0480 O.3   187  NAP187     -0.1145
     47  O2X       25.6610   10.1860   17.0210 O.3   187  NAP187     -0.1145
     48  O3X       25.8960    7.7610   16.6130 O.2   187  NAP187     -0.2224
@<TRIPOS>BOND
     1    40    39    2
     2    41    39   am
     3    39    38    1
     4    38    37    1
     5    38    42    2
     6    37    36    1
     7    42    43    1
     8    36    44    1
     9    36    35    1
    10    43    44    2
    11    35    30    1
    12    35    33    1
    13    34    33    1
    14    30    29    1
    15    33    31    1
    16    32    31    1
    17    31    29    1
    18    29    28    1
    19    28    27    1
    20    27    24    1
    21    25    24    2
    22    24    26    1
    23    24    23    1
    24     2     1    2
    25     3     1    1
    26    23     1    1
    27     1     4    1
    28     4     5    1
    29    15    14    1
    30    15    16    2
    31    18    17    1
    32    14    13    1
    33     5     6    1
    34    16    17    1
    35    16    22    1
    36    17    19    2
    37     7     6    1
    38     7    12    1
    39    13    22    1
    40    13    12    1
    41     6     8    1
    42    22    21    2
    43    12    10    1
    44    19    20    1
    45     8    10    1
    46     8     9    1
    47    21    20    1
    48    10    11    1
    49    11    45    1
    50    48    45    2
    51    45    47    1
    52    45    46    1
