@<TRIPOS>MOLECULE
1hfr_MOT_A_1.pdb
 32 34 0 0 0
SMALL
GASTEIGER

@<TRIPOS>ATOM
      1  N1        28.8390   13.0610   -4.5270 N.2   188  MOT188     -0.2915
      2  C2        27.5450   12.8100   -4.5610 C.1   188  MOT188      0.2450
      3  NA2       27.0150   12.6810   -5.8090 N.pl3 188  MOT188     -0.0231
      4  N3        26.8800   12.6090   -3.4980 N.2   188  MOT188     -0.3110
      5  C4        27.2860   12.7760   -2.3040 C.2   188  MOT188      0.2236
      6  NA4       26.3060   12.5800   -1.4150 N.pl3 188  MOT188     -0.0961
      7  C4A       28.5490   13.1380   -2.1590 C.3   188  MOT188      0.1838
      8  C6        29.5740   13.3150   -1.1700 C.2   188  MOT188      0.0309
      9  C7        30.7270   13.4640   -1.8460 C.2   188  MOT188      0.1762
     10  O8        30.4980   13.4030   -3.0210 O.2   188  MOT188     -0.4268
     11  C8A       29.3210   13.2360   -3.2560 C.2   188  MOT188      0.2811
     12  C9        29.3940   13.3110    0.3420 C.3   188  MOT188      0.1176
     13  N10       30.4330   14.0220    1.0770 N.pl3 188  MOT188     -0.3020
     14  CM        31.3090   12.9470    1.6190 C.3   188  MOT188      0.1125
     15  C11       31.6730   17.9520    0.2540 C.ar  188  MOT188      0.0551
     16  C12       30.4150   17.5090   -0.0150 C.ar  188  MOT188      0.0058
     17  C13       29.9880   16.2290    0.2310 C.ar  188  MOT188      0.0147
     18  C14       30.8180   15.3230    0.7960 C.ar  188  MOT188      0.0481
     19  C15       32.0340   15.7690    1.0460 C.ar  188  MOT188      0.0147
     20  C16       32.4700   17.0190    0.8530 C.ar  188  MOT188      0.0058
     21  C         32.0200   19.2330   -0.0930 C.2   188  MOT188      0.2652
     22  O         33.0170   19.8210    0.2340 O.2   188  MOT188     -0.2684
     23  N         31.1640   20.0030   -0.8050 N.am  188  MOT188     -0.1918
     24  CA        31.3750   21.3690   -1.2710 C.3   188  MOT188      0.1986
     25  CT        30.0510   21.9950   -1.5190 C.2   188  MOT188      0.3842
     26  O1        29.1690   21.1590   -1.6330 O.co2 188  MOT188     -0.2437
     27  O2        29.7150   23.2080   -1.5870 O.co2 188  MOT188     -0.2437
     28  CB        32.0840   21.1250   -2.6640 C.3   188  MOT188      0.0451
     29  CG        32.5270   22.4010   -3.3760 C.3   188  MOT188      0.1164
     30  CD        33.6090   21.9500   -4.3460 C.2   188  MOT188      0.3649
     31  OE1       33.9670   20.7850   -4.3140 O.co2 188  MOT188     -0.2457
     32  OE2       34.1330   22.8200   -4.9990 O.co2 188  MOT188     -0.2457
@<TRIPOS>BOND
     1     3     2    1
     2    32    30   ar
     3     2     1    2
     4     2     4    2
     5     1    11    2
     6    30    31   ar
     7    30    29    1
     8     4     5    2
     9    29    28    1
    10    11    10    1
    11    11     7    1
    12    10     9    1
    13    28    24    1
    14     5     7    1
    15     5     6    1
    16     7     8    1
    17     9     8    2
    18    26    25   ar
    19    27    25   ar
    20    25    24    1
    21    24    23    1
    22     8    12    1
    23    23    21   am
    24    21    22    2
    25    21    15    1
    26    16    17   ar
    27    16    15   ar
    28    17    18   ar
    29    15    20   ar
    30    12    13    1
    31    18    19   ar
    32    18    13    1
    33    20    19   ar
    34    13    14    1
