@<TRIPOS>MOLECULE
1hfu_MAN_A_1.pdb
 11 11 0 0 0
SMALL
GASTEIGER

@<TRIPOS>ATOM
      1  C1        36.2750   42.3600   56.1670 C.3   600  MAN600      0.1777
      2  C2        34.9000   43.0420   56.0990 C.3   600  MAN600      0.2141
      3  C3        33.9040   42.5100   55.1180 C.3   600  MAN600      0.2173
      4  C4        34.5480   41.8330   53.9320 C.3   600  MAN600      0.2142
      5  C5        35.6000   40.8270   54.4550 C.3   600  MAN600      0.1810
      6  C6        36.2910   39.9770   53.4010 C.3   600  MAN600      0.2141
      7  O2        35.3490   44.3840   55.7300 O.3   600  MAN600     -0.2176
      8  O3        33.1020   43.6370   54.7140 O.3   600  MAN600     -0.2175
      9  O4        33.5400   41.1750   53.1970 O.3   600  MAN600     -0.2176
     10  O5        36.6300   41.5170   55.1530 O.3   600  MAN600     -0.3481
     11  O6        37.1450   40.7960   52.6480 O.3   600  MAN600     -0.2176
@<TRIPOS>BOND
     1    11     6    1
     2     9     4    1
     3     6     5    1
     4     4     5    1
     5     4     3    1
     6     5    10    1
     7     8     3    1
     8     3     2    1
     9    10     1    1
    10     7     2    1
    11     2     1    1
