@<TRIPOS>MOLECULE
1hfw_GLU_A_1.pdb
 10 9 0 0 0
SMALL
GASTEIGER

@<TRIPOS>ATOM
      1  N         40.0470   11.7970   50.2510 N.3   350  GLU350     -0.1208
      2  CA        40.6310   12.8740   49.4000 C.3   350  GLU350      0.1949
      3  C         39.5560   13.8900   49.0190 C.2   350  GLU350      0.3819
      4  O         38.4240   13.4620   48.7180 O.co2 350  GLU350     -0.2441
      5  CB        41.2560   12.2630   48.1410 C.3   350  GLU350      0.0424
      6  CG        42.0400   13.2510   47.2750 C.3   350  GLU350      0.1161
      7  CD        41.1870   13.9120   46.2070 C.2   350  GLU350      0.3649
      8  OE1       40.1460   13.3350   45.8240 O.co2 350  GLU350     -0.2457
      9  OE2       41.5680   15.0080   45.7400 O.co2 350  GLU350     -0.2457
     10  OXT       39.8560   15.1020   49.0420 O.co2 350  GLU350     -0.2441
@<TRIPOS>BOND
     1     9     7   ar
     2     8     7   ar
     3     7     6    1
     4     6     5    1
     5     5     2    1
     6     4     3   ar
     7     3    10   ar
     8     3     2    1
     9     2     1    1
