@<TRIPOS>MOLECULE
1hg2_IP2_A_1.pdb
 20 20 0 0 0
SMALL
GASTEIGER

@<TRIPOS>ATOM
      1  C1        42.1000   69.3400   38.4440 C.3   1282  IP21282     0.2174
      2  C2        42.0190   69.2610   39.9610 C.3   1282  IP21282     0.2174
      3  C3        40.9010   68.2850   40.3190 C.3   1282  IP21282     0.2147
      4  C4        41.6070   66.9700   40.0260 C.3   1282  IP21282     0.1892
      5  C5        41.8380   66.7800   38.5290 C.3   1282  IP21282     0.1892
      6  C6        42.5240   67.9900   37.8590 C.3   1282  IP21282     0.2147
      7  O1        40.8240   69.7030   37.9480 O.3   1282  IP21282    -0.2175
      8  O2        41.8400   70.5270   40.5550 O.3   1282  IP21282    -0.2175
      9  O3        40.4720   68.3670   41.6670 O.3   1282  IP21282    -0.2176
     10  O4        40.8920   65.9000   40.6020 O.3   1282  IP21282    -0.2674
     11  O5        42.6320   65.6220   38.3900 O.3   1282  IP21282    -0.2674
     12  O6        42.1750   68.0050   36.4920 O.3   1282  IP21282    -0.2176
     13  P4        41.3840   65.1780   41.9580 P.3   1282  IP21282     0.5327
     14  O41       40.2840   64.2290   42.2040 O.3   1282  IP21282    -0.1145
     15  O42       41.4720   66.2160   43.0010 O.3   1282  IP21282    -0.1145
     16  O43       42.6960   64.5790   41.6350 O.2   1282  IP21282    -0.2224
     17  P5        42.4700   64.5570   37.1780 P.3   1282  IP21282     0.5327
     18  O51       41.0360   64.1900   37.2750 O.3   1282  IP21282    -0.1145
     19  O52       43.4520   63.5020   37.5210 O.3   1282  IP21282    -0.1145
     20  O53       42.8040   65.2760   35.9250 O.2   1282  IP21282    -0.2224
@<TRIPOS>BOND
     1    20    17    2
     2    12     6    1
     3    17    18    1
     4    17    19    1
     5    17    11    1
     6     6     1    1
     7     6     5    1
     8     7     1    1
     9    11     5    1
    10     1     2    1
    11     5     4    1
    12     2     3    1
    13     2     8    1
    14     4     3    1
    15     4    10    1
    16     3     9    1
    17    10    13    1
    18    16    13    2
    19    13    14    1
    20    13    15    1
