@<TRIPOS>MOLECULE
1hg5_IHP_A_1.pdb
 36 36 0 0 0
SMALL
GASTEIGER

@<TRIPOS>ATOM
      1  C1        44.3680   67.2440   38.1590 C.3   1282  IHP1282     0.1863
      2  C2        43.2180   66.2900   37.9390 C.3   1282  IHP1282     0.1863
      3  C3        42.2410   66.2360   39.1140 C.3   1282  IHP1282     0.1863
      4  C4        42.7970   66.3320   40.5180 C.3   1282  IHP1282     0.1863
      5  C5        43.9970   67.2510   40.6060 C.3   1282  IHP1282     0.1863
      6  C6        45.0240   67.0570   39.5160 C.3   1282  IHP1282     0.1863
      7  O11       43.8050   68.5430   38.0940 O.3   1282  IHP1282    -0.2675
      8  P1        44.3090   69.5760   36.9930 P.3   1282  IHP1282     0.5327
      9  O21       45.5010   70.2390   37.5980 O.3   1282  IHP1282    -0.1145
     10  O31       44.6710   68.7640   35.5390 O.2   1282  IHP1282    -0.2224
     11  O41       43.0750   70.7100   36.7600 O.3   1282  IHP1282    -0.1145
     12  O12       43.7780   65.0370   37.6210 O.3   1282  IHP1282    -0.2675
     13  P2        43.0350   64.2530   36.4400 P.3   1282  IHP1282     0.5327
     14  O22       43.2420   64.9840   35.1490 O.2   1282  IHP1282    -0.2224
     15  O32       43.7200   62.7010   36.3650 O.3   1282  IHP1282    -0.1145
     16  O42       41.3820   64.1790   36.8430 O.3   1282  IHP1282    -0.1145
     17  O13       41.4940   67.4290   39.0030 O.3   1282  IHP1282    -0.2675
     18  P3        39.8970   67.4670   39.0710 P.3   1282  IHP1282     0.5327
     19  O23       39.4250   68.8260   38.6550 O.3   1282  IHP1282    -0.1145
     20  O33       39.3570   66.3350   37.9130 O.2   1282  IHP1282    -0.2224
     21  O43       39.4210   67.1300   40.6770 O.3   1282  IHP1282    -0.1145
     22  O14       43.1320   65.0660   41.0010 O.3   1282  IHP1282    -0.2675
     23  P4        42.1650   64.4680   42.1020 P.3   1282  IHP1282     0.5327
     24  O24       40.9070   64.0430   41.4530 O.2   1282  IHP1282    -0.2224
     25  O34       43.1460   63.2470   42.7240 O.3   1282  IHP1282    -0.1145
     26  O44       41.8080   65.5350   43.3720 O.3   1282  IHP1282    -0.1145
     27  O15       44.6620   67.0360   41.8280 O.3   1282  IHP1282    -0.2675
     28  P5        44.6700   68.3330   42.7610 P.3   1282  IHP1282     0.5327
     29  O25       45.7700   68.1340   43.7730 O.3   1282  IHP1282    -0.1145
     30  O35       45.0480   69.6890   41.7980 O.2   1282  IHP1282    -0.2224
     31  O45       43.0730   68.5130   43.3850 O.3   1282  IHP1282    -0.1145
     32  O16       45.6260   65.7760   39.6780 O.3   1282  IHP1282    -0.2675
     33  P6        47.2290   65.6840   39.7060 P.3   1282  IHP1282     0.5327
     34  O26       47.7320   66.9990   40.1980 O.3   1282  IHP1282    -0.1145
     35  O36       47.7310   65.3100   38.1200 O.2   1282  IHP1282    -0.2224
     36  O46       47.7490   64.4820   40.7910 O.3   1282  IHP1282    -0.1145
@<TRIPOS>BOND
     1    14    13    2
     2    10     8    2
     3    15    13    1
     4    13    16    1
     5    13    12    1
     6    11     8    1
     7     8     9    1
     8     8     7    1
     9    12     2    1
    10    20    18    2
    11     2     1    1
    12     2     3    1
    13     7     1    1
    14    35    33    2
    15     1     6    1
    16    19    18    1
    17    17    18    1
    18    17     3    1
    19    18    21    1
    20     3     4    1
    21     6    32    1
    22     6     5    1
    23    32    33    1
    24    33    34    1
    25    33    36    1
    26     4     5    1
    27     4    22    1
    28     5    27    1
    29    22    23    1
    30    24    23    2
    31    30    28    2
    32    27    28    1
    33    23    25    1
    34    23    26    1
    35    28    31    1
    36    28    29    1
