@<TRIPOS>MOLECULE
1hga_HEM_A_1.pdb
 43 50 0 0 0
SMALL
GASTEIGER

@<TRIPOS>ATOM
      1  CHA       17.2140   18.4520   16.6030 C.2   142  HEM142      0.0000
      2  CHB       17.7930   15.8990   12.5450 C.2   142  HEM142      0.0000
      3  CHC       13.7300   13.4740   13.6360 C.2   142  HEM142      0.0000
      4  CHD       12.9800   16.3290   17.4700 C.2   142  HEM142      0.0000
      5  C1A       17.7050   17.9930   15.3980 C.ar  142  HEM142      0.0000
      6  C2A       18.8340   18.5370   14.6910 C.ar  142  HEM142      0.0000
      7  C3A       19.0100   17.8500   13.5640 C.ar  142  HEM142      0.0000
      8  C4A       17.9830   16.8320   13.5430 C.ar  142  HEM142      0.0000
      9  CMA       20.1120   18.1110   12.4930 C.3   142  HEM142      0.0000
     10  CAA       19.6280   19.7440   15.2320 C.3   142  HEM142      0.0000
     11  CBA       20.9820   19.4010   15.8080 C.3   142  HEM142      0.0000
     12  CGA       21.8720   20.6090   15.9960 C.2   142  HEM142      0.0000
     13  O1A       21.3440   21.5510   16.6690 O.co2 142  HEM142      0.0000
     14  O2A       23.0030   20.4730   15.4420 O.co2 142  HEM142      0.0000
     15  C1B       16.6830   15.0730   12.4640 C.2   142  HEM142      0.0000
     16  C2B       16.3670   14.2270   11.3200 C.2   142  HEM142      0.0000
     17  C3B       15.2580   13.5500   11.6060 C.2   142  HEM142      0.0000
     18  C4B       14.8490   13.9460   12.9540 C.2   142  HEM142      0.0000
     19  CMB       17.2390   14.1930   10.0500 C.3   142  HEM142      0.0000
     20  CAB       14.4420   12.5340   10.7900 C.2   142  HEM142      0.0000
     21  CBB       14.8960   11.7370    9.8430 C.2   142  HEM142      0.0000
     22  C1C       13.1360   14.1020   14.7380 C.ar  142  HEM142      0.0000
     23  C2C       11.8020   13.8450   15.2310 C.ar  142  HEM142      0.0000
     24  C3C       11.6000   14.6600   16.2630 C.ar  142  HEM142      0.0000
     25  C4C       12.8270   15.4240   16.4560 C.ar  142  HEM142      0.0000
     26  CMC       10.8320   12.8200   14.6280 C.3   142  HEM142      0.0000
     27  CAC       10.3500   14.8020   17.1690 C.2   142  HEM142      0.0000
     28  CBC        9.1190   14.5620   16.7020 C.2   142  HEM142      0.0000
     29  C1D       14.0810   17.1310   17.5500 C.2   142  HEM142      0.0000
     30  C2D       14.2340   18.1560   18.5640 C.2   142  HEM142      0.0000
     31  C3D       15.4050   18.7360   18.3370 C.2   142  HEM142      0.0000
     32  C4D       16.0020   18.1410   17.1660 C.2   142  HEM142      0.0000
     33  CMD       13.2220   18.4550   19.6880 C.3   142  HEM142      0.0000
     34  CAD       16.0760   19.9200   19.0880 C.3   142  HEM142      0.0000
     35  CBD       15.9400   21.1510   18.2030 C.3   142  HEM142      0.0000
     36  CGD       16.0280   22.5290   18.7770 C.2   142  HEM142      0.0000
     37  O1D       16.3180   23.3680   17.8720 O.co2 142  HEM142      0.0000
     38  O2D       15.7890   22.6890   19.9900 O.co2 142  HEM142      0.0000
     39  NA        17.2060   16.9290   14.6840 N.ar  142  HEM142      0.0000
     40  NB        15.7450   14.8870   13.4670 N.2   142  HEM142      0.0000
     41  NC        13.7650   15.0860   15.5060 N.ar  142  HEM142      0.0000
     42  ND        15.1630   17.1500   16.6910 N.2   142  HEM142      0.0000
     43 FE         15.7030   15.8110   15.2540 Fe    142  HEM142      0.0000
@<TRIPOS>BOND
     1    21    20    2
     2    19    16    1
     3    20    17    1
     4    16    17    2
     5    16    15    1
     6    17    18    1
     7    15     2    1
     8    15    40    2
     9     9     7    1
    10     2     8    2
    11    18    40    1
    12    18     3    2
    13    40    43    1
    14     8     7   ar
    15     8    39   ar
    16     7     6   ar
    17     3    22    1
    18    26    23    1
    19    39    43    1
    20    39     5   ar
    21     6    10    1
    22     6     5   ar
    23    22    23   ar
    24    22    41   ar
    25    23    24   ar
    26    10    11    1
    27    43    41    1
    28    43    42    1
    29     5     1    2
    30    14    12   ar
    31    41    25   ar
    32    11    12    1
    33    12    13   ar
    34    24    25   ar
    35    24    27    1
    36    25     4    1
    37     1    32    1
    38    42    32    2
    39    42    29    1
    40    28    27    2
    41    32    31    1
    42     4    29    2
    43    29    30    1
    44    37    36   ar
    45    35    36    1
    46    35    34    1
    47    31    30    2
    48    31    34    1
    49    30    33    1
    50    36    38   ar
