@<TRIPOS>MOLECULE
1hgb_HEM_A_1.pdb
 43 50 0 0 0
SMALL
GASTEIGER

@<TRIPOS>ATOM
      1  CHA       16.3760   18.7500   16.2480 C.2   142  HEM142      0.0000
      2  CHB       16.8030   16.3370   12.0890 C.2   142  HEM142      0.0000
      3  CHC       12.9320   13.7040   13.3470 C.2   142  HEM142      0.0000
      4  CHD       12.0370   16.7680   16.9520 C.2   142  HEM142      0.0000
      5  C1A       16.8530   18.3260   15.0340 C.ar  142  HEM142      0.0000
      6  C2A       17.9560   18.9010   14.2980 C.ar  142  HEM142      0.0000
      7  C3A       18.0570   18.2380   13.1420 C.ar  142  HEM142      0.0000
      8  C4A       17.0220   17.2220   13.1250 C.ar  142  HEM142      0.0000
      9  CMA       19.0610   18.4230   11.9810 C.3   142  HEM142      0.0000
     10  CAA       18.7740   20.0870   14.8300 C.2   142  HEM142      0.0000
     11  CBA       20.1900   19.9180   15.3110 C.2   142  HEM142      0.0000
     12  CGA       21.0340   21.1790   15.3650 C.2   142  HEM142      0.0000
     13  O1A       20.4310   22.2510   15.6630 O.co2 142  HEM142      0.0000
     14  O2A       22.2490   20.9440   15.0780 O.co2 142  HEM142      0.0000
     15  C1B       15.7880   15.4040   12.0720 C.2   142  HEM142      0.0000
     16  C2B       15.5590   14.4400   11.0120 C.2   142  HEM142      0.0000
     17  C3B       14.5000   13.7050   11.3480 C.2   142  HEM142      0.0000
     18  C4B       14.0160   14.1920   12.6340 C.2   142  HEM142      0.0000
     19  CMB       16.4660   14.3660    9.7670 C.3   142  HEM142      0.0000
     20  CAB       13.7950   12.5470   10.6090 C.2   142  HEM142      0.0000
     21  CBB       14.1490   12.0810    9.4220 C.2   142  HEM142      0.0000
     22  C1C       12.2950   14.3280   14.4080 C.ar  142  HEM142      0.0000
     23  C2C       10.9730   14.0030   14.9390 C.ar  142  HEM142      0.0000
     24  C3C       10.7270   14.8760   15.9190 C.ar  142  HEM142      0.0000
     25  C4C       11.8820   15.7350   16.0640 C.ar  142  HEM142      0.0000
     26  CMC       10.0930   12.8890   14.3430 C.3   142  HEM142      0.0000
     27  CAC        9.4700   14.9730   16.7940 C.2   142  HEM142      0.0000
     28  CBC        8.2740   14.8990   16.1730 C.2   142  HEM142      0.0000
     29  C1D       13.1180   17.6150   17.0800 C.2   142  HEM142      0.0000
     30  C2D       13.2710   18.6750   18.0560 C.2   142  HEM142      0.0000
     31  C3D       14.4740   19.2200   17.8590 C.2   142  HEM142      0.0000
     32  C4D       15.1060   18.5300   16.7530 C.2   142  HEM142      0.0000
     33  CMD       12.2100   19.0320   19.1260 C.3   142  HEM142      0.0000
     34  CAD       15.1340   20.4140   18.6180 C.3   142  HEM142      0.0000
     35  CBD       14.5180   21.7730   18.2530 C.3   142  HEM142      0.0000
     36  CGD       15.2520   23.0410   18.5300 C.2   142  HEM142      0.0000
     37  O1D       15.5910   23.8420   17.6100 O.co2 142  HEM142      0.0000
     38  O2D       15.5090   23.2790   19.7260 O.co2 142  HEM142      0.0000
     39  NA        16.2880   17.3000   14.3020 N.ar  142  HEM142      0.0000
     40  NB        14.8140   15.2400   13.0540 N.2   142  HEM142      0.0000
     41  NC        12.8410   15.3920   15.1160 N.ar  142  HEM142      0.0000
     42  ND        14.2460   17.5510   16.2860 N.2   142  HEM142      0.0000
     43 FE         14.6120   16.3260   14.7100 Fe    142  HEM142      0.0000
@<TRIPOS>BOND
     1    21    20    2
     2    19    16    1
     3    20    17    1
     4    16    17    2
     5    16    15    1
     6    17    18    1
     7     9     7    1
     8    15     2    1
     9    15    40    2
    10     2     8    2
    11    18    40    1
    12    18     3    2
    13    40    43    1
    14     8     7   ar
    15     8    39   ar
    16     7     6   ar
    17     3    22    1
    18     6    10    1
    19     6     5   ar
    20    39    43    1
    21    39     5   ar
    22    26    23    1
    23    22    23   ar
    24    22    41   ar
    25    43    41    1
    26    43    42    1
    27    10    11    2
    28    23    24   ar
    29     5     1    2
    30    14    12   ar
    31    41    25   ar
    32    11    12    1
    33    12    13   ar
    34    24    25   ar
    35    24    27    1
    36    25     4    1
    37    28    27    2
    38     1    32    1
    39    42    32    2
    40    42    29    1
    41    32    31    1
    42     4    29    2
    43    29    30    1
    44    37    36   ar
    45    31    30    2
    46    31    34    1
    47    30    33    1
    48    35    36    1
    49    35    34    1
    50    36    38   ar
