@<TRIPOS>MOLECULE
1hgc_HEM_A_1.pdb
 43 50 0 0 0
SMALL
GASTEIGER

@<TRIPOS>ATOM
      1  CHA       17.1410   18.5260   16.4730 C.2   142  HEM142      0.0000
      2  CHB       17.6390   16.0410   12.3770 C.2   142  HEM142      0.0000
      3  CHC       13.6510   13.4860   13.5010 C.2   142  HEM142      0.0000
      4  CHD       12.9220   16.3700   17.3530 C.2   142  HEM142      0.0000
      5  C1A       17.6370   18.1080   15.2450 C.ar  142  HEM142      0.0000
      6  C2A       18.7290   18.6740   14.4970 C.ar  142  HEM142      0.0000
      7  C3A       18.8760   17.9970   13.3670 C.ar  142  HEM142      0.0000
      8  C4A       17.8690   16.9660   13.3670 C.ar  142  HEM142      0.0000
      9  CMA       19.9140   18.2630   12.2500 C.3   142  HEM142      0.0000
     10  CAA       19.5430   19.8850   14.9960 C.3   142  HEM142      0.0000
     11  CBA       20.8540   19.4940   15.6760 C.3   142  HEM142      0.0000
     12  CGA       21.8280   20.6630   15.7730 C.2   142  HEM142      0.0000
     13  O1A       21.3960   21.6850   16.3930 O.co2 142  HEM142      0.0000
     14  O2A       22.9440   20.4640   15.2000 O.co2 142  HEM142      0.0000
     15  C1B       16.5800   15.1670   12.2910 C.2   142  HEM142      0.0000
     16  C2B       16.2800   14.2950   11.1750 C.2   142  HEM142      0.0000
     17  C3B       15.1940   13.5900   11.4810 C.2   142  HEM142      0.0000
     18  C4B       14.7670   13.9910   12.8210 C.2   142  HEM142      0.0000
     19  CMB       17.1660   14.2830    9.9070 C.3   142  HEM142      0.0000
     20  CAB       14.3820   12.5340   10.6970 C.2   142  HEM142      0.0000
     21  CBB       14.8020   11.6460    9.8170 C.2   142  HEM142      0.0000
     22  C1C       13.0560   14.1060   14.5970 C.ar  142  HEM142      0.0000
     23  C2C       11.7390   13.8150   15.1190 C.ar  142  HEM142      0.0000
     24  C3C       11.5310   14.6340   16.1640 C.ar  142  HEM142      0.0000
     25  C4C       12.7300   15.4420   16.3420 C.ar  142  HEM142      0.0000
     26  CMC       10.7720   12.7710   14.5490 C.3   142  HEM142      0.0000
     27  CAC       10.3050   14.7500   17.1000 C.2   142  HEM142      0.0000
     28  CBC        9.0810   14.4520   16.6530 C.2   142  HEM142      0.0000
     29  C1D       14.0160   17.1980   17.4730 C.2   142  HEM142      0.0000
     30  C2D       14.1470   18.2610   18.4460 C.2   142  HEM142      0.0000
     31  C3D       15.3140   18.8520   18.2060 C.2   142  HEM142      0.0000
     32  C4D       15.9270   18.2330   17.0570 C.2   142  HEM142      0.0000
     33  CMD       13.1110   18.5410   19.5500 C.3   142  HEM142      0.0000
     34  CAD       16.0020   20.0340   18.9360 C.3   142  HEM142      0.0000
     35  CBD       15.9940   21.2780   18.0700 C.3   142  HEM142      0.0000
     36  CGD       15.9130   22.6300   18.6950 C.2   142  HEM142      0.0000
     37  O1D       16.0850   23.5740   17.8590 O.co2 142  HEM142      0.0000
     38  O2D       15.6890   22.6950   19.9210 O.co2 142  HEM142      0.0000
     39  NA        17.1090   17.0510   14.5240 N.ar  142  HEM142      0.0000
     40  NB        15.6440   14.9730   13.2940 N.2   142  HEM142      0.0000
     41  NC        13.6620   15.1190   15.3630 N.ar  142  HEM142      0.0000
     42  ND        15.1120   17.2000   16.6180 N.2   142  HEM142      0.0000
     43 FE         15.5490   16.0330   15.0010 Fe    142  HEM142      0.0000
@<TRIPOS>BOND
     1    21    20    2
     2    19    16    1
     3    20    17    1
     4    16    17    2
     5    16    15    1
     6    17    18    1
     7     9     7    1
     8    15     2    1
     9    15    40    2
    10     2     8    2
    11    18    40    1
    12    18     3    2
    13    40    43    1
    14     7     8   ar
    15     7     6   ar
    16     8    39   ar
    17     3    22    1
    18     6    10    1
    19     6     5   ar
    20    39    43    1
    21    39     5   ar
    22    26    23    1
    23    22    23   ar
    24    22    41   ar
    25    10    11    1
    26    43    41    1
    27    43    42    1
    28    23    24   ar
    29    14    12   ar
    30     5     1    2
    31    41    25   ar
    32    11    12    1
    33    12    13   ar
    34    24    25   ar
    35    24    27    1
    36    25     4    1
    37     1    32    1
    38    42    32    2
    39    42    29    1
    40    28    27    2
    41    32    31    1
    42     4    29    2
    43    29    30    1
    44    37    36   ar
    45    35    36    1
    46    35    34    1
    47    31    30    2
    48    31    34    1
    49    30    33    1
    50    36    38   ar
