@<TRIPOS>MOLECULE
1hgd_NAG_A_1.pdb
 28 28 0 0 0
SMALL
GASTEIGER

@<TRIPOS>ATOM
      1  C1        35.7570   18.4710   36.2610 C.3   329  NAG329      0.1078
      2  C2        36.2240   18.2710   37.6770 C.3   329  NAG329      0.0801
      3  C3        35.8890   19.5060   38.4730 C.3   329  NAG329      0.1043
      4  C4        36.5830   20.7170   37.8600 C.3   329  NAG329      0.1110
      5  C5        36.1750   20.8390   36.3440 C.3   329  NAG329      0.1104
      6  C6        37.0270   21.8830   35.6090 C.3   329  NAG329      0.0729
      7  C7        36.2550   16.1840   38.9750 C.2   329  NAG329      0.2103
      8  C8        35.4790   15.0130   39.5450 C.3   329  NAG329      0.0122
      9  N2        35.5790   17.1040   38.2690 N.am  329  NAG329     -0.3075
     10  O3        36.2850   19.3780   39.8290 O.3   329  NAG329     -0.3872
     11  O4        36.1740   21.8400   38.6400 O.3   329  NAG329     -0.3865
     12  O5        36.4020   19.5930   35.6710 O.3   329  NAG329     -0.3639
     13  O6        38.3460   21.3600   35.4590 O.3   329  NAG329     -0.3924
     14  O7        37.4770   16.2630   39.1320 O.2   329  NAG329     -0.2761
     15  H1        34.6710   18.6720   36.1990 H     329  NAG329      0.0642
     16  H2        37.3260   18.1540   37.6320 H     329  NAG329      0.0551
     17  H3        34.7990   19.6710   38.4450 H     329  NAG329      0.0639
     18  H4        37.6800   20.5950   37.9360 H     329  NAG329      0.0646
     19  H5        35.1090   21.1160   36.2700 H     329  NAG329      0.0646
     20  H61       37.0390   22.8210   36.1860 H     329  NAG329      0.0584
     21  H62       36.5790   22.1020   34.6270 H     329  NAG329      0.0584
     22  H81       35.5160   14.1650   38.8470 H     329  NAG329      0.0322
     23  H82       34.4260   15.2860   39.7030 H     329  NAG329      0.0322
     24  H83       35.9080   14.7010   40.5120 H     329  NAG329      0.0322
     25  HN2       34.6240   16.9620   38.0960 H     329  NAG329      0.1491
     26  HO3       36.9260   18.6550   39.9040 H     329  NAG329      0.2100
     27  HO4       36.1870   21.5320   39.5620 H     329  NAG329      0.2100
     28  HO6       38.2640   20.4060   35.3470 H     329  NAG329      0.2095
@<TRIPOS>BOND
     1    21     6    1
     2    28    13    1
     3    13     6    1
     4     6    20    1
     5     6     5    1
     6    12     1    1
     7    12     5    1
     8    15     1    1
     9     1     2    1
    10    19     5    1
    11     5     4    1
    12    16     2    1
    13     2     9    1
    14     2     3    1
    15     4    18    1
    16     4     3    1
    17     4    11    1
    18    25     9    1
    19     9     7   am
    20    17     3    1
    21     3    10    1
    22    11    27    1
    23    22     8    1
    24     7    14    2
    25     7     8    1
    26     8    23    1
    27     8    24    1
    28    10    26    1
