@<TRIPOS>MOLECULE
1hge_NAG_A_1.pdb
 28 28 0 0 0
SMALL
GASTEIGER

@<TRIPOS>ATOM
      1  C1        35.6700   18.4550   36.2650 C.3   329  NAG329      0.1078
      2  C2        36.1700   18.2520   37.6620 C.3   329  NAG329      0.0801
      3  C3        35.8550   19.4880   38.4720 C.3   329  NAG329      0.1043
      4  C4        36.5360   20.7060   37.8510 C.3   329  NAG329      0.1110
      5  C5        36.0900   20.8270   36.3470 C.3   329  NAG329      0.1104
      6  C6        36.9490   21.8590   35.6220 C.3   329  NAG329      0.0729
      7  C7        36.2260   16.1410   38.9020 C.2   329  NAG329      0.2103
      8  C8        35.4270   14.9880   39.4880 C.3   329  NAG329      0.0122
      9  N2        35.5340   17.0860   38.2530 N.am  329  NAG329     -0.3075
     10  O3        36.2860   19.3490   39.8120 O.3   329  NAG329     -0.3872
     11  O4        36.1620   21.8330   38.6380 O.3   329  NAG329     -0.3865
     12  O5        36.2950   19.5830   35.6640 O.3   329  NAG329     -0.3639
     13  O6        38.2670   21.3330   35.4800 O.3   329  NAG329     -0.3924
     14  O7        37.4620   16.1730   38.9800 O.2   329  NAG329     -0.2761
     15  H1        34.5810   18.6460   36.2320 H     329  NAG329      0.0642
     16  H2        37.2690   18.1360   37.5970 H     329  NAG329      0.0551
     17  H3        34.7620   19.6530   38.4720 H     329  NAG329      0.0639
     18  H4        37.6320   20.5760   37.9030 H     329  NAG329      0.0646
     19  H5        35.0240   21.1120   36.2930 H     329  NAG329      0.0646
     20  H61       36.9610   22.7960   36.1990 H     329  NAG329      0.0584
     21  H62       36.5070   22.0810   34.6400 H     329  NAG329      0.0584
     22  H81       35.4510   14.1220   38.8090 H     329  NAG329      0.0322
     23  H82       34.3800   15.2790   39.6560 H     329  NAG329      0.0322
     24  H83       35.8540   14.6870   40.4570 H     329  NAG329      0.0322
     25  HN2       34.5730   16.9520   38.1050 H     329  NAG329      0.1491
     26  HO3       36.9410   18.6380   39.8590 H     329  NAG329      0.2100
     27  HO4       36.1980   21.5270   39.5580 H     329  NAG329      0.2100
     28  HO6       38.1910   20.3780   35.3610 H     329  NAG329      0.2095
@<TRIPOS>BOND
     1    21     6    1
     2    28    13    1
     3    13     6    1
     4     6    20    1
     5     6     5    1
     6    12     1    1
     7    12     5    1
     8    15     1    1
     9     1     2    1
    10    19     5    1
    11     5     4    1
    12    16     2    1
    13     2     9    1
    14     2     3    1
    15     4    18    1
    16     4     3    1
    17     4    11    1
    18    25     9    1
    19     9     7   am
    20    17     3    1
    21     3    10    1
    22    11    27    1
    23    22     8    1
    24     7    14    2
    25     7     8    1
    26     8    23    1
    27     8    24    1
    28    10    26    1
