@<TRIPOS>MOLECULE
1hge_MNA_A_1.pdb
 39 39 0 0 0
SMALL
GASTEIGER

@<TRIPOS>ATOM
      1  C1        -7.4970   71.9520   28.2680 C.2   349  MNA349      0.4145
      2  C2        -8.1760   73.2210   27.7170 C.3   349  MNA349      0.2780
      3  C3        -8.1230   74.3800   28.7340 C.3   349  MNA349      0.0407
      4  C4        -6.7000   74.9400   28.8760 C.3   349  MNA349      0.0815
      5  C5        -6.1830   75.4010   27.5000 C.3   349  MNA349      0.0779
      6  C6        -6.2720   74.1980   26.5390 C.3   349  MNA349      0.1114
      7  C7        -5.9650   74.4730   25.0950 C.3   349  MNA349      0.1111
      8  C8        -6.0990   73.2090   24.2180 C.3   349  MNA349      0.1065
      9  C9        -5.6300   73.4890   22.7960 C.3   349  MNA349      0.0727
     10  C10       -4.2570   76.7850   26.9460 C.2   349  MNA349      0.2103
     11  C11       -2.8270   77.2330   27.2400 C.3   349  MNA349      0.0122
     12  C12       -9.7480   71.8280   26.4860 C.3   349  MNA349      0.1772
     13  N5        -4.8190   75.8610   27.7130 N.am  349  MNA349     -0.3076
     14  O1A       -7.8210   71.5230   29.3760 O.co2 349  MNA349     -0.2403
     15  O1B       -6.6600   71.3620   27.5950 O.co2 349  MNA349     -0.2403
     16  O2        -9.5390   72.8880   27.4540 O.3   349  MNA349     -0.3237
     17  O4        -6.6260   76.0340   29.8050 O.3   349  MNA349     -0.3897
     18  O6        -7.5800   73.6700   26.5030 O.3   349  MNA349     -0.3318
     19  O7        -6.9210   75.4230   24.6800 O.3   349  MNA349     -0.3865
     20  O8        -5.3260   72.1510   24.7320 O.3   349  MNA349     -0.3869
     21  O9        -5.4080   72.2420   22.1810 O.3   349  MNA349     -0.3924
     22  O10       -4.8700   77.2420   25.9810 O.2   349  MNA349     -0.2761
     23  H31       -8.5190   74.0460   29.7190 H     349  MNA349      0.0349
     24  H32       -8.7800   75.1810   28.3820 H     349  MNA349      0.0349
     25  H4        -6.0430   74.1310   29.2620 H     349  MNA349      0.0614
     26  H5        -6.8180   76.2290   27.1350 H     349  MNA349      0.0550
     27  H6        -5.5500   73.4390   26.8930 H     349  MNA349      0.0643
     28  H7        -4.9660   74.8700   25.0320 H     349  MNA349      0.0646
     29  H8        -7.1800   72.8890   24.2110 H     349  MNA349      0.0643
     30  H91       -4.7050   74.0610   22.8080 H     349  MNA349      0.0584
     31  H92       -6.3730   74.1120   22.2680 H     349  MNA349      0.0584
     32 H111       -2.2780   76.4680   27.8230 H     349  MNA349      0.0322
     33 H112       -2.8520   78.1750   27.8070 H     349  MNA349      0.0322
     34 H113       -2.2880   77.4320   26.2950 H     349  MNA349      0.0322
     35  HN5       -4.3270   75.4930   28.4750 H     349  MNA349      0.1491
     36  HO4       -6.9940   75.7610   30.6550 H     349  MNA349      0.2099
     37  HO7       -7.7220   75.2520   25.2290 H     349  MNA349      0.2100
     38  HO8       -4.8590   71.7150   24.0030 H     349  MNA349      0.2100
     39  HO9       -6.2330   71.7360   22.2960 H     349  MNA349      0.2095
@<TRIPOS>BOND
     1    21    39    1
     2    21     9    1
     3    31     9    1
     4     9    30    1
     5     9     8    1
     6    38    20    1
     7    29     8    1
     8     8    20    1
     9     8     7    1
    10    19     7    1
    11    19    37    1
    12    28     7    1
    13     7     6    1
    14    22    10    2
    15    34    11    1
    16    12    16    1
    17    18     6    1
    18    18     2    1
    19     6    27    1
    20     6     5    1
    21    10    11    1
    22    10    13   am
    23    26     5    1
    24    11    33    1
    25    11    32    1
    26    16     2    1
    27     5    13    1
    28     5     4    1
    29    15     1   ar
    30    13    35    1
    31     2     1    1
    32     2     3    1
    33     1    14   ar
    34    24     3    1
    35     3     4    1
    36     3    23    1
    37     4    25    1
    38     4    17    1
    39    17    36    1
