@<TRIPOS>MOLECULE
1hgf_NAG_A_1.pdb
 28 28 0 0 0
SMALL
GASTEIGER

@<TRIPOS>ATOM
      1  C1        18.9020   70.3650   39.3200 C.3   334  NAG334      0.1078
      2  C2        18.2070   71.1750   40.3880 C.3   334  NAG334      0.0801
      3  C3        18.5650   72.6220   40.1940 C.3   334  NAG334      0.1043
      4  C4        20.0850   72.8080   40.3270 C.3   334  NAG334      0.1110
      5  C5        20.7820   71.9660   39.2660 C.3   334  NAG334      0.1104
      6  C6        22.3530   72.0290   39.4030 C.3   334  NAG334      0.0729
      7  C7        16.1450   70.0160   41.0000 C.2   334  NAG334      0.2103
      8  C8        14.6330   69.8890   40.8730 C.3   334  NAG334      0.0122
      9  N2        16.7590   71.0250   40.3730 N.am  334  NAG334     -0.3075
     10  O3        17.8840   73.4090   41.1640 O.3   334  NAG334     -0.3872
     11  O4        20.4360   74.1760   40.1910 O.3   334  NAG334     -0.3865
     12  O5        20.3140   70.5920   39.4100 O.3   334  NAG334     -0.3639
     13  O6        22.8590   71.6550   40.6850 O.3   334  NAG334     -0.3924
     14  O7        16.7860   69.1770   41.6440 O.2   334  NAG334     -0.2761
     15  H1        18.5820   70.6260   38.2970 H     334  NAG334      0.0642
     16  H2        18.6020   70.8720   41.3790 H     334  NAG334      0.0551
     17  H3        18.2670   72.9530   39.1860 H     334  NAG334      0.0639
     18  H4        20.4070   72.4590   41.3240 H     334  NAG334      0.0646
     19  H5        20.4790   72.3110   38.2700 H     334  NAG334      0.0646
     20  H61       22.6790   73.0540   39.1710 H     334  NAG334      0.0584
     21  H62       22.7940   71.3780   38.6300 H     334  NAG334      0.0584
     22  H81       14.2920   70.1960   39.8770 H     334  NAG334      0.0322
     23  H82       14.1430   70.4970   41.6460 H     334  NAG334      0.0322
     24  H83       14.3400   68.8400   41.0380 H     334  NAG334      0.0322
     25  HN2       16.2330   71.7380   39.9750 H     334  NAG334      0.1491
     26  HO3       17.0860   73.7750   40.7860 H     334  NAG334      0.2100
     27  HO4       20.9480   74.4140   40.9700 H     334  NAG334      0.2100
     28  HO6       22.9810   70.6990   40.6940 H     334  NAG334      0.2095
@<TRIPOS>BOND
     1    19     5    1
     2    15     1    1
     3    21     6    1
     4    20     6    1
     5    17     3    1
     6     5     6    1
     7     5    12    1
     8     5     4    1
     9     1    12    1
    10     1     2    1
    11     6    13    1
    12    22     8    1
    13    25     9    1
    14    11     4    1
    15    11    27    1
    16     3     4    1
    17     3     2    1
    18     3    10    1
    19     4    18    1
    20     9     2    1
    21     9     7   am
    22     2    16    1
    23    13    28    1
    24    26    10    1
    25     8     7    1
    26     8    24    1
    27     8    23    1
    28     7    14    2
