@<TRIPOS>MOLECULE
1hgg_SIA_A_1.pdb
 37 37 0 0 0
SMALL
GASTEIGER

@<TRIPOS>ATOM
      1  C1        -7.6630   71.9900   28.4190 C.2   351  SIA351      0.3908
      2  C2        -8.2960   73.2530   27.7980 C.3   351  SIA351      0.2117
      3  C3        -8.1410   74.4410   28.7370 C.3   351  SIA351      0.0182
      4  C4        -6.6700   74.8840   28.8230 C.3   351  SIA351      0.0793
      5  C5        -6.2060   75.3020   27.4300 C.3   351  SIA351      0.0777
      6  C6        -6.3450   74.0570   26.5160 C.3   351  SIA351      0.1092
      7  C7        -6.0030   74.2880   25.0500 C.3   351  SIA351      0.1111
      8  C8        -6.1250   73.0200   24.2040 C.3   351  SIA351      0.1065
      9  C9        -5.6720   73.2510   22.7660 C.3   351  SIA351      0.0727
     10  C10       -4.2770   76.6550   26.7910 C.2   351  SIA351      0.2103
     11  C11       -2.8620   77.1310   27.0430 C.3   351  SIA351      0.0122
     12  N5        -4.8460   75.7790   27.6020 N.am  351  SIA351     -0.3076
     13  O1A       -7.8260   71.7440   29.6050 O.co2 351  SIA351     -0.2430
     14  O1B       -7.0140   71.2160   27.7260 O.co2 351  SIA351     -0.2430
     15  O4        -6.4420   75.9450   29.7490 O.3   351  SIA351     -0.3898
     16  O6        -7.7030   73.5990   26.5390 O.3   351  SIA351     -0.3509
     17  O7        -6.9260   75.2190   24.5500 O.3   351  SIA351     -0.3865
     18  O8        -5.3670   71.9650   24.7190 O.3   351  SIA351     -0.3869
     19  O9        -5.4580   71.9760   22.2060 O.3   351  SIA351     -0.3924
     20  O10       -4.8740   77.0400   25.8020 O.2   351  SIA351     -0.2761
     21  H31       -8.5430   74.1950   29.7250 H     351  SIA351      0.0325
     22  H32       -8.7580   75.2680   28.3680 H     351  SIA351      0.0325
     23  H4        -6.0530   74.0280   29.1790 H     351  SIA351      0.0614
     24  H5        -6.8530   76.1130   27.0570 H     351  SIA351      0.0550
     25  H6        -5.6680   73.2720   26.8900 H     351  SIA351      0.0643
     26  H7        -4.9800   74.6700   24.9550 H     351  SIA351      0.0646
     27  H8        -7.1840   72.7050   24.2020 H     351  SIA351      0.0643
     28  H91       -4.7470   73.8520   22.7250 H     351  SIA351      0.0584
     29  H92       -6.4590   73.8060   22.2340 H     351  SIA351      0.0584
     30 H111       -2.2640   76.3390   27.5110 H     351  SIA351      0.0322
     31 H112       -2.8750   78.0100   27.7020 H     351  SIA351      0.0322
     32 H113       -2.3870   77.4030   26.0870 H     351  SIA351      0.0322
     33  HN5       -4.3950   75.4940   28.4150 H     351  SIA351      0.1491
     34  HO4       -6.9400   75.7670   30.5480 H     351  SIA351      0.2099
     35  HO7       -7.7860   74.9400   24.8810 H     351  SIA351      0.2100
     36  HO8       -4.6830   71.7450   24.0730 H     351  SIA351      0.2100
     37  HO9       -6.0520   71.3650   22.6680 H     351  SIA351      0.2095
@<TRIPOS>BOND
     1    19    37    1
     2    19     9    1
     3    29     9    1
     4    28     9    1
     5     9     8    1
     6    36    18    1
     7    27     8    1
     8     8    18    1
     9     8     7    1
    10    17    35    1
    11    17     7    1
    12    26     7    1
    13     7     6    1
    14    20    10    2
    15    32    11    1
    16     6    16    1
    17     6    25    1
    18     6     5    1
    19    16     2    1
    20    10    11    1
    21    10    12   am
    22    11    30    1
    23    11    31    1
    24    24     5    1
    25     5    12    1
    26     5     4    1
    27    12    33    1
    28    14     1   ar
    29     2     1    1
    30     2     3    1
    31    22     3    1
    32     1    13   ar
    33     3     4    1
    34     3    21    1
    35     4    23    1
    36     4    15    1
    37    15    34    1
