@<TRIPOS>MOLECULE
1hgg_NAG_A_1.pdb
 28 28 0 0 0
SMALL
GASTEIGER

@<TRIPOS>ATOM
      1  C1        18.8640   70.2450   39.3160 C.3   334  NAG334      0.1078
      2  C2        18.1670   71.1040   40.3570 C.3   334  NAG334      0.0801
      3  C3        18.5460   72.5470   40.1020 C.3   334  NAG334      0.1043
      4  C4        20.0610   72.6970   40.2550 C.3   334  NAG334      0.1110
      5  C5        20.7170   71.8510   39.1600 C.3   334  NAG334      0.1104
      6  C6        22.2800   71.9570   39.1410 C.3   334  NAG334      0.0729
      7  C7        16.0960   70.0070   41.0270 C.2   334  NAG334      0.2103
      8  C8        14.5760   69.8980   40.9290 C.3   334  NAG334      0.0122
      9  N2        16.7180   70.9740   40.3530 N.am  334  NAG334     -0.3075
     10  O3        17.8690   73.4240   40.9910 O.3   334  NAG334     -0.3872
     11  O4        20.4550   74.0590   40.1920 O.3   334  NAG334     -0.3865
     12  O5        20.2920   70.4790   39.3800 O.3   334  NAG334     -0.3639
     13  O6        22.8720   71.9230   40.4350 O.3   334  NAG334     -0.3924
     14  O7        16.7420   69.2050   41.7120 O.2   334  NAG334     -0.2761
     15  H1        18.5510   70.4790   38.2830 H     334  NAG334      0.0642
     16  H2        18.5540   70.8380   41.3580 H     334  NAG334      0.0551
     17  H3        18.2630   72.8330   39.0760 H     334  NAG334      0.0639
     18  H4        20.3800   72.3070   41.2370 H     334  NAG334      0.0646
     19  H5        20.3460   72.1470   38.1640 H     334  NAG334      0.0646
     20  H61       22.5580   72.9070   38.6570 H     334  NAG334      0.0584
     21  H62       22.6890   71.1500   38.5120 H     334  NAG334      0.0584
     22  H81       14.2320   70.1350   39.9150 H     334  NAG334      0.0322
     23  H82       14.1110   70.5930   41.6420 H     334  NAG334      0.0322
     24  H83       14.2570   68.8780   41.1870 H     334  NAG334      0.0322
     25  HN2       16.2170   71.7400   40.0140 H     334  NAG334      0.1491
     26  HO3       18.4500   74.1970   41.0680 H     334  NAG334      0.2100
     27  HO4       21.3980   74.0770   40.4040 H     334  NAG334      0.2100
     28  HO6       23.0790   71.0070   40.6520 H     334  NAG334      0.2095
@<TRIPOS>BOND
     1    19     5    1
     2    15     1    1
     3    21     6    1
     4    20     6    1
     5    17     3    1
     6     6     5    1
     7     6    13    1
     8     5    12    1
     9     5     4    1
    10     1    12    1
    11     1     2    1
    12    22     8    1
    13    25     9    1
    14     3     4    1
    15     3     2    1
    16     3    10    1
    17    11     4    1
    18    11    27    1
    19     4    18    1
    20     9     2    1
    21     9     7   am
    22     2    16    1
    23    13    28    1
    24     8     7    1
    25     8    24    1
    26     8    23    1
    27    10    26    1
    28     7    14    2
