@<TRIPOS>MOLECULE
1hgg_BGC_A_1.pdb
 23 23 0 0 0
SMALL
GASTEIGER

@<TRIPOS>ATOM
      1  C2         2.8400   58.7950   23.5500 C.3   353  BGC353      0.1340
      2  C3         3.0560   57.5930   22.6170 C.3   353  BGC353      0.1173
      3  C4         4.3620   56.9030   23.0090 C.3   353  BGC353      0.1502
      4  C5         4.3250   56.4670   24.4750 C.3   353  BGC353      0.1163
      5  C6         5.6310   55.7580   24.8850 C.3   353  BGC353      0.0731
      6  C1         2.9210   58.3580   24.9910 C.3   353  BGC353      0.1854
      7  O1         2.8600   59.5330   25.7580 O.3   353  BGC353     -0.3649
      8  O2         1.5790   59.3720   23.2820 O.3   353  BGC353     -0.3841
      9  O3         3.0950   58.0660   21.2840 O.3   353  BGC353     -0.3863
     10  O4         4.6460   55.7430   22.1860 O.3   353  BGC353     -0.2256
     11  O5         4.1190   57.6350   25.2780 O.3   353  BGC353     -0.3406
     12  O6         5.6000   55.4210   26.2610 O.3   353  BGC353     -0.3924
     13  H2         3.6110   59.5420   23.3460 H     353  BGC353      0.0671
     14  H3         2.2130   56.8790   22.7460 H     353  BGC353      0.0649
     15  H4         5.1700   57.6520   22.8990 H     353  BGC353      0.0682
     16  H5         3.4820   55.7690   24.6280 H     353  BGC353      0.0648
     17 H6C1        6.4540   56.4420   24.7170 H     353  BGC353      0.0584
     18 H6C2        5.8180   54.8390   24.2620 H     353  BGC353      0.0584
     19  H1         2.0570   57.7170   25.2630 H     353  BGC353      0.0935
     20  HA         3.5450   59.4700   26.4260 H     353  BGC353      0.2126
     21  HB         1.6010   59.5250   22.3260 H     353  BGC353      0.2101
     22  HC         3.1720   57.3270   20.6690 H     353  BGC353      0.2100
     23  H6         4.7370   55.0510   26.5010 H     353  BGC353      0.2095
@<TRIPOS>BOND
     1    22     9    1
     2     9     2    1
     3    10     3    1
     4    21     8    1
     5     2    14    1
     6     2     3    1
     7     2     1    1
     8    15     3    1
     9     3     4    1
    10     8     1    1
    11    13     1    1
    12     1     6    1
    13    18     5    1
    14     4    16    1
    15     4     5    1
    16     4    11    1
    17    17     5    1
    18     5    12    1
    19     6    19    1
    20     6    11    1
    21     6     7    1
    22     7    20    1
    23    12    23    1
