@<TRIPOS>MOLECULE
1hgg_GAL_A_1.pdb
 21 21 0 0 0
SMALL
GASTEIGER

@<TRIPOS>ATOM
      1  C1       -11.3240   71.3920   24.5920 C.3   349  GAL349      0.1162
      2  C2       -10.8950   72.4740   25.5750 C.3   349  GAL349      0.1154
      3  C3        -9.9830   71.9130   26.6390 C.3   349  GAL349      0.1501
      4  C4       -10.6800   70.7350   27.3190 C.3   349  GAL349      0.1150
      5  C5       -11.0330   69.6790   26.2760 C.3   349  GAL349      0.1106
      6  C6       -11.7510   68.4550   26.8210 C.3   349  GAL349      0.0729
      7  O2       -10.2020   73.5430   24.9620 O.3   349  GAL349     -0.3864
      8  O3        -9.6860   72.9710   27.5790 O.3   349  GAL349     -0.2256
      9  O4       -11.8550   71.1660   27.9560 O.3   349  GAL349     -0.3864
     10  O5       -11.8760   70.2900   25.3020 O.3   349  GAL349     -0.3631
     11  O6       -12.3860   67.7700   25.7610 O.3   349  GAL349     -0.3924
     12  H1       -10.4360   71.0780   24.0140 H     349  GAL349      0.0650
     13  H2       -11.7940   72.8870   26.0480 H     349  GAL349      0.0648
     14  H3        -9.0740   71.5410   26.1260 H     349  GAL349      0.0682
     15  H4        -9.9940   70.3120   28.0730 H     349  GAL349      0.0648
     16  H5       -10.1040   69.3380   25.7830 H     349  GAL349      0.0646
     17  H61      -12.5090   68.7660   27.5600 H     349  GAL349      0.0584
     18  H62      -11.0400   67.8020   27.3450 H     349  GAL349      0.0584
     19  HO2       -9.6930   73.9330   25.6870 H     349  GAL349      0.2100
     20  HO4      -12.5540   71.1080   27.2900 H     349  GAL349      0.2100
     21  HO6      -11.9060   67.9230   24.9560 H     349  GAL349      0.2095
@<TRIPOS>BOND
     1    12     1    1
     2     1    10    1
     3     1     2    1
     4    21    11    1
     5     7     2    1
     6     7    19    1
     7    10     5    1
     8     2    13    1
     9     2     3    1
    10    11     6    1
    11    16     5    1
    12    14     3    1
    13     5     6    1
    14     5     4    1
    15     3     4    1
    16     3     8    1
    17     6    18    1
    18     6    17    1
    19    20     9    1
    20     4     9    1
    21     4    15    1
