@<TRIPOS>MOLECULE
1hgh_MNA_A_1.pdb
 39 39 0 0 0
SMALL
GASTEIGER

@<TRIPOS>ATOM
      1  C1        -7.6280   71.7930   28.3960 C.2   349  MNA349      0.4145
      2  C2        -8.3040   73.0290   27.7950 C.3   349  MNA349      0.2780
      3  C3        -8.2180   74.2180   28.7610 C.3   349  MNA349      0.0407
      4  C4        -6.7770   74.7230   28.8860 C.3   349  MNA349      0.0815
      5  C5        -6.2860   75.1900   27.5150 C.3   349  MNA349      0.0779
      6  C6        -6.3540   73.9710   26.5920 C.3   349  MNA349      0.1114
      7  C7        -6.0120   74.2630   25.1560 C.3   349  MNA349      0.1111
      8  C8        -6.1380   73.0250   24.2950 C.3   349  MNA349      0.1065
      9  C9        -5.7020   73.2760   22.8590 C.3   349  MNA349      0.0727
     10  C10       -4.4490   76.7290   27.0190 C.2   349  MNA349      0.2103
     11  C11       -3.0120   77.1640   27.2500 C.3   349  MNA349      0.0122
     12  C12       -9.9710   71.5670   26.7060 C.3   349  MNA349      0.1772
     13  N5        -4.9390   75.7070   27.7130 N.am  349  MNA349     -0.3076
     14  O1A       -7.9200   71.4410   29.5360 O.co2 349  MNA349     -0.2403
     15  O1B       -6.7690   71.1860   27.7750 O.co2 349  MNA349     -0.2403
     16  O2        -9.6910   72.6800   27.5870 O.3   349  MNA349     -0.3237
     17  O4        -6.6710   75.7880   29.8220 O.3   349  MNA349     -0.3897
     18  O6        -7.6870   73.4260   26.5540 O.3   349  MNA349     -0.3318
     19  O7        -6.9420   75.2030   24.7060 O.3   349  MNA349     -0.3865
     20  O8        -5.3580   71.9920   24.8010 O.3   349  MNA349     -0.3869
     21  O9        -5.5270   72.0120   22.2560 O.3   349  MNA349     -0.3924
     22  O10       -5.1370   77.3020   26.1780 O.2   349  MNA349     -0.2761
     23  H31       -8.6240   73.9540   29.7490 H     349  MNA349      0.0349
     24  H32       -8.8510   75.0300   28.3710 H     349  MNA349      0.0349
     25  H4        -6.1280   73.9130   29.2490 H     349  MNA349      0.0614
     26  H5        -6.9560   75.9890   27.1450 H     349  MNA349      0.0550
     27  H6        -5.6240   73.2330   26.9420 H     349  MNA349      0.0643
     28  H7        -4.9980   74.6820   25.0780 H     349  MNA349      0.0646
     29  H8        -7.1870   72.6890   24.2750 H     349  MNA349      0.0643
     30  H91       -4.7570   73.8440   22.8280 H     349  MNA349      0.0584
     31  H92       -6.4550   73.8860   22.3370 H     349  MNA349      0.0584
     32 H111       -2.4460   76.3780   27.7620 H     349  MNA349      0.0322
     33 H112       -2.9820   78.0950   27.8340 H     349  MNA349      0.0322
     34 H113       -2.5260   77.3480   26.2850 H     349  MNA349      0.0322
     35  HN5       -4.4350   75.3580   28.4750 H     349  MNA349      0.1491
     36  HO4       -7.0820   75.5350   30.6500 H     349  MNA349      0.2099
     37  HO7       -7.7590   74.9890   25.1790 H     349  MNA349      0.2100
     38  HO8       -4.7920   71.6830   24.0850 H     349  MNA349      0.2100
     39  HO9       -6.2530   71.4580   22.5670 H     349  MNA349      0.2095
@<TRIPOS>BOND
     1    21    39    1
     2    21     9    1
     3    31     9    1
     4    30     9    1
     5     9     8    1
     6    38    20    1
     7    29     8    1
     8     8    20    1
     9     8     7    1
    10    19     7    1
    11    19    37    1
    12    28     7    1
    13     7     6    1
    14    22    10    2
    15    34    11    1
    16    18     6    1
    17    18     2    1
    18     6    27    1
    19     6     5    1
    20    12    16    1
    21    10    11    1
    22    10    13   am
    23    26     5    1
    24    11    32    1
    25    11    33    1
    26     5    13    1
    27     5     4    1
    28    16     2    1
    29    13    35    1
    30    15     1   ar
    31     2     1    1
    32     2     3    1
    33    24     3    1
    34     1    14   ar
    35     3     4    1
    36     3    23    1
    37     4    25    1
    38     4    17    1
    39    17    36    1
