@<TRIPOS>MOLECULE
1hgh_NAG_A_1.pdb
 28 28 0 0 0
SMALL
GASTEIGER

@<TRIPOS>ATOM
      1  C1        35.5070   18.3190   36.2690 C.3   329  NAG329      0.1078
      2  C2        36.0350   18.1140   37.6540 C.3   329  NAG329      0.0801
      3  C3        35.7560   19.3460   38.4620 C.3   329  NAG329      0.1043
      4  C4        36.4620   20.5470   37.8280 C.3   329  NAG329      0.1110
      5  C5        35.9790   20.6870   36.3450 C.3   329  NAG329      0.1104
      6  C6        36.8240   21.7220   35.5840 C.3   329  NAG329      0.0729
      7  C7        36.1330   16.0750   39.0210 C.2   329  NAG329      0.2103
      8  C8        35.3460   14.9170   39.6270 C.3   329  NAG329      0.0122
      9  N2        35.4230   16.9620   38.2980 N.am  329  NAG329     -0.3075
     10  O3        36.2110   19.1670   39.7920 O.3   329  NAG329     -0.3872
     11  O4        36.1600   21.6910   38.6130 O.3   329  NAG329     -0.3865
     12  O5        36.1430   19.4310   35.6650 O.3   329  NAG329     -0.3639
     13  O6        38.1310   21.1850   35.3850 O.3   329  NAG329     -0.3924
     14  O7        37.3670   16.1600   39.1470 O.2   329  NAG329     -0.2761
     15  H1        34.4190   18.5290   36.2490 H     329  NAG329      0.0642
     16  H2        37.1300   17.9880   37.5690 H     329  NAG329      0.0551
     17  H3        34.6700   19.5450   38.4870 H     329  NAG329      0.0639
     18  H4        37.5530   20.3870   37.8520 H     329  NAG329      0.0646
     19  H5        34.9170   20.9930   36.3270 H     329  NAG329      0.0646
     20  H61       36.8740   22.6540   36.1740 H     329  NAG329      0.0584
     21  H62       36.3560   21.9710   34.6230 H     329  NAG329      0.0584
     22  H81       35.3700   14.0520   38.9460 H     329  NAG329      0.0322
     23  H82       34.2940   15.1970   39.7910 H     329  NAG329      0.0322
     24  H83       35.7800   14.6160   40.5910 H     329  NAG329      0.0322
     25  HN2       34.4580   16.8240   38.1780 H     329  NAG329      0.1491
     26  HO3       36.9570   18.5510   39.8100 H     329  NAG329      0.2100
     27  HO4       36.2090   21.3980   39.5360 H     329  NAG329      0.2100
     28  HO6       38.0630   20.2240   35.3500 H     329  NAG329      0.2095
@<TRIPOS>BOND
     1    21     6    1
     2    28    13    1
     3    13     6    1
     4     6    20    1
     5     6     5    1
     6    12     1    1
     7    12     5    1
     8    15     1    1
     9     1     2    1
    10    19     5    1
    11     5     4    1
    12    16     2    1
    13     2     9    1
    14     2     3    1
    15     4    18    1
    16     4     3    1
    17     4    11    1
    18    25     9    1
    19     9     7   am
    20     3    17    1
    21     3    10    1
    22    11    27    1
    23    22     8    1
    24     7    14    2
    25     7     8    1
    26     8    23    1
    27     8    24    1
    28    10    26    1
