@<TRIPOS>MOLECULE
1hgi_ANA_A_1.pdb
 41 41 0 0 0
SMALL
GASTEIGER

@<TRIPOS>ATOM
      1  C1        -7.5140   71.6350   28.1390 C.2   349  ANA349      0.4146
      2  C2        -8.2370   72.9020   27.6560 C.3   349  ANA349      0.2790
      3  C3        -8.1790   74.0100   28.7110 C.3   349  ANA349      0.0518
      4  C4        -6.7690   74.5550   28.8370 C.3   349  ANA349      0.1292
      5  C5        -6.3190   75.0860   27.4810 C.3   349  ANA349      0.0889
      6  C6        -6.3410   73.9550   26.4600 C.3   349  ANA349      0.1124
      7  C7        -5.9570   74.3300   25.0330 C.3   349  ANA349      0.1112
      8  C8        -6.1310   73.1110   24.1080 C.3   349  ANA349      0.1065
      9  C9        -5.5280   73.4090   22.7380 C.3   349  ANA349      0.0727
     10  C10       -4.4950   76.6390   27.0280 C.2   349  ANA349      0.2103
     11  C11       -3.0490   77.0410   27.2650 C.3   349  ANA349      0.0122
     12  C12       -9.8620   71.5390   26.4670 C.3   349  ANA349      0.1772
     13  CA4       -6.8080   75.2060   31.1970 C.2   349  ANA349      0.3171
     14  CM4       -8.0340   75.6950   31.9280 C.3   349  ANA349      0.1212
     15  N5        -4.9680   75.5860   27.6600 N.am  349  ANA349     -0.3066
     16  O1A       -7.8140   71.1280   29.2190 O.co2 349  ANA349     -0.2403
     17  O1B       -6.6280   71.1390   27.4570 O.co2 349  ANA349     -0.2403
     18  O2        -9.6080   72.5550   27.4610 O.3   349  ANA349     -0.3237
     19  O4        -6.5930   75.5930   29.8380 O.3   349  ANA349     -0.4587
     20  O6        -7.6600   73.4020   26.4290 O.3   349  ANA349     -0.3317
     21  O7        -6.7660   75.3990   24.5890 O.3   349  ANA349     -0.3865
     22  O8        -5.5090   71.9820   24.6680 O.3   349  ANA349     -0.3869
     23  O9        -5.4070   72.2350   21.9630 O.3   349  ANA349     -0.3924
     24  O10       -5.2200   77.2380   26.2370 O.2   349  ANA349     -0.2761
     25  OA4       -6.0560   74.4070   31.7540 O.2   349  ANA349     -0.2501
     26  H31       -8.5490   73.6190   29.6670 H     349  ANA349      0.0360
     27  H32       -8.8580   74.8160   28.4030 H     349  ANA349      0.0360
     28  H4        -6.0820   73.7410   29.1400 H     349  ANA349      0.0755
     29  H5        -7.0230   75.8790   27.1670 H     349  ANA349      0.0561
     30  H6        -5.5930   73.2190   26.7860 H     349  ANA349      0.0644
     31  H7        -4.9210   74.6790   25.0170 H     349  ANA349      0.0646
     32  H8        -7.2000   72.8930   23.9730 H     349  ANA349      0.0643
     33  H91       -4.5370   73.8770   22.8490 H     349  ANA349      0.0584
     34  H92       -6.1630   74.1360   22.2090 H     349  ANA349      0.0584
     35 H111       -2.5090   76.2710   27.8280 H     349  ANA349      0.0322
     36 H112       -3.0000   77.9870   27.8240 H     349  ANA349      0.0322
     37 H113       -2.5550   77.1840   26.2970 H     349  ANA349      0.0322
     38  HN5       -4.3970   75.1010   28.2870 H     349  ANA349      0.1492
     39  HO7       -6.4850   76.2090   25.0490 H     349  ANA349      0.2100
     40  HO8       -6.0850   71.6440   25.3770 H     349  ANA349      0.2100
     41  HO9       -5.5560   72.5110   21.0420 H     349  ANA349      0.2095
@<TRIPOS>BOND
     1    41    23    1
     2    23     9    1
     3    34     9    1
     4     9    33    1
     5     9     8    1
     6    32     8    1
     7     8    22    1
     8     8     7    1
     9    21     7    1
    10    21    39    1
    11    22    40    1
    12    31     7    1
    13     7     6    1
    14    24    10    2
    15    37    11    1
    16    20     6    1
    17    20     2    1
    18     6    30    1
    19     6     5    1
    20    12    18    1
    21    10    11    1
    22    10    15   am
    23    29     5    1
    24    11    36    1
    25    11    35    1
    26    17     1   ar
    27    18     2    1
    28     5    15    1
    29     5     4    1
    30     2     1    1
    31     2     3    1
    32    15    38    1
    33     1    16   ar
    34    27     3    1
    35     3     4    1
    36     3    26    1
    37     4    28    1
    38     4    19    1
    39    19    13    1
    40    13    25    2
    41    13    14    1
