@<TRIPOS>MOLECULE
1hgi_NAG_A_1.pdb
 28 28 0 0 0
SMALL
GASTEIGER

@<TRIPOS>ATOM
      1  C1        35.5150   18.2670   36.2010 C.3   329  NAG329      0.1078
      2  C2        36.0090   18.0860   37.6040 C.3   329  NAG329      0.0801
      3  C3        35.7160   19.3150   38.4060 C.3   329  NAG329      0.1043
      4  C4        36.3570   20.5270   37.7540 C.3   329  NAG329      0.1110
      5  C5        35.9100   20.6430   36.2690 C.3   329  NAG329      0.1104
      6  C6        36.7750   21.6920   35.5560 C.3   329  NAG329      0.0729
      7  C7        36.0470   16.0640   38.9870 C.2   329  NAG329      0.2103
      8  C8        35.2390   14.9500   39.6270 C.3   329  NAG329      0.0122
      9  N2        35.3650   16.9480   38.2480 N.am  329  NAG329     -0.3075
     10  O3        36.2190   19.1670   39.7230 O.3   329  NAG329     -0.3872
     11  O4        35.9540   21.6580   38.5030 O.3   329  NAG329     -0.3865
     12  O5        36.1300   19.4010   35.6030 O.3   329  NAG329     -0.3639
     13  O6        38.1080   21.1930   35.4350 O.3   329  NAG329     -0.3924
     14  O7        37.2810   16.1110   39.0960 O.2   329  NAG329     -0.2761
     15  H1        34.4210   18.4390   36.1530 H     329  NAG329      0.0642
     16  H2        37.1070   17.9560   37.5470 H     329  NAG329      0.0551
     17  H3        34.6250   19.4750   38.4560 H     329  NAG329      0.0639
     18  H4        37.4560   20.4390   37.8150 H     329  NAG329      0.0646
     19  H5        34.8430   20.9270   36.2130 H     329  NAG329      0.0646
     20  H61       36.7720   22.6290   36.1360 H     329  NAG329      0.0584
     21  H62       36.3580   21.9230   34.5670 H     329  NAG329      0.0584
     22  H81       35.2280   14.0710   38.9660 H     329  NAG329      0.0322
     23  H82       34.2050   15.2690   39.8210 H     329  NAG329      0.0322
     24  H83       35.6940   14.6570   40.5840 H     329  NAG329      0.0322
     25  HN2       34.4080   16.8020   38.0850 H     329  NAG329      0.1491
     26  HO3       36.9170   18.4960   39.7400 H     329  NAG329      0.2100
     27  HO4       36.0780   21.4160   39.4340 H     329  NAG329      0.2100
     28  HO6       38.0580   20.2340   35.3400 H     329  NAG329      0.2095
@<TRIPOS>BOND
     1    21     6    1
     2    28    13    1
     3    13     6    1
     4     6    20    1
     5     6     5    1
     6    12     1    1
     7    12     5    1
     8    15     1    1
     9     1     2    1
    10    19     5    1
    11     5     4    1
    12    16     2    1
    13     2     9    1
    14     2     3    1
    15     4    18    1
    16     4     3    1
    17     4    11    1
    18    25     9    1
    19     9     7   am
    20     3    17    1
    21     3    10    1
    22    11    27    1
    23    22     8    1
    24     7    14    2
    25     7     8    1
    26     8    23    1
    27     8    24    1
    28    10    26    1
