@<TRIPOS>MOLECULE
1hgj_NAG_A_1.pdb
 28 28 0 0 0
SMALL
GASTEIGER

@<TRIPOS>ATOM
      1  C1        18.8580   70.2960   39.4130 C.3   334  NAG334      0.1078
      2  C2        18.1490   71.1570   40.4230 C.3   334  NAG334      0.0801
      3  C3        18.4970   72.5950   40.1280 C.3   334  NAG334      0.1043
      4  C4        20.0110   72.8140   40.2970 C.3   334  NAG334      0.1110
      5  C5        20.7120   71.9320   39.2600 C.3   334  NAG334      0.1104
      6  C6        22.2790   72.0560   39.2990 C.3   334  NAG334      0.0729
      7  C7        16.0970   70.0360   41.0970 C.2   334  NAG334      0.2103
      8  C8        14.5830   69.9460   40.9680 C.3   334  NAG334      0.0122
      9  N2        16.7120   70.9940   40.4080 N.am  334  NAG334     -0.3075
     10  O3        17.7870   73.4890   40.9620 O.3   334  NAG334     -0.3872
     11  O4        20.3570   74.1950   40.1580 O.3   334  NAG334     -0.3865
     12  O5        20.2770   70.5520   39.5150 O.3   334  NAG334     -0.3639
     13  O6        22.8310   71.9950   40.6140 O.3   334  NAG334     -0.3924
     14  O7        16.7240   69.2350   41.7970 O.2   334  NAG334     -0.2761
     15  H1        18.5790   70.5140   38.3650 H     334  NAG334      0.0642
     16  H2        18.5350   70.9230   41.4310 H     334  NAG334      0.0551
     17  H3        18.2280   72.8370   39.0850 H     334  NAG334      0.0639
     18  H4        20.3240   72.4850   41.3040 H     334  NAG334      0.0646
     19  H5        20.3730   72.1920   38.2430 H     334  NAG334      0.0646
     20  H61       22.5640   73.0170   38.8440 H     334  NAG334      0.0584
     21  H62       22.7170   71.2690   38.6650 H     334  NAG334      0.0584
     22  H81       14.2600   70.2100   39.9540 H     334  NAG334      0.0322
     23  H82       14.1160   70.6320   41.6900 H     334  NAG334      0.0322
     24  H83       14.2540   68.9250   41.2070 H     334  NAG334      0.0322
     25  HN2       16.2030   71.7400   40.0380 H     334  NAG334      0.1491
     26  HO3       18.3190   74.2980   40.9600 H     334  NAG334      0.2100
     27  HO4       21.2690   74.2790   40.4620 H     334  NAG334      0.2100
     28  HO6       23.0580   71.0760   40.8030 H     334  NAG334      0.2095
@<TRIPOS>BOND
     1    19     5    1
     2    15     1    1
     3    21     6    1
     4    20     6    1
     5    17     3    1
     6     5     6    1
     7     5    12    1
     8     5     4    1
     9     6    13    1
    10     1    12    1
    11     1     2    1
    12    22     8    1
    13    25     9    1
    14     3     4    1
    15     3     2    1
    16     3    10    1
    17    11     4    1
    18    11    27    1
    19     4    18    1
    20     9     2    1
    21     9     7   am
    22     2    16    1
    23    13    28    1
    24    26    10    1
    25     8     7    1
    26     8    24    1
    27     8    23    1
    28     7    14    2
