@<TRIPOS>MOLECULE
1hgj_AMN_A_1.pdb
 41 41 0 0 0
SMALL
GASTEIGER

@<TRIPOS>ATOM
      1  C1        -7.6260   72.3680   28.8040 C.2   349  AMN349      0.4145
      2  C2        -8.2630   73.6760   28.2840 C.3   349  AMN349      0.2780
      3  C3        -8.0700   74.8110   29.3200 C.3   349  AMN349      0.0407
      4  C4        -6.6270   75.2970   29.3750 C.3   349  AMN349      0.0815
      5  C5        -6.1930   75.7220   27.9490 C.3   349  AMN349      0.0779
      6  C6        -6.3400   74.5170   27.0180 C.3   349  AMN349      0.1112
      7  C7        -5.9790   74.6750   25.5450 C.3   349  AMN349      0.1072
      8  C8        -6.4190   73.4360   24.7480 C.3   349  AMN349      0.0681
      9  C9        -6.0190   73.5480   23.2830 C.3   349  AMN349     -0.0670
     10  C10       -4.3420   77.2200   27.4080 C.2   349  AMN349      0.2103
     11  C11       -2.9150   77.6600   27.7030 C.3   349  AMN349      0.0122
     12  C12       -9.9920   72.4180   27.1150 C.3   349  AMN349      0.1772
     13  N5        -4.8150   76.1660   28.0560 N.am  349  AMN349     -0.3076
     14  N9        -6.2100   72.1690   22.7750 N.4   349  AMN349      0.3798
     15  O1A       -7.8530   72.0310   29.9600 O.co2 349  AMN349     -0.2403
     16  O1B       -6.8960   71.6750   28.0820 O.co2 349  AMN349     -0.2403
     17  O2        -9.6630   73.4300   28.0860 O.3   349  AMN349     -0.3237
     18  O4        -6.4270   76.3690   30.3050 O.3   349  AMN349     -0.3897
     19  O6        -7.6870   74.0810   27.0330 O.3   349  AMN349     -0.3318
     20  O7        -6.6310   75.8090   25.0200 O.3   349  AMN349     -0.3867
     21  O8        -5.8880   72.2380   25.2440 O.3   349  AMN349     -0.3910
     22  O10       -5.0290   77.7790   26.5580 O.2   349  AMN349     -0.2761
     23  H31       -8.3980   74.4880   30.3190 H     349  AMN349      0.0349
     24  H32       -8.7320   75.6490   29.0490 H     349  AMN349      0.0349
     25  H4        -5.9960   74.4590   29.7140 H     349  AMN349      0.0614
     26  H5        -6.8680   76.5300   27.6000 H     349  AMN349      0.0550
     27  H6        -5.6860   73.7140   27.3940 H     349  AMN349      0.0643
     28  H7        -4.8970   74.8270   25.4610 H     349  AMN349      0.0645
     29  H8        -7.5200   73.3740   24.7710 H     349  AMN349      0.0600
     30  H91       -4.9910   73.8430   23.1350 H     349  AMN349      0.0075
     31  H92       -6.6590   74.2340   22.7430 H     349  AMN349      0.0075
     32 H111       -2.2030   77.2610   26.9710 H     349  AMN349      0.0322
     33 H112       -2.6560   77.3550   28.7210 H     349  AMN349      0.0322
     34 H113       -2.8630   78.7590   27.6910 H     349  AMN349      0.0322
     35  HN5       -4.1950   75.5780   28.5310 H     349  AMN349      0.1491
     36 HN91       -6.4930   71.5950   23.5960 H     349  AMN349     -0.0900
     37 HN92       -5.3050   71.8080   22.4400 H     349  AMN349     -0.0900
     38  HO4       -5.8130   77.0040   29.9280 H     349  AMN349      0.2099
     39  HO7       -6.3630   76.5880   25.5420 H     349  AMN349      0.2100
     40  HO8       -6.2800   72.0820   26.1320 H     349  AMN349      0.2098
     41 HN93       -6.8590   72.1790   21.9600 H     349  AMN349     -0.0900
@<TRIPOS>BOND
     1    41    14    1
     2    37    14    1
     3    31     9    1
     4    14     9    1
     5    14    36    1
     6    30     9    1
     7     9     8    1
     8     8    29    1
     9     8    21    1
    10     8     7    1
    11    20    39    1
    12    20     7    1
    13    21    40    1
    14    28     7    1
    15     7     6    1
    16    22    10    2
    17    32    11    1
    18     6    19    1
    19     6    27    1
    20     6     5    1
    21    19     2    1
    22    12    17    1
    23    10    11    1
    24    10    13   am
    25    26     5    1
    26    34    11    1
    27    11    33    1
    28     5    13    1
    29     5     4    1
    30    13    35    1
    31    16     1   ar
    32    17     2    1
    33     2     1    1
    34     2     3    1
    35     1    15   ar
    36    24     3    1
    37     3     4    1
    38     3    23    1
    39     4    25    1
    40     4    18    1
    41    38    18    1
