@<TRIPOS>MOLECULE
1hgw_MAN_A_1.pdb
 11 11 0 0 0
SMALL
GASTEIGER

@<TRIPOS>ATOM
      1  C1        14.1700   47.2640   60.3800 C.3   504  MAN504      0.1777
      2  C2        13.5840   48.6370   60.7050 C.3   504  MAN504      0.2141
      3  C3        14.6870   49.5580   61.2200 C.3   504  MAN504      0.2173
      4  C4        15.3770   48.9200   62.4240 C.3   504  MAN504      0.2142
      5  C5        15.9300   47.5490   62.0380 C.3   504  MAN504      0.1810
      6  C6        16.5500   46.8580   63.2460 C.3   504  MAN504      0.2141
      7  O2        12.5560   48.5170   61.6630 O.3   504  MAN504     -0.2176
      8  O3        14.1590   50.8160   61.5680 O.3   504  MAN504     -0.2175
      9  O4        16.4250   49.7490   62.8820 O.3   504  MAN504     -0.2176
     10  O5        14.8620   46.7300   61.5280 O.3   504  MAN504     -0.3481
     11  O6        15.6280   46.8270   64.3160 O.3   504  MAN504     -0.2176
@<TRIPOS>BOND
     1     1     2    1
     2     1    10    1
     3     2     3    1
     4     2     7    1
     5     3     8    1
     6     3     4    1
     7    10     5    1
     8     5     4    1
     9     5     6    1
    10     4     9    1
    11     6    11    1
