@<TRIPOS>MOLECULE
1hgx_5GP_A_1.pdb
 24 26 0 0 0
SMALL
GASTEIGER

@<TRIPOS>ATOM
      1  P         -7.1940   10.4490   26.9540 P.3   600  5GP600      0.5327
      2  O1P       -8.1620    9.3480   26.7580 O.3   600  5GP600     -0.1145
      3  O2P       -7.1620   11.3820   25.8260 O.2   600  5GP600     -0.2224
      4  O3P       -7.3660   11.0790   28.2760 O.3   600  5GP600     -0.1145
      5  O5'       -5.8100    9.7560   27.1410 O.3   600  5GP600     -0.2675
      6  C5'       -5.3600    8.6040   26.4410 C.3   600  5GP600      0.1859
      7  C4'       -3.9410    8.8120   26.0940 C.3   600  5GP600      0.1801
      8  O4'       -3.0770    8.8770   27.2410 O.3   600  5GP600     -0.3326
      9  C3'       -3.4200    7.7040   25.2320 C.3   600  5GP600      0.2158
     10  O3'       -2.3590    8.2870   24.4830 O.3   600  5GP600     -0.2175
     11  C2'       -2.8530    6.8140   26.2680 C.3   600  5GP600      0.2310
     12  O2'       -1.8520    5.9850   25.6980 O.3   600  5GP600     -0.2158
     13  C1'       -2.2540    7.7200   27.3450 C.3   600  5GP600      0.2293
     14  N9        -2.4580    7.1040   28.7130 N.pl3 600  5GP600     -0.2354
     15  C8        -3.6240    7.1400   29.4630 C.3   600  5GP600      0.2246
     16  N7        -3.5600    6.4760   30.5900 N.2   600  5GP600     -0.2322
     17  C5        -2.2740    5.9300   30.6120 C.2   600  5GP600      0.2182
     18  C6        -1.6960    5.0110   31.5450 C.1   600  5GP600      0.2372
     19  O6        -2.1650    4.6400   32.6200 O.2   600  5GP600     -0.2069
     20  N1        -0.4650    4.5250   31.1260 N.2   600  5GP600     -0.2485
     21  C2         0.1640    4.8920   29.9400 C.1   600  5GP600      0.2531
     22  N2         1.3990    4.4260   29.7420 N.pl3 600  5GP600     -0.0226
     23  N3        -0.3590    5.7880   29.0670 N.2   600  5GP600     -0.3074
     24  C4        -1.6010    6.2510   29.4430 C.2   600  5GP600      0.2300
@<TRIPOS>BOND
     1    10     9    1
     2     9     7    1
     3     9    11    1
     4    12    11    1
     5     3     1    2
     6     7     6    1
     7     7     8    1
     8    11    13    1
     9     6     5    1
    10     2     1    1
    11     1     5    1
    12     1     4    1
    13     8    13    1
    14    13    14    1
    15    14    24    1
    16    14    15    1
    17    23    24    2
    18    23    21    2
    19    24    17    1
    20    15    16    1
    21    22    21    1
    22    21    20    2
    23    16    17    2
    24    17    18    1
    25    20    18    2
    26    18    19    2
