@<TRIPOS>MOLECULE
1hgy_MAN_A_1.pdb
 11 11 0 0 0
SMALL
GASTEIGER

@<TRIPOS>ATOM
      1  C1         9.2210   44.3840   22.6770 C.3   503  MAN503      0.1777
      2  C2         8.6030   45.7720   22.7100 C.3   503  MAN503      0.2141
      3  C3         7.3750   45.7790   23.6200 C.3   503  MAN503      0.2173
      4  C4         6.3890   44.6870   23.1970 C.3   503  MAN503      0.2142
      5  C5         7.0830   43.3230   23.1250 C.3   503  MAN503      0.1810
      6  C6         6.1400   42.2780   22.5450 C.3   503  MAN503      0.2141
      7  O2         8.2480   46.1640   21.4020 O.3   503  MAN503     -0.2176
      8  O3         6.7430   47.0420   23.5720 O.3   503  MAN503     -0.2175
      9  O4         5.3180   44.6210   24.1150 O.3   503  MAN503     -0.2176
     10  O5         8.2410   43.4090   22.2770 O.3   503  MAN503     -0.3481
     11  O6         6.1870   42.3200   21.1350 O.3   503  MAN503     -0.2176
@<TRIPOS>BOND
     1    11     6    1
     2     7     2    1
     3    10     1    1
     4    10     5    1
     5     6     5    1
     6     1     2    1
     7     2     3    1
     8     5     4    1
     9     4     3    1
    10     4     9    1
    11     8     3    1
