@<TRIPOS>MOLECULE
1hgy_GLC_A_1.pdb
 12 12 0 0 0
SMALL
GASTEIGER

@<TRIPOS>ATOM
      1  C1        41.3580   27.3670   17.2900 C.3   601  GLC601      0.3024
      2  C2        41.2070   28.2040   16.0140 C.3   601  GLC601      0.2434
      3  C3        41.4900   29.6590   16.3480 C.3   601  GLC601      0.2199
      4  C4        40.4970   30.1310   17.4070 C.3   601  GLC601      0.2144
      5  C5        40.5770   29.2290   18.6530 C.3   601  GLC601      0.1836
      6  C6        39.4740   29.5860   19.6420 C.3   601  GLC601      0.2142
      7  O1        41.1540   25.9960   17.0270 O.3   601  GLC601     -0.1869
      8  O2        42.0730   27.7580   14.9920 O.3   601  GLC601     -0.2148
      9  O3        41.4130   30.4680   15.1890 O.3   601  GLC601     -0.2174
     10  O4        40.7630   31.4720   17.7620 O.3   601  GLC601     -0.2176
     11  O5        40.4200   27.8400   18.2730 O.3   601  GLC601     -0.3236
     12  O6        39.8600   29.2310   20.9520 O.3   601  GLC601     -0.2176
@<TRIPOS>BOND
     1     8     2    1
     2     9     3    1
     3     2     3    1
     4     2     1    1
     5     3     4    1
     6     7     1    1
     7     1    11    1
     8     4    10    1
     9     4     5    1
    10    11     5    1
    11     5     6    1
    12     6    12    1
