@<TRIPOS>MOLECULE
1hh4_GDP_A_1.pdb
 28 30 0 0 0
SMALL
GASTEIGER

@<TRIPOS>ATOM
      1  PB        37.4800   23.3580   30.6740 P.3   1190  GDP1190     0.5373
      2  O1B       38.1700   24.5620   31.1910 O.3   1190  GDP1190    -0.1143
      3  O2B       38.2230   22.4620   29.9350 O.2   1190  GDP1190    -0.2221
      4  O3B       36.6970   22.6330   31.9020 O.3   1190  GDP1190    -0.1143
      5  O3A       36.3660   23.8480   29.6680 O.3   1190  GDP1190    -0.2261
      6  PA        35.9970   23.4280   28.0780 P.3   1190  GDP1190     0.2231
      7  O1A       37.0770   23.7580   27.1230 O.2   1190  GDP1190    -0.5169
      8  O2A       35.6240   21.9750   28.1590 O.3   1190  GDP1190    -0.4370
      9  O5'       34.8120   24.3920   27.8250 O.3   1190  GDP1190    -0.3111
     10  C5'       33.4860   24.2230   28.4220 C.3   1190  GDP1190     0.1813
     11  C4'       32.3670   24.5910   27.5510 C.3   1190  GDP1190     0.1799
     12  O4'       32.5880   25.9770   27.0440 O.3   1190  GDP1190    -0.3326
     13  C3'       32.2630   23.7690   26.2120 C.3   1190  GDP1190     0.2158
     14  O3'       30.8260   23.5400   25.9730 O.3   1190  GDP1190    -0.2175
     15  C2'       32.8410   24.6300   25.0610 C.3   1190  GDP1190     0.2310
     16  O2'       32.3240   24.4720   23.7280 O.3   1190  GDP1190    -0.2158
     17  C1'       32.6300   26.0860   25.5550 C.3   1190  GDP1190     0.2293
     18  N9        33.7130   27.0470   25.1920 N.pl3 1190  GDP1190    -0.2354
     19  C8        35.1290   26.6830   25.5070 C.3   1190  GDP1190     0.2246
     20  N7        35.6470   27.8700   24.9780 N.2   1190  GDP1190    -0.2322
     21  C5        34.8670   28.8010   24.4470 C.2   1190  GDP1190     0.2182
     22  C6        34.7910   30.0590   23.8080 C.1   1190  GDP1190     0.2372
     23  O6        35.9580   30.6870   23.6270 O.2   1190  GDP1190    -0.2069
     24  N1        33.6680   30.6710   23.4060 N.2   1190  GDP1190    -0.2485
     25  C2        32.3710   29.9530   23.6270 C.1   1190  GDP1190     0.2531
     26  N2        31.4080   30.7150   23.1520 N.pl3 1190  GDP1190    -0.0226
     27  N3        32.3560   28.8180   24.1800 N.2   1190  GDP1190    -0.3074
     28  C4        33.5140   28.2460   24.5790 C.2   1190  GDP1190     0.2300
@<TRIPOS>BOND
     1    26    25    1
     2    24    25    2
     3    24    22    2
     4    25    27    2
     5    23    22    2
     6    16    15    1
     7    22    21    1
     8    27    28    2
     9    21    28    1
    10    21    20    2
    11    28    18    1
    12    20    19    1
    13    15    17    1
    14    15    13    1
    15    18    19    1
    16    18    17    1
    17    17    12    1
    18    14    13    1
    19    13    11    1
    20    12    11    1
    21     7     6    2
    22    11    10    1
    23     9     6    1
    24     9    10    1
    25     6     8    1
    26     6     5    1
    27     5     1    1
    28     3     1    2
    29     1     2    1
    30     1     4    1
