@<TRIPOS>MOLECULE
1hh4_GER_D_1.pdb
 20 19 0 0 0
SMALL
GASTEIGER

@<TRIPOS>ATOM
      1  C1        71.2000   36.8720   58.1950 C.3   1502  GER1502     0.0300
      2  C2        72.1480   35.9100   57.4790 C.2   1502  GER1502    -0.0342
      3  C3        73.4990   35.8250   57.7000 C.2   1502  GER1502    -0.0478
      4  C4        74.1240   36.7610   58.7460 C.3   1502  GER1502     0.0260
      5  C5        74.3400   34.8010   56.8940 C.3   1502  GER1502     0.0263
      6  C6        74.7340   33.4110   57.3940 C.3   1502  GER1502     0.0297
      7  C7        75.0810   32.4430   56.2530 C.2   1502  GER1502    -0.0342
      8  C8        74.1850   31.5090   55.7790 C.2   1502  GER1502    -0.0478
      9  C9        72.7960   31.4610   56.4340 C.3   1502  GER1502     0.0260
     10  C10       74.7140   30.6080   54.6120 C.3   1502  GER1502     0.0263
     11  C11       73.8430   29.5540   53.9180 C.3   1502  GER1502     0.0297
     12  C12       74.6010   28.2790   53.5540 C.2   1502  GER1502    -0.0342
     13  C13       74.0210   27.1990   52.9330 C.2   1502  GER1502    -0.0478
     14  C14       72.5250   27.2630   52.5830 C.3   1502  GER1502     0.0260
     15  C15       74.8580   25.9600   52.6010 C.3   1502  GER1502     0.0263
     16  C16       74.3040   24.7550   51.8310 C.3   1502  GER1502     0.0297
     17  C17       75.1560   23.5100   52.0440 C.2   1502  GER1502    -0.0342
     18  C18       74.6300   22.2490   51.9800 C.2   1502  GER1502    -0.0478
     19  C19       73.1230   22.1050   51.6800 C.3   1502  GER1502     0.0260
     20  C20       75.6710   21.1300   52.2270 C.3   1502  GER1502     0.0260
@<TRIPOS>BOND
     1    19    18    1
     2    16    17    1
     3    16    15    1
     4    18    17    2
     5    18    20    1
     6    14    13    1
     7    15    13    1
     8    13    12    2
     9    12    11    1
    10    11    10    1
    11    10     8    1
    12     8     7    2
    13     8     9    1
    14     7     6    1
    15     5     6    1
    16     5     3    1
    17     2     3    2
    18     2     1    1
    19     3     4    1
