@<TRIPOS>MOLECULE
1hh5_HEC_A_1.pdb
 43 50 0 0 0
SMALL
GASTEIGER

@<TRIPOS>ATOM
      1 FE         -3.6630   21.5480   11.2410 Fe     69  HEC69       0.0000
      2  CHA       -5.3370   18.8890   12.6470 C.2    69  HEC69       0.0000
      3  CHB       -6.2250   21.9620    8.9930 C.2    69  HEC69       0.0000
      4  CHC       -2.1960   24.4310   10.0900 C.2    69  HEC69       0.0000
      5  CHD       -0.9640   20.8760   13.1600 C.2    69  HEC69       0.0000
      6  NA        -5.3740   20.6100   10.8870 N.ar   69  HEC69       0.0000
      7  C1A       -5.9050   19.5110   11.5430 C.ar   69  HEC69       0.0000
      8  C2A       -7.1110   19.0410   10.8880 C.ar   69  HEC69       0.0000
      9  C3A       -7.3620   19.9040    9.8680 C.ar   69  HEC69       0.0000
     10  C4A       -6.3000   20.8900    9.8800 C.ar   69  HEC69       0.0000
     11  CMA       -8.5180   19.8150    8.8650 C.3    69  HEC69       0.0000
     12  CAA       -7.8460   17.7300   11.1780 C.3    69  HEC69       0.0000
     13  CBA       -9.3620   17.7630   11.3350 C.3    69  HEC69       0.0000
     14  CGA       -9.8140   18.3880   12.6400 C.2    69  HEC69       0.0000
     15  O1A       -9.4920   19.5700   12.8860 O.co2  69  HEC69       0.0000
     16  O2A      -10.5000   17.6930   13.4220 O.co2  69  HEC69       0.0000
     17  NB        -4.0930   22.8820    9.8430 N.2    69  HEC69       0.0000
     18  C1B       -5.1880   22.8750    8.9540 C.2    69  HEC69       0.0000
     19  C2B       -5.1730   24.0240    8.0850 C.2    69  HEC69       0.0000
     20  C3B       -4.1090   24.7820    8.4700 C.2    69  HEC69       0.0000
     21  C4B       -3.4080   24.0530    9.5250 C.2    69  HEC69       0.0000
     22  CMB       -6.0860   24.2710    6.8810 C.3    69  HEC69       0.0000
     23  CAB       -3.7460   26.1460    7.9080 C.3    69  HEC69       0.0000
     24  CBB       -4.7870   27.2200    8.2180 C.3    69  HEC69       0.0000
     25  NC        -1.9190   22.4300   11.5230 N.ar   69  HEC69       0.0000
     26  C1C       -1.4770   23.6380   11.0060 C.ar   69  HEC69       0.0000
     27  C2C       -0.1360   23.9270   11.4630 C.ar   69  HEC69       0.0000
     28  C3C        0.2420   22.8580   12.2440 C.ar   69  HEC69       0.0000
     29  C4C       -0.8890   21.9670   12.3110 C.ar   69  HEC69       0.0000
     30  CMC        0.6890   25.1570   11.0970 C.3    69  HEC69       0.0000
     31  CAC        1.5930   22.6150   12.9220 C.3    69  HEC69       0.0000
     32  CBC        1.9220   23.6560   13.9900 C.3    69  HEC69       0.0000
     33  ND        -3.2680   20.2110   12.6400 N.2    69  HEC69       0.0000
     34  C1D       -2.0790   20.0610   13.3410 C.2    69  HEC69       0.0000
     35  C2D       -2.1790   18.9940   14.3170 C.2    69  HEC69       0.0000
     36  C3D       -3.4140   18.4590   14.2010 C.2    69  HEC69       0.0000
     37  C4D       -4.0880   19.2140   13.1510 C.2    69  HEC69       0.0000
     38  CMD       -1.1370   18.5700   15.3440 C.3    69  HEC69       0.0000
     39  CAD       -4.0200   17.3940   15.1080 C.3    69  HEC69       0.0000
     40  CBD       -4.8150   18.0660   16.2250 C.3    69  HEC69       0.0000
     41  CGD       -5.5080   17.0670   17.1360 C.2    69  HEC69       0.0000
     42  O1D       -4.8420   16.4870   18.0210 O.co2  69  HEC69       0.0000
     43  O2D       -6.7240   16.8560   16.9540 O.co2  69  HEC69       0.0000
@<TRIPOS>BOND
     1    22    19    1
     2    23    24    1
     3    23    20    1
     4    19    20    2
     5    19    18    1
     6    20    21    1
     7    11     9    1
     8    18     3    1
     9    18    17    2
    10     3    10    2
    11    21    17    1
    12    21     4    2
    13    17     1    1
    14     9    10   ar
    15     9     8   ar
    16    10     6   ar
    17     4    26    1
    18     6     1    1
    19     6     7   ar
    20     8    12    1
    21     8     7   ar
    22    26    27   ar
    23    26    25   ar
    24    30    27    1
    25    12    13    1
    26     1    25    1
    27     1    33    1
    28    13    14    1
    29    27    28   ar
    30    25    29   ar
    31     7     2    2
    32    28    29   ar
    33    28    31    1
    34    29     5    1
    35    14    15   ar
    36    14    16   ar
    37    33    37    2
    38    33    34    1
    39     2    37    1
    40    31    32    1
    41    37    36    1
    42     5    34    2
    43    34    35    1
    44    36    35    2
    45    36    39    1
    46    35    38    1
    47    39    40    1
    48    40    41    1
    49    43    41   ar
    50    41    42   ar
