@<TRIPOS>MOLECULE
1hh7_HEC_A_1.pdb
 43 50 0 0 0
SMALL
GASTEIGER

@<TRIPOS>ATOM
      1 FE        -10.9760   27.8300   15.3940 Fe    115  HEC115      0.0000
      2  CHA      -12.3930   27.9900   12.2810 C.2   115  HEC115      0.0000
      3  CHB       -8.2150   29.4620   14.2320 C.2   115  HEC115      0.0000
      4  CHC       -9.7750   28.0160   18.5700 C.2   115  HEC115      0.0000
      5  CHD      -13.5070   25.8160   16.4600 C.2   115  HEC115      0.0000
      6  NA       -10.4410   28.6320   13.6360 N.ar  115  HEC115      0.0000
      7  C1A      -11.1650   28.6260   12.4780 C.ar  115  HEC115      0.0000
      8  C2A      -10.4790   29.3950   11.4740 C.ar  115  HEC115      0.0000
      9  C3A       -9.3560   29.8230   12.0080 C.ar  115  HEC115      0.0000
     10  C4A       -9.2830   29.3110   13.3650 C.ar  115  HEC115      0.0000
     11  CMA       -8.2750   30.7060   11.3530 C.3   115  HEC115      0.0000
     12  CAA      -11.0000   29.5980   10.0200 C.3   115  HEC115      0.0000
     13  CBA      -10.4180   28.4540    9.1690 C.3   115  HEC115      0.0000
     14  CGA      -10.8040   28.4050    7.7050 C.2   115  HEC115      0.0000
     15  O1A      -11.5600   29.2850    7.2560 O.co2 115  HEC115      0.0000
     16  O2A      -10.2830   27.4450    7.0970 O.co2 115  HEC115      0.0000
     17  NB        -9.3390   28.6150   16.2440 N.2   115  HEC115      0.0000
     18  C1B       -8.2630   29.1810   15.5730 C.2   115  HEC115      0.0000
     19  C2B       -7.2100   29.4650   16.5400 C.2   115  HEC115      0.0000
     20  C3B       -7.6630   29.1500   17.7390 C.2   115  HEC115      0.0000
     21  C4B       -8.9850   28.5590   17.5690 C.2   115  HEC115      0.0000
     22  CMB       -5.8370   30.0360   16.1020 C.3   115  HEC115      0.0000
     23  CAB       -6.9940   29.3310   19.1090 C.3   115  HEC115      0.0000
     24  CBB       -6.7440   30.8070   19.4660 C.3   115  HEC115      0.0000
     25  NC       -11.5480   27.1200   17.1720 N.ar  115  HEC115      0.0000
     26  C1C      -10.9290   27.2830   18.3780 C.ar  115  HEC115      0.0000
     27  C2C      -11.6060   26.5050   19.3960 C.ar  115  HEC115      0.0000
     28  C3C      -12.6310   25.8980   18.8060 C.ar  115  HEC115      0.0000
     29  C4C      -12.6210   26.2770   17.4120 C.ar  115  HEC115      0.0000
     30  CMC      -11.0820   26.3980   20.8350 C.3   115  HEC115      0.0000
     31  CAC      -13.6280   24.8760   19.3550 C.3   115  HEC115      0.0000
     32  CBC      -14.4200   25.3480   20.5620 C.3   115  HEC115      0.0000
     33  ND       -12.5820   27.0280   14.5270 N.2   115  HEC115      0.0000
     34  C1D      -13.4840   26.1650   15.1240 C.2   115  HEC115      0.0000
     35  C2D      -14.4280   25.7220   14.1060 C.2   115  HEC115      0.0000
     36  C3D      -14.1760   26.3710   12.9860 C.2   115  HEC115      0.0000
     37  C4D      -12.9970   27.1950   13.2200 C.2   115  HEC115      0.0000
     38  CMD      -15.5480   24.6770   14.3870 C.3   115  HEC115      0.0000
     39  CAD      -14.9840   26.3020   11.6600 C.3   115  HEC115      0.0000
     40  CBD      -16.2740   27.1320   11.9040 C.3   115  HEC115      0.0000
     41  CGD      -17.3130   27.1080   10.8230 C.2   115  HEC115      0.0000
     42  O1D      -17.1470   26.4530    9.7690 O.co2 115  HEC115      0.0000
     43  O2D      -18.3260   27.8160   11.1020 O.co2 115  HEC115      0.0000
@<TRIPOS>BOND
     1    16    14   ar
     2    15    14   ar
     3    14    13    1
     4    13    12    1
     5    42    41   ar
     6    12     8    1
     7    41    43   ar
     8    41    40    1
     9    11     9    1
    10     8     9   ar
    11     8     7   ar
    12    39    40    1
    13    39    36    1
    14     9    10   ar
    15     2     7    2
    16     2    37    1
    17     7     6   ar
    18    36    37    1
    19    36    35    2
    20    37    33    2
    21    10     6   ar
    22    10     3    2
    23     6     1    1
    24    35    38    1
    25    35    34    1
    26     3    18    1
    27    33    34    1
    28    33     1    1
    29    34     5    2
    30     1    17    1
    31     1    25    1
    32    18    17    2
    33    18    19    1
    34    22    19    1
    35    17    21    1
    36     5    29    1
    37    19    20    2
    38    25    29   ar
    39    25    26   ar
    40    29    28   ar
    41    21    20    1
    42    21     4    2
    43    20    23    1
    44    26     4    1
    45    26    27   ar
    46    28    31    1
    47    28    27   ar
    48    23    24    1
    49    31    32    1
    50    27    30    1
