@<TRIPOS>MOLECULE
1hho_HEM_A_1.pdb
 43 50 0 0 0
SMALL
GASTEIGER

@<TRIPOS>ATOM
      1  CHA        9.4750   10.0470  -17.9660 C.2   143  HEM143      0.0000
      2  CHB       10.7180   11.8920  -13.6910 C.2   143  HEM143      0.0000
      3  CHC        8.9750    7.9280  -11.6610 C.2   143  HEM143      0.0000
      4  CHD        7.4760    6.1130  -15.8830 C.2   143  HEM143      0.0000
      5  C1A       10.0470   10.8750  -16.9570 C.2   143  HEM143      0.0000
      6  C2A       10.7720   12.1070  -17.2100 C.2   143  HEM143      0.0000
      7  C3A       11.1040   12.5930  -15.9880 C.2   143  HEM143      0.0000
      8  C4A       10.5990   11.6860  -15.0360 C.2   143  HEM143      0.0000
      9  CMA       11.9510   13.7610  -15.5930 C.3   143  HEM143      0.0000
     10  CAA       10.6740   12.8920  -18.5060 C.3   143  HEM143      0.0000
     11  CBA       10.3670   14.3760  -18.4800 C.3   143  HEM143      0.0000
     12  CGA       10.5610   14.8640  -19.9130 C.2   143  HEM143      0.0000
     13  O1A       11.4360   15.6950  -20.1910 O.co2 143  HEM143      0.0000
     14  O2A        9.8480   14.3380  -20.7590 O.co2 143  HEM143      0.0000
     15  C1B       10.3490   10.9460  -12.7660 C.ar  143  HEM143      0.0000
     16  C2B       10.6740   11.0230  -11.3540 C.ar  143  HEM143      0.0000
     17  C3B       10.1810    9.8920  -10.7540 C.ar  143  HEM143      0.0000
     18  C4B        9.5720    9.1520  -11.8490 C.ar  143  HEM143      0.0000
     19  CMB       11.2320   12.2750  -10.7440 C.3   143  HEM143      0.0000
     20  CAB        9.8660    9.5720   -9.2980 C.3   143  HEM143      0.0000
     21  CBB       10.3690   10.2820   -8.2020 C.3   143  HEM143      0.0000
     22  C1C        8.4330    7.1100  -12.6550 C.2   143  HEM143      0.0000
     23  C2C        7.8070    5.8260  -12.3760 C.2   143  HEM143      0.0000
     24  C3C        7.3820    5.3040  -13.5570 C.2   143  HEM143      0.0000
     25  C4C        7.7440    6.2650  -14.5540 C.2   143  HEM143      0.0000
     26  CMC        7.3990    5.3800  -11.0080 C.3   143  HEM143      0.0000
     27  CAC        6.7540    3.9660  -13.8300 C.2   143  HEM143      0.0000
     28  CBC        7.4360    2.7900  -13.6160 C.2   143  HEM143      0.0000
     29  C1D        7.8630    7.0830  -16.8210 C.ar  143  HEM143      0.0000
     30  C2D        7.6500    6.9680  -18.2260 C.ar  143  HEM143      0.0000
     31  C3D        8.1710    8.0500  -18.7970 C.ar  143  HEM143      0.0000
     32  C4D        8.7280    8.8680  -17.7550 C.ar  143  HEM143      0.0000
     33  CMD        7.4070    5.6860  -18.9590 C.3   143  HEM143      0.0000
     34  CAD        8.2910    8.2260  -20.2840 C.3   143  HEM143      0.0000
     35  CBD        9.5420    7.5960  -20.8820 C.3   143  HEM143      0.0000
     36  CGD        9.4750    7.8250  -22.3750 C.2   143  HEM143      0.0000
     37  O1D        8.4470    7.4850  -22.9550 O.co2 143  HEM143      0.0000
     38  O2D       10.4380    8.3610  -22.9290 O.co2 143  HEM143      0.0000
     39  NA        10.0060   10.6120  -15.6250 N.2   143  HEM143      0.0000
     40  NB         9.6950    9.7910  -13.0820 N.ar  143  HEM143      0.0000
     41  NC         8.4120    7.3810  -14.0060 N.2   143  HEM143      0.0000
     42  ND         8.4880    8.2580  -16.5320 N.ar  143  HEM143      0.0000
     43 FE          9.0210    9.0340  -14.8480 Fe    143  HEM143      0.0000
@<TRIPOS>BOND
     1    37    36   ar
     2    38    36   ar
     3    36    35    1
     4    35    34    1
     5    14    12   ar
     6    34    31    1
     7    13    12   ar
     8    12    11    1
     9    33    30    1
    10    31    30   ar
    11    31    32   ar
    12    10    11    1
    13    10     6    1
    14    30    29   ar
    15     1    32    2
    16     1     5    1
    17    32    42   ar
    18     6     5    1
    19     6     7    2
    20     5    39    2
    21    29    42   ar
    22    29     4    2
    23    42    43    1
    24     7     9    1
    25     7     8    1
    26     4    25    1
    27    39     8    1
    28    39    43    1
    29     8     2    2
    30    43    41    1
    31    43    40    1
    32    25    41    2
    33    25    24    1
    34    41    22    1
    35    27    28    2
    36    27    24    1
    37     2    15    1
    38    24    23    2
    39    40    15   ar
    40    40    18   ar
    41    15    16   ar
    42    22    23    1
    43    22     3    2
    44    23    26    1
    45    18     3    1
    46    18    17   ar
    47    16    17   ar
    48    16    19    1
    49    17    20    1
    50    20    21    1
