@<TRIPOS>MOLECULE
1hi0_GTP_P_1.pdb
 32 34 0 0 0
SMALL
GASTEIGER

@<TRIPOS>ATOM
      1  PG        12.6350    9.7590   24.8540 P.3   666  GTP666      0.5373
      2  O1G       12.8920    8.8680   23.6370 O.2   666  GTP666     -0.2221
      3  O2G       11.2550    9.5940   25.4850 O.3   666  GTP666     -0.1143
      4  O3G       12.9310   11.1400   24.4700 O.3   666  GTP666     -0.1143
      5  O3B       13.8180    9.2900   25.9760 O.3   666  GTP666     -0.2258
      6  PB        13.9190    8.0700   27.1690 P.3   666  GTP666      0.2277
      7  O1B       14.8400    6.9480   26.6530 O.2   666  GTP666     -0.5168
      8  O2B       14.3860    8.6910   28.4250 O.3   666  GTP666     -0.4368
      9  O3A       12.4070    7.5360   27.3070 O.3   666  GTP666     -0.2700
     10  PA        11.2920    7.5320   28.5280 P.3   666  GTP666      0.2189
     11  O1A       11.9100    7.3520   29.8460 O.3   666  GTP666     -0.4371
     12  O2A       10.4580    8.8150   28.2950 O.2   666  GTP666     -0.5170
     13  O5'       10.3990    6.1440   28.2330 O.3   666  GTP666     -0.3112
     14  C5'        9.7000    6.2060   26.9240 C.3   666  GTP666      0.1813
     15  C4'       10.3190    4.8810   26.2160 C.3   666  GTP666      0.1799
     16  O4'       11.6990    4.5290   26.5050 O.3   666  GTP666     -0.3326
     17  C3'        9.5450    3.6590   26.4010 C.3   666  GTP666      0.2158
     18  O3'        8.5440    3.5340   25.4380 O.3   666  GTP666     -0.2175
     19  C2'       10.4610    2.3930   26.4540 C.3   666  GTP666      0.2310
     20  O2'       10.5170    1.6830   25.3400 O.3   666  GTP666     -0.2158
     21  C1'       11.9200    3.1480   26.8310 C.3   666  GTP666      0.2293
     22  N9        12.2520    2.9670   28.3320 N.pl3 666  GTP666     -0.2354
     23  C8        12.7300    4.0030   29.1550 C.3   666  GTP666      0.2246
     24  N7        12.8510    3.3070   30.3180 N.2   666  GTP666     -0.2322
     25  C5        12.4950    1.9490   30.2640 C.2   666  GTP666      0.2182
     26  C6        12.5150    1.0610   31.2070 C.1   666  GTP666      0.2372
     27  O6        12.8120    0.9590   32.4370 O.2   666  GTP666     -0.2069
     28  N1        12.0390   -0.3210   30.6970 N.2   666  GTP666     -0.2485
     29  C2        11.7010   -0.3680   29.4400 C.1   666  GTP666      0.2531
     30  N2        11.2380   -1.7190   28.9600 N.pl3 666  GTP666     -0.0226
     31  N3        11.6800    0.5640   28.4530 N.2   666  GTP666     -0.3074
     32  C4        12.1190    1.7590   29.0010 C.2   666  GTP666      0.2300
@<TRIPOS>BOND
     1     2     1    2
     2     4     1    1
     3     1     3    1
     4     1     5    1
     5    20    19    1
     6    18    17    1
     7     5     6    1
     8    15    17    1
     9    15    16    1
    10    15    14    1
    11    17    19    1
    12    19    21    1
    13    16    21    1
    14     7     6    2
    15    21    22    1
    16    14    13    1
    17     6     9    1
    18     6     8    1
    19     9    10    1
    20    13    10    1
    21    12    10    2
    22    22    32    1
    23    22    23    1
    24    31    32    2
    25    31    29    2
    26    10    11    1
    27    30    29    1
    28    32    25    1
    29    23    24    1
    30    29    28    2
    31    25    24    2
    32    25    26    1
    33    28    26    2
    34    26    27    2
