@<TRIPOS>MOLECULE
1hi1_ATP_A_1.pdb
 31 33 0 0 0
SMALL
GASTEIGER

@<TRIPOS>ATOM
      1  PG        51.1640   21.6770   68.0500 P.3   665  ATP665      0.5373
      2  O1G       49.8230   22.2500   67.7880 O.3   665  ATP665     -0.1143
      3  O2G       52.1060   22.6090   67.3830 O.2   665  ATP665     -0.2221
      4  O3G       51.4520   21.8740   69.4860 O.3   665  ATP665     -0.1143
      5  PB        52.6300   19.5500   66.8000 P.3   665  ATP665      0.2277
      6  O1B       53.7550   19.2710   67.7480 O.3   665  ATP665     -0.4368
      7  O2B       52.3740   18.2270   66.1310 O.2   665  ATP665     -0.5168
      8  O3B       51.3120   20.1750   67.4750 O.3   665  ATP665     -0.2258
      9  PA        53.0250   20.4780   64.2670 P.3   665  ATP665      0.2189
     10  O1A       51.5770   20.2860   64.0340 O.3   665  ATP665     -0.4371
     11  O2A       53.2980   21.8670   63.7720 O.2   665  ATP665     -0.5170
     12  O3A       53.2130   20.4550   65.7510 O.3   665  ATP665     -0.2700
     13  O5'       53.9280   19.4110   63.4620 O.3   665  ATP665     -0.3112
     14  C5'       55.3370   19.6270   63.3270 C.3   665  ATP665      0.1813
     15  C4'       55.6790   19.5710   61.8410 C.3   665  ATP665      0.1821
     16  O4'       56.5080   18.4670   61.4680 O.3   665  ATP665     -0.3135
     17  C3'       54.9710   20.2650   60.6860 C.3   665  ATP665      0.2184
     18  O3'       54.7530   21.6900   60.7100 O.3   665  ATP665     -0.2174
     19  C2'       55.7000   19.6950   59.4750 C.3   665  ATP665      0.2570
     20  O2'       56.4010   20.6830   58.7470 O.3   665  ATP665     -0.2130
     21  C1'       56.3340   18.4170   60.0400 C.3   665  ATP665      0.3186
     22  N9        56.3060   17.0950   59.3600 N.pl3 665  ATP665     -0.1439
     23  C8        57.3080   16.3820   58.7120 C.3   665  ATP665      0.3377
     24  N7        56.7840   15.1800   58.2370 N.2   665  ATP665     -0.2095
     25  C5        55.4610   15.2290   58.5740 C.2   665  ATP665      0.2526
     26  C6        54.6700   14.1880   58.1880 C.2   665  ATP665      0.4393
     27  N6        55.1620   13.0200   57.4550 N.pl3 665  ATP665      0.2180
     28  N1        53.3430   14.3300   58.5280 N.2   665  ATP665      0.0021
     29  C2        53.0100   15.4970   59.2050 C.3   665  ATP665      0.5254
     30  N3        53.8420   16.5330   59.5750 N.2   665  ATP665     -0.0055
     31  C4        55.1620   16.3570   59.2290 C.2   665  ATP665      0.3518
@<TRIPOS>BOND
     1    27    26    1
     2    26    28    2
     3    26    25    1
     4    24    25    2
     5    24    23    1
     6    28    29    1
     7    25    31    1
     8    23    22    1
     9    20    19    1
    10    29    30    1
    11    31    22    1
    12    31    30    2
    13    22    21    1
    14    19    21    1
    15    19    17    1
    16    21    16    1
    17    17    18    1
    18    17    15    1
    19    16    15    1
    20    15    14    1
    21    14    13    1
    22    13     9    1
    23    11     9    2
    24    10     9    1
    25     9    12    1
    26    12     5    1
    27     7     5    2
    28     5     8    1
    29     5     6    1
    30     3     1    2
    31     8     1    1
    32     2     1    1
    33     1     4    1
