@<TRIPOS>MOLECULE
1hi3_A2P_A_1.pdb
 27 29 0 0 0
SMALL
GASTEIGER

@<TRIPOS>ATOM
      1  P1        14.8530   14.4520    9.7070 P.3   999  A2P999      0.5328
      2  O1P       14.2360   15.2030   10.8760 O.3   999  A2P999     -0.1145
      3  O2P       13.8430   13.6100    8.9450 O.2   999  A2P999     -0.2224
      4  O3P       16.1030   13.6840   10.0890 O.3   999  A2P999     -0.1145
      5  P2        10.3480   16.8950    7.2600 P.3   999  A2P999      0.5327
      6  O4P       10.1840   16.3180    8.6630 O.3   999  A2P999     -0.1145
      7  O5P        9.6100   18.2180    7.0800 O.3   999  A2P999     -0.1145
      8  O6P       10.0450   15.8780    6.1620 O.2   999  A2P999     -0.2224
      9  O5'       11.9310   17.2670    7.1120 O.3   999  A2P999     -0.2675
     10  C5'       12.5150   17.5560    5.8240 C.3   999  A2P999      0.1860
     11  C4'       14.0250   17.5840    5.9390 C.3   999  A2P999      0.1822
     12  O4'       14.4100   18.5880    6.9230 O.3   999  A2P999     -0.3136
     13  C3'       14.6400   16.2880    6.4470 C.3   999  A2P999      0.2157
     14  O3'       15.9970   16.2550    6.0240 O.3   999  A2P999     -0.2175
     15  C2'       14.5390   16.4700    7.9580 C.3   999  A2P999      0.2314
     16  O2'       15.3980   15.5800    8.6610 O.3   999  A2P999     -0.2630
     17  C1'       14.8980   17.9510    8.0960 C.3   999  A2P999      0.3158
     18  N9        14.3030   18.6300    9.2510 N.pl3 999  A2P999     -0.1439
     19  C8        13.1070   18.3710    9.8870 C.3   999  A2P999      0.3377
     20  N7        12.8470   19.1930   10.8770 N.2   999  A2P999     -0.2095
     21  C5        13.9470   20.0470   10.9000 C.2   999  A2P999      0.2526
     22  C6        14.2940   21.1580   11.7230 C.2   999  A2P999      0.4393
     23  N6        13.5260   21.6210   12.7120 N.pl3 999  A2P999      0.2180
     24  N1        15.4770   21.7830   11.4790 N.2   999  A2P999      0.0021
     25  C2        16.2560   21.3250   10.4820 C.3   999  A2P999      0.5254
     26  N3        16.0360   20.3040    9.6460 N.2   999  A2P999     -0.0055
     27  C4        14.8550   19.7020    9.9100 C.2   999  A2P999      0.3518
@<TRIPOS>BOND
     1    10    11    1
     2    10     9    1
     3    11    13    1
     4    11    12    1
     5    14    13    1
     6     8     5    2
     7    13    15    1
     8    12    17    1
     9     7     5    1
    10     9     5    1
    11     5     6    1
    12    15    17    1
    13    15    16    1
    14    17    18    1
    15    16     1    1
    16     3     1    2
    17    18    19    1
    18    18    27    1
    19    26    27    2
    20    26    25    1
    21     1     4    1
    22     1     2    1
    23    19    20    1
    24    27    21    1
    25    25    24    1
    26    20    21    2
    27    21    22    1
    28    24    22    2
    29    22    23    1
