@<TRIPOS>MOLECULE
1hi4_A3P_A_1.pdb
 27 29 0 0 0
SMALL
GASTEIGER

@<TRIPOS>ATOM
      1  P1        10.0960   17.7550   12.3850 P.3   301  A3P301      0.5327
      2  O1P       10.5140   16.3440   12.6620 O.3   301  A3P301     -0.1145
      3  O2P        9.4380   17.9850   11.0560 O.2   301  A3P301     -0.2224
      4  O3P        9.7920   18.6320   13.5340 O.3   301  A3P301     -0.1145
      5  P2        14.4390   14.6320    9.6390 P.3   301  A3P301      0.5327
      6  O4P       15.6900   13.9260   10.0510 O.3   301  A3P301     -0.1145
      7  O5P       13.2800   13.7430    9.3380 O.3   301  A3P301     -0.1145
      8  O6P       14.5180   15.9220    8.9550 O.2   301  A3P301     -0.2224
      9  O5'       13.9260   15.1580   11.1170 O.3   301  A3P301     -0.2675
     10  C5'       14.6380   16.0680   11.9950 C.3   301  A3P301      0.1859
     11  C4'       13.7740   17.3130   12.3940 C.3   301  A3P301      0.1796
     12  O4'       14.7050   18.4580   12.4880 O.3   301  A3P301     -0.3136
     13  C3'       12.6980   17.7600   11.3500 C.3   301  A3P301      0.1928
     14  O3'       11.5320   18.3890   12.0040 O.3   301  A3P301     -0.2673
     15  C2'       13.4860   18.7190   10.4930 C.3   301  A3P301      0.2543
     16  O2'       12.7340   19.5170    9.5820 O.3   301  A3P301     -0.2131
     17  C1'       14.2460   19.5000   11.5870 C.3   301  A3P301      0.3185
     18  N9        15.3870   20.3150   11.0430 N.pl3 301  A3P301     -0.1439
     19  C8        15.5640   20.8240    9.7590 C.3   301  A3P301      0.3377
     20  N7        16.6740   21.5130    9.5740 N.2   301  A3P301     -0.2095
     21  C5        17.3000   21.4780   10.8110 C.2   301  A3P301      0.2526
     22  C6        18.5420   22.0350   11.2950 C.2   301  A3P301      0.4393
     23  N6        19.3540   22.7430   10.5240 N.pl3 301  A3P301      0.2180
     24  N1        18.8970   21.8150   12.6350 N.2   301  A3P301      0.0021
     25  C2        18.0650   21.0780   13.4610 C.3   301  A3P301      0.5254
     26  N3        16.8540   20.4930   13.1120 N.2   301  A3P301     -0.0055
     27  C4        16.5270   20.7350   11.7620 C.2   301  A3P301      0.3518
@<TRIPOS>BOND
     1     8     5    2
     2     7     5    1
     3    20    19    1
     4    20    21    2
     5    16    15    1
     6     5     6    1
     7     5     9    1
     8    19    18    1
     9    15    13    1
    10    15    17    1
    11    23    22    1
    12    21    22    1
    13    21    27    1
    14    18    17    1
    15    18    27    1
    16     3     1    2
    17     9    10    1
    18    22    24    2
    19    13    14    1
    20    13    11    1
    21    17    12    1
    22    27    26    2
    23    10    11    1
    24    14     1    1
    25     1     2    1
    26     1     4    1
    27    11    12    1
    28    24    25    1
    29    26    25    1
