@<TRIPOS>MOLECULE
1hi5_ADP_A_1.pdb
 27 29 0 0 0
SMALL
GASTEIGER

@<TRIPOS>ATOM
      1  PB        14.5960   14.3740    9.6300 P.3   999  ADP999      0.5373
      2  O1B       14.6160   15.7120   10.3480 O.3   999  ADP999     -0.1143
      3  O2B       15.9180   13.6710    9.8600 O.2   999  ADP999     -0.2221
      4  O3B       13.4440   13.5430   10.1630 O.3   999  ADP999     -0.1143
      5  PA        14.0640   13.7200    6.9350 P.3   999  ADP999      0.2231
      6  O1A       14.3700   12.2490    7.1720 O.3   999  ADP999     -0.4370
      7  O2A       14.7240   14.2520    5.6760 O.2   999  ADP999     -0.5169
      8  O3A       14.3660   14.6040    8.1450 O.3   999  ADP999     -0.2261
      9  O5'       12.4560   13.8060    6.6750 O.3   999  ADP999     -0.3111
     10  C5'       11.7700   15.0780    6.6220 C.3   999  ADP999      0.1813
     11  C4'       10.8650   15.1420    5.4060 C.3   999  ADP999      0.1821
     12  O4'       11.6710   15.0110    4.2000 O.3   999  ADP999     -0.3135
     13  C3'        9.7830   14.0650    5.3210 C.3   999  ADP999      0.2184
     14  O3'        8.5770   14.5770    4.7480 O.3   999  ADP999     -0.2174
     15  C2'       10.4100   13.0240    4.4010 C.3   999  ADP999      0.2570
     16  O2'        9.4310   12.2580    3.7220 O.3   999  ADP999     -0.2130
     17  C1'       11.2220   13.9010    3.4400 C.3   999  ADP999      0.3186
     18  N9        12.4050   13.2350    2.8770 N.pl3 999  ADP999     -0.1439
     19  C8        13.2570   12.3640    3.5270 C.3   999  ADP999      0.3377
     20  N7        14.2390   11.9160    2.7740 N.2   999  ADP999     -0.2095
     21  C5        14.0280   12.5310    1.5490 C.2   999  ADP999      0.2526
     22  C6        14.7330   12.4720    0.3190 C.2   999  ADP999      0.4393
     23  N6        15.8320   11.7350    0.1370 N.pl3 999  ADP999      0.2180
     24  N1        14.2580   13.2090   -0.7250 N.2   999  ADP999      0.0021
     25  C2        13.1460   13.9570   -0.5360 C.3   999  ADP999      0.5254
     26  N3        12.3970   14.0920    0.5780 N.2   999  ADP999     -0.0055
     27  C4        12.8960   13.3480    1.5930 C.2   999  ADP999      0.3518
@<TRIPOS>BOND
     1    24    25    1
     2    24    22    2
     3    25    26    1
     4    23    22    1
     5    22    21    1
     6    26    27    2
     7    21    27    1
     8    21    20    2
     9    27    18    1
    10    20    19    1
    11    18    17    1
    12    18    19    1
    13    17    12    1
    14    17    15    1
    15    16    15    1
    16    12    11    1
    17    15    13    1
    18    14    13    1
    19    13    11    1
    20    11    10    1
    21     7     5    2
    22    10     9    1
    23     9     5    1
    24     5     6    1
    25     5     8    1
    26     8     1    1
    27     1     3    2
    28     1     4    1
    29     1     2    1
