@<TRIPOS>MOLECULE
1hih_C20_B_1.pdb
 41 42 0 0 0
SMALL
GASTEIGER

@<TRIPOS>ATOM
      1  C1         6.7720   -7.7770   17.7370 C.3   101  C20101      0.0964
      2  C2         7.1810   -6.3010   17.7280 C.2   101  C20101      0.2423
      3  O3         7.3320   -5.6920   18.7870 O.2   101  C20101     -0.2733
      4  N4         7.3370   -5.7360   16.5290 N.am  101  C20101     -0.1978
      5  C5         7.7120   -4.3250   16.3100 C.3   101  C20101      0.1726
      6  C6         9.0510   -4.2240   15.5240 C.3   101  C20101      0.0290
      7  C7         9.4450   -2.7780   15.2470 C.3   101  C20101      0.0023
      8  C8        10.1660   -4.9490   16.2940 C.3   101  C20101      0.0023
      9  C9         6.5980   -3.6290   15.5190 C.2   101  C20101      0.2612
     10  O10        6.4990   -3.8030   14.3070 O.2   101  C20101     -0.2715
     11  N11        5.8130   -2.8010   16.1990 N.am  101  C20101     -0.2027
     12  C12        4.6990   -2.1070   15.5770 C.3   101  C20101      0.1314
     13  C13        3.4080   -2.5770   16.2330 C.3   101  C20101      0.0506
     14  C14        3.2970   -4.0860   16.2750 C.ar  101  C20101     -0.0204
     15  C15        3.3920   -4.8290   17.5510 C.ar  101  C20101     -0.0042
     16  C16        3.2150   -6.1850   17.5400 C.ar  101  C20101     -0.0003
     17  C17        2.9490   -6.8680   16.3470 C.ar  101  C20101     -0.0000
     18  C18        2.8520   -6.2050   15.1350 C.ar  101  C20101     -0.0003
     19  C19        3.0200   -4.8340   15.0600 C.ar  101  C20101     -0.0042
     20  C20        4.8100   -0.5720   15.6880 C.3   101  C20101      0.1897
     21  O21        5.0810   -0.1840   17.0370 O.3   101  C20101     -0.2197
     22  C22        5.9520   -0.0500   14.8420 C.3   101  C20101      0.1284
     23  N23        5.6940   -0.2190   13.4260 N.3   101  C20101     -0.1817
     24  C24        6.9760    0.2000   12.8490 C.3   101  C20101      0.0939
     25  C25        7.0550    0.7770   11.4470 C.3   101  C20101      0.0178
     26  C26        8.5770    0.7750   11.2470 C.3   101  C20101      0.0014
     27  C27        9.0840    1.7400   10.1890 C.3   101  C20101      0.0000
     28  C28        8.5960    3.1430   10.4910 C.3   101  C20101      0.0000
     29  C29        7.0770    3.1630   10.5400 C.3   101  C20101      0.0000
     30  C30        6.5680    2.2170   11.5930 C.3   101  C20101      0.0014
     31  N31        4.5240    0.5620   13.0690 N.am  101  C20101     -0.1260
     32  C32        3.6110    0.1480   12.1910 C.2   101  C20101      0.2762
     33  O33        3.5990   -0.9970   11.7100 O.2   101  C20101     -0.2701
     34  C34        2.5780    1.1960   11.7700 C.3   101  C20101      0.1740
     35  N35        2.9860    1.8490   10.5200 N.am  101  C20101     -0.1977
     36  C36        1.1670    0.5740   11.6480 C.3   101  C20101      0.0290
     37  C37        0.7830   -0.1610   12.9230 C.3   101  C20101      0.0023
     38  C38        0.1340    1.6920   11.3430 C.3   101  C20101      0.0023
     39  C39        3.2180    3.1540   10.4490 C.2   101  C20101      0.2423
     40  O40        3.0360    3.9100   11.4080 O.2   101  C20101     -0.2733
     41  C41        3.7090    3.7320    9.1480 C.3   101  C20101      0.0964
@<TRIPOS>BOND
     1    41    39    1
     2    27    28    1
     3    27    26    1
     4    39    35   am
     5    39    40    2
     6    28    29    1
     7    35    34    1
     8    29    30    1
     9    26    25    1
    10    38    36    1
    11    25    30    1
    12    25    24    1
    13    36    34    1
    14    36    37    1
    15    33    32    2
    16    34    32    1
    17    32    31   am
    18    24    23    1
    19    31    23    1
    20    23    22    1
    21    10     9    2
    22    22    20    1
    23    19    18   ar
    24    19    14   ar
    25    18    17   ar
    26     7     6    1
    27     9    11   am
    28     9     5    1
    29     6     8    1
    30     6     5    1
    31    12    20    1
    32    12    11    1
    33    12    13    1
    34    20    21    1
    35    13    14    1
    36    14    15   ar
    37     5     4    1
    38    17    16   ar
    39     4     2   am
    40    16    15   ar
    41     2     1    1
    42     2     3    2
