@<TRIPOS>MOLECULE
1hii_C20_B_1.pdb
 41 42 0 0 0
SMALL
GASTEIGER

@<TRIPOS>ATOM
      1  C1        18.5420   37.2270   14.9940 C.3   101  C20101      0.0964
      2  C2        18.3210   35.7700   15.4160 C.2   101  C20101      0.2423
      3  O3        19.2440   35.1110   15.9210 O.2   101  C20101     -0.2733
      4  N4        17.0980   35.2760   15.2240 N.am  101  C20101     -0.1978
      5  C5        16.7940   33.8680   15.4550 C.3   101  C20101      0.1726
      6  C6        15.7730   33.7170   16.6220 C.3   101  C20101      0.0290
      7  C7        15.4020   32.2400   16.8690 C.3   101  C20101      0.0023
      8  C8        16.3580   34.3410   17.9120 C.3   101  C20101      0.0023
      9  C9        16.3040   33.1480   14.1830 C.2   101  C20101      0.2612
     10  O10       15.1630   33.3560   13.7360 O.2   101  C20101     -0.2715
     11  N11       17.1730   32.3130   13.6100 N.am  101  C20101     -0.2027
     12  C12       16.8530   31.5330   12.4160 C.3   101  C20101      0.1314
     13  C13       17.7130   31.9960   11.2530 C.3   101  C20101      0.0506
     14  C14       17.6700   33.4940   11.0540 C.ar  101  C20101     -0.0204
     15  C15       18.4790   34.3980   11.9090 C.ar  101  C20101     -0.0042
     16  C16       18.3810   35.7740   11.6930 C.ar  101  C20101     -0.0003
     17  C17       17.5500   36.2990   10.6790 C.ar  101  C20101     -0.0000
     18  C18       16.7770   35.4720    9.8500 C.ar  101  C20101     -0.0003
     19  C19       16.8120   34.0850    9.9990 C.ar  101  C20101     -0.0042
     20  C20       17.0720   30.0150   12.6290 C.3   101  C20101      0.1897
     21  O21       18.3390   29.7460   13.2150 O.3   101  C20101     -0.2197
     22  C22       16.1060   29.4240   13.6140 C.3   101  C20101      0.1284
     23  N23       14.8080   29.2300   13.0570 N.3   101  C20101     -0.1817
     24  C24       14.1370   28.4210   14.0490 C.3   101  C20101      0.0939
     25  C25       12.6830   28.3790   13.6560 C.3   101  C20101      0.0178
     26  C26       11.7870   28.8730   14.7750 C.3   101  C20101      0.0014
     27  C27       10.3390   28.7930   14.4040 C.3   101  C20101      0.0000
     28  C28        9.9760   27.3850   14.0500 C.3   101  C20101      0.0000
     29  C29       10.8670   26.8390   12.9540 C.3   101  C20101      0.0000
     30  C30       12.2990   26.9450   13.3510 C.3   101  C20101      0.0014
     31  N31       14.9400   28.5650   11.7760 N.am  101  C20101     -0.1260
     32  C32       14.2880   28.9960   10.6920 C.2   101  C20101      0.2762
     33  O33       13.7430   30.1070   10.6230 O.2   101  C20101     -0.2701
     34  C34       14.2410   28.0360    9.5010 C.3   101  C20101      0.1740
     35  N35       12.9790   27.3040    9.4800 N.am  101  C20101     -0.1977
     36  C36       14.4680   28.8090    8.1670 C.3   101  C20101      0.0290
     37  C37       15.7200   29.6820    8.2410 C.3   101  C20101      0.0023
     38  C38       14.6300   27.8130    7.0280 C.3   101  C20101      0.0023
     39  C39       12.9290   25.9810    9.6210 C.2   101  C20101      0.2423
     40  O40       13.9430   25.2760    9.7600 O.2   101  C20101     -0.2733
     41  C41       11.5790   25.2880    9.5900 C.3   101  C20101      0.0964
@<TRIPOS>BOND
     1    38    36    1
     2    36    37    1
     3    36    34    1
     4    35    34    1
     5    35    39   am
     6    34    32    1
     7    41    39    1
     8    39    40    2
     9    18    19   ar
    10    18    17   ar
    11    19    14   ar
    12    33    32    2
    13    17    16   ar
    14    32    31   am
    15    14    13    1
    16    14    15   ar
    17    13    12    1
    18    16    15   ar
    19    31    23    1
    20    12    20    1
    21    12    11    1
    22    20    21    1
    23    20    22    1
    24    29    30    1
    25    29    28    1
    26    23    22    1
    27    23    24    1
    28    30    25    1
    29    11     9   am
    30    25    24    1
    31    25    26    1
    32    10     9    2
    33    28    27    1
    34     9     5    1
    35    27    26    1
    36     1     2    1
    37     4     2   am
    38     4     5    1
    39     2     3    2
    40     5     6    1
    41     6     7    1
    42     6     8    1
