@<TRIPOS>MOLECULE
1hiy_3AN_A_1.pdb
 27 29 0 0 0
SMALL
GASTEIGER

@<TRIPOS>ATOM
      1  PB        66.5580   29.0320    0.2740 P.3   1156  3AN1156     0.5373
      2  O1B       67.2840   29.8220    1.2780 O.3   1156  3AN1156    -0.1143
      3  O2B       67.3810   27.9470   -0.3620 O.2   1156  3AN1156    -0.2221
      4  O3B       65.1940   28.5920    0.6330 O.3   1156  3AN1156    -0.1143
      5  PA        67.1250   30.3870   -2.2140 P.3   1156  3AN1156     0.2231
      6  O1A       67.5610   29.0140   -2.6840 O.3   1156  3AN1156    -0.4370
      7  O2A       66.3490   31.2950   -3.0720 O.2   1156  3AN1156    -0.5169
      8  O3A       66.3150   30.1500   -0.8530 O.3   1156  3AN1156    -0.2261
      9  O5'       68.3810   31.2170   -1.7210 O.3   1156  3AN1156    -0.3111
     10  C5'       68.2160   32.5920   -1.5790 C.3   1156  3AN1156     0.1802
     11  C4'       68.5720   33.2060   -0.1860 C.3   1156  3AN1156     0.1694
     12  O4'       68.9770   34.5750   -0.3230 O.3   1156  3AN1156    -0.3147
     13  C3'       67.3240   33.2810    0.6740 C.3   1156  3AN1156     0.1585
     14  N3'       67.4270   32.4320    1.6810 N.3   1156  3AN1156    -0.1273
     15  C2'       67.1610   34.7530    1.0500 C.3   1156  3AN1156     0.2443
     16  O2'       67.9140   35.2830    2.1980 O.3   1156  3AN1156    -0.2142
     17  C1'       67.8070   35.4070   -0.1610 C.3   1156  3AN1156     0.3174
     18  N9        66.9920   35.7140   -1.4080 N.pl3 1156  3AN1156    -0.1439
     19  C8        66.3430   34.8820   -2.3230 C.3   1156  3AN1156     0.3377
     20  N7        65.5100   35.4630   -3.1230 N.2   1156  3AN1156    -0.2095
     21  C5        65.5930   36.8020   -2.7420 C.2   1156  3AN1156     0.2526
     22  C6        64.9120   37.9340   -3.2190 C.2   1156  3AN1156     0.4393
     23  N6        63.7790   37.7310   -3.8620 N.pl3 1156  3AN1156     0.2180
     24  N1        65.2020   39.1680   -2.6830 N.2   1156  3AN1156     0.0021
     25  C2        66.1000   39.2190   -1.6620 C.3   1156  3AN1156     0.5254
     26  N3        66.7920   38.1950   -1.0750 N.2   1156  3AN1156    -0.0055
     27  C4        66.4810   36.9830   -1.7000 C.2   1156  3AN1156     0.3518
@<TRIPOS>BOND
     1    23    22    1
     2    22    21    1
     3    22    24    2
     4    20    21    2
     5    20    19    1
     6     7     5    2
     7    21    27    1
     8     6     5    1
     9    24    25    1
    10    19    18    1
    11     5     9    1
    12     5     8    1
    13     9    10    1
    14    27    18    1
    15    27    26    2
    16    25    26    1
    17    10    11    1
    18    18    17    1
    19     8     1    1
    20     3     1    2
    21    12    11    1
    22    12    17    1
    23    11    13    1
    24    17    15    1
    25     1     4    1
    26     1     2    1
    27    13    15    1
    28    13    14    1
    29    15    16    1
