@<TRIPOS>MOLECULE
1hiz_GLC_A_1.pdb
 12 12 0 0 0
SMALL
GASTEIGER

@<TRIPOS>ATOM
      1  C1        12.4170   68.3710  -14.8250 C.3   1382  GLC1382     0.3024
      2  C2        11.5260   68.5060  -16.0530 C.3   1382  GLC1382     0.2434
      3  C3        10.3660   69.4510  -15.8010 C.3   1382  GLC1382     0.2199
      4  C4         9.5270   68.9320  -14.5670 C.3   1382  GLC1382     0.2144
      5  C5        10.4690   68.8500  -13.3760 C.3   1382  GLC1382     0.1836
      6  C6         9.7150   68.3190  -12.1480 C.3   1382  GLC1382     0.2142
      7  O1        13.0830   69.5780  -14.5570 O.3   1382  GLC1382    -0.1869
      8  O2        12.3360   68.9460  -17.1920 O.3   1382  GLC1382    -0.2148
      9  O3         9.5480   69.5390  -16.9510 O.3   1382  GLC1382    -0.2174
     10  O4         8.9290   67.6340  -14.9190 O.3   1382  GLC1382    -0.2176
     11  O5        11.5880   67.9840  -13.6620 O.3   1382  GLC1382    -0.3236
     12  O6        10.2230   67.2730  -11.3880 O.3   1382  GLC1382    -0.2176
@<TRIPOS>BOND
     1     8     2    1
     2     9     3    1
     3     2     3    1
     4     2     1    1
     5     3     4    1
     6    10     4    1
     7     1     7    1
     8     1    11    1
     9     4     5    1
    10    11     5    1
    11     5     6    1
    12     6    12    1
