@<TRIPOS>MOLECULE
1hiz_GLA_A_1.pdb
 12 12 0 0 0
SMALL
GASTEIGER

@<TRIPOS>ATOM
      1  C1         2.3060   64.1960   -5.8000 C.3   1381  GLA1381     0.3024
      2  C2         3.3010   65.0080   -4.9630 C.3   1381  GLA1381     0.2434
      3  C3         4.2380   65.8280   -5.8340 C.3   1381  GLA1381     0.2199
      4  C4         5.0100   64.8620   -6.8150 C.3   1381  GLA1381     0.2144
      5  C5         3.9580   64.1030   -7.6250 C.3   1381  GLA1381     0.1836
      6  C6         4.6210   63.1110   -8.5640 C.3   1381  GLA1381     0.2142
      7  O1         1.4180   65.0410   -6.4840 O.3   1381  GLA1381    -0.1869
      8  O2         2.5650   65.8620   -4.0320 O.3   1381  GLA1381    -0.2148
      9  O3         5.1540   66.5510   -5.0310 O.3   1381  GLA1381    -0.2174
     10  O4         5.8920   63.9970   -6.0120 O.3   1381  GLA1381    -0.2176
     11  O5         3.0460   63.3800   -6.7720 O.3   1381  GLA1381    -0.3236
     12  O6         3.9810   61.9270   -8.8800 O.3   1381  GLA1381    -0.2176
@<TRIPOS>BOND
     1    12     6    1
     2     6     5    1
     3     5     4    1
     4     5    11    1
     5     4    10    1
     6     4     3    1
     7    11     1    1
     8     7     1    1
     9     3     9    1
    10     3     2    1
    11     1     2    1
    12     2     8    1
