@<TRIPOS>MOLECULE
1hj1_AOE_A_1.pdb
 38 41 0 0 0
SMALL
GASTEIGER

@<TRIPOS>ATOM
      1  C1         2.2900   -0.1070   43.3310 C.ar  1436  AOE1436    -0.0013
      2  C2         3.3290    0.4750   44.0560 C.ar  1436  AOE1436     0.0417
      3  C3         3.0790    1.1400   45.2370 C.ar  1436  AOE1436     0.1954
      4  O3         4.0690    1.7660   45.9860 O.3   1436  AOE1436    -0.2866
      5  C4         1.7850    1.1960   45.6750 C.ar  1436  AOE1436     0.0375
      6  C5         0.7200    0.6050   44.9870 C.ar  1436  AOE1436    -0.0230
      7  C6        -0.6650    0.7330   45.6080 C.3   1436  AOE1436     0.0261
      8  C7        -1.7600    0.3510   44.5990 C.3   1436  AOE1436     0.0047
      9  C8        -1.3930   -0.9280   43.8090 C.3   1436  AOE1436     0.0044
     10  C9        -0.1600   -0.6030   42.9340 C.3   1436  AOE1436     0.0220
     11  C10        0.9600   -0.0630   43.7780 C.ar  1436  AOE1436    -0.0263
     12  C11        0.2460   -1.8700   42.1350 C.3   1436  AOE1436     0.0044
     13  C12       -0.8750   -2.3860   41.1980 C.3   1436  AOE1436     0.0028
     14  C13       -2.1510   -2.5610   42.0420 C.3   1436  AOE1436     0.0282
     15  C14       -2.5140   -1.2510   42.7850 C.3   1436  AOE1436     0.0028
     16  C15       -3.8580   -1.6880   43.4380 C.3   1436  AOE1436     0.0027
     17  C16       -4.5370   -2.5090   42.3220 C.3   1436  AOE1436     0.0329
     18  C17       -3.4590   -2.7280   41.2370 C.3   1436  AOE1436     0.1519
     19  C18       -1.8840   -3.6820   43.0430 C.3   1436  AOE1436     0.0025
     20  O17       -3.5060   -4.0460   40.7800 O.3   1436  AOE1436    -0.2232
     21  C19       -1.8820    1.5120   43.5700 C.3   1436  AOE1436     0.0003
     22  C20       -2.7930    2.5630   44.2310 C.3   1436  AOE1436     0.0000
     23  C21       -3.0730    3.6560   43.2140 C.3   1436  AOE1436     0.0000
     24  C22       -3.8790    4.7400   43.9140 C.3   1436  AOE1436     0.0000
     25  C23       -5.1880    4.9590   43.1380 C.3   1436  AOE1436     0.0000
     26  C24       -5.3040    6.4870   43.0290 C.3   1436  AOE1436     0.0000
     27  C25       -4.6220    7.0030   41.7600 C.3   1436  AOE1436     0.0000
     28  C26       -4.0650    8.4160   42.0450 C.3   1436  AOE1436     0.0005
     29  C27       -3.9770    9.1950   40.7320 C.3   1436  AOE1436     0.0096
     30  C28       -2.6770   10.0360   40.7330 C.3   1436  AOE1436     0.0853
     31  C29       -2.8850   11.0070   39.5460 C.2   1436  AOE1436     0.2257
     32  O29       -3.8560   10.7330   38.8440 O.2   1436  AOE1436    -0.2749
     33  N29       -2.0170   12.0290   39.3980 N.am  1436  AOE1436    -0.2778
     34  C30       -2.2370   12.9290   38.2790 C.3   1436  AOE1436     0.1148
     35  C31       -0.9010   12.2150   40.3270 C.3   1436  AOE1436     0.0935
     36  C32        0.4170   12.1000   39.5760 C.3   1436  AOE1436     0.0215
     37  C33        1.5140   12.8320   40.3450 C.3   1436  AOE1436     0.0018
     38  C34        2.1970   11.9740   41.4240 C.3   1436  AOE1436     0.0001
@<TRIPOS>BOND
     1    34    33    1
     2    32    31    2
     3    33    31   am
     4    33    35    1
     5    31    30    1
     6    36    35    1
     7    36    37    1
     8    37    38    1
     9    29    30    1
    10    29    28    1
    11    20    18    1
    12    13    14    1
    13    13    12    1
    14    18    14    1
    15    18    17    1
    16    27    28    1
    17    27    26    1
    18    14    15    1
    19    14    19    1
    20    12    10    1
    21    17    16    1
    22    15    16    1
    23    15     9    1
    24    10    11    1
    25    10     9    1
    26    26    25    1
    27    25    24    1
    28    23    24    1
    29    23    22    1
    30     1    11   ar
    31     1     2   ar
    32    21    22    1
    33    21     8    1
    34    11     6   ar
    35     9     8    1
    36     2     3   ar
    37     8     7    1
    38     6     7    1
    39     6     5   ar
    40     3     5   ar
    41     3     4    1
