@<TRIPOS>MOLECULE
1hj1_PMB_A_1.pdb
 11 11 0 0 0
SMALL
GASTEIGER

@<TRIPOS>ATOM
      1  C1         2.3930    3.9070   27.8070 C.ar  1437  PMB1437     0.0000
      2  C2         3.3120    4.8570   27.4100 C.ar  1437  PMB1437     0.0000
      3  C3         4.0160    5.6350   28.3260 C.ar  1437  PMB1437     0.0000
      4  C4         3.7690    5.3980   29.6780 C.ar  1437  PMB1437     0.0000
      5  C5         2.8620    4.4530   30.1030 C.ar  1437  PMB1437     0.0000
      6  C6         2.1710    3.7040   29.1480 C.ar  1437  PMB1437     0.0000
      7  S1         1.6010    3.0190   26.5210 S.3   1437  PMB1437     0.0000
      8  O1         0.8400    1.8160   27.0920 O.3   1437  PMB1437     0.0000
      9  O2         2.7970    2.4840   25.8580 O.3   1437  PMB1437     0.0000
     10  O3         0.6840    3.8750   25.9100 O.3   1437  PMB1437     0.0000
     11 HG          4.8240    6.5280   31.0200 Hg    1437  PMB1437     0.0000
@<TRIPOS>BOND
     1     9     7    1
     2    10     7    1
     3     7     8    1
     4     7     1    1
     5     2     1   ar
     6     2     3   ar
     7     1     6   ar
     8     3     4   ar
     9     6     5   ar
    10     4     5   ar
    11     4    11    1
