@<TRIPOS>MOLECULE
1hj3_HEC_A_1.pdb
 43 50 0 0 0
SMALL
GASTEIGER

@<TRIPOS>ATOM
      1 FE         29.2900   -1.4020   50.8480 Fe    601  HEC601      0.0000
      2  CHA       29.6040   -3.8440   53.1940 C.2   601  HEC601      0.0000
      3  CHB       31.4390    0.5890   52.6150 C.2   601  HEC601      0.0000
      4  CHC       29.4950    0.7370   48.1950 C.2   601  HEC601      0.0000
      5  CHD       26.8700   -3.1810   49.2540 C.2   601  HEC601      0.0000
      6  NA        30.2930   -1.5800   52.5780 N.2   601  HEC601      0.0000
      7  C1A       30.3480   -2.6990   53.3920 C.2   601  HEC601      0.0000
      8  C2A       31.3380   -2.4810   54.4230 C.2   601  HEC601      0.0000
      9  C3A       31.8320   -1.2550   54.2660 C.2   601  HEC601      0.0000
     10  C4A       31.1520   -0.6500   53.1310 C.2   601  HEC601      0.0000
     11  CMA       32.8960   -0.5050   55.0960 C.3   601  HEC601      0.0000
     12  CAA       31.6710   -3.5210   55.5190 C.3   601  HEC601      0.0000
     13  CBA       31.0880   -3.2410   56.9120 C.3   601  HEC601      0.0000
     14  CGA       31.0500   -4.4430   57.8250 C.2   601  HEC601      0.0000
     15  O1A       31.7850   -5.4090   57.4990 O.co2 601  HEC601      0.0000
     16  O2A       30.2870   -4.3630   58.8180 O.co2 601  HEC601      0.0000
     17  NB        30.2510    0.3200   50.4910 N.ar  601  HEC601      0.0000
     18  C1B       31.0770    1.0180   51.3560 C.ar  601  HEC601      0.0000
     19  C2B       31.5700    2.2100   50.7010 C.ar  601  HEC601      0.0000
     20  C3B       31.0470    2.2320   49.4770 C.ar  601  HEC601      0.0000
     21  C4B       30.2190    1.0660   49.3160 C.ar  601  HEC601      0.0000
     22  CMB       32.5110    3.2310   51.3770 C.3   601  HEC601      0.0000
     23  CAB       31.2340    3.3190   48.3700 C.3   601  HEC601      0.0000
     24  CBB       32.2900    3.0780   47.5140 C.3   601  HEC601      0.0000
     25  NC        28.3850   -1.2660   49.0610 N.2   601  HEC601      0.0000
     26  C1C       28.5950   -0.2990   48.1000 C.2   601  HEC601      0.0000
     27  C2C       27.6070   -0.4560   47.0480 C.2   601  HEC601      0.0000
     28  C3C       26.9060   -1.5530   47.3290 C.2   601  HEC601      0.0000
     29  C4C       27.3430   -2.0600   48.6000 C.2   601  HEC601      0.0000
     30  CMC       27.5110    0.4830   45.8270 C.3   601  HEC601      0.0000
     31  CAC       25.6420   -2.0810   46.5670 C.3   601  HEC601      0.0000
     32  CBC       25.9240   -2.9280   45.5210 C.3   601  HEC601      0.0000
     33  ND        28.4090   -3.1630   51.1670 N.ar  601  HEC601      0.0000
     34  C1D       27.4010   -3.7410   50.4060 C.ar  601  HEC601      0.0000
     35  C2D       27.1310   -5.0650   50.9100 C.ar  601  HEC601      0.0000
     36  C3D       27.9050   -5.2600   51.9850 C.ar  601  HEC601      0.0000
     37  C4D       28.6920   -4.0660   52.1790 C.ar  601  HEC601      0.0000
     38  CMD       26.1130   -6.0280   50.2620 C.3   601  HEC601      0.0000
     39  CAD       27.9980   -6.4920   52.9120 C.3   601  HEC601      0.0000
     40  CBD       27.0850   -6.5370   54.1340 C.3   601  HEC601      0.0000
     41  CGD       25.6140   -6.6870   53.8350 C.2   601  HEC601      0.0000
     42  O1D       24.9160   -5.6410   53.9100 O.co2 601  HEC601      0.0000
     43  O2D       25.2110   -7.8380   53.5280 O.co2 601  HEC601      0.0000
@<TRIPOS>BOND
     1    32    31    1
     2    30    27    1
     3    31    28    1
     4    27    28    2
     5    27    26    1
     6    28    29    1
     7    24    23    1
     8    26     4    2
     9    26    25    1
    10     4    21    1
    11    23    20    1
    12    29    25    2
    13    29     5    1
    14    25     1    1
    15     5    34    2
    16    21    20   ar
    17    21    17   ar
    18    20    19   ar
    19    38    35    1
    20    34    35   ar
    21    34    33   ar
    22    17     1    1
    23    17    18   ar
    24    19    18   ar
    25    19    22    1
    26     1    33    1
    27     1     6    1
    28    35    36   ar
    29    33    37   ar
    30    18     3    1
    31    36    37   ar
    32    36    39    1
    33    37     2    2
    34     6    10    1
    35     6     7    2
    36     3    10    2
    37    39    40    1
    38    10     9    1
    39     2     7    1
    40     7     8    1
    41    43    41   ar
    42    41    42   ar
    43    41    40    1
    44     9     8    2
    45     9    11    1
    46     8    12    1
    47    12    13    1
    48    13    14    1
    49    15    14   ar
    50    14    16   ar
