@<TRIPOS>MOLECULE
1hj3_DHE_A_1.pdb
 49 56 0 0 0
SMALL
GASTEIGER

@<TRIPOS>ATOM
      1 FE         15.0190    3.2200   36.2700 Fe    602  DHE602      0.0000
      2  CHA       11.6620    2.7600   35.9940 C.2   602  DHE602      0.0000
      3  CHB       14.7590    3.6630   39.5990 C.2   602  DHE602      0.0000
      4  CHC       18.4340    3.1390   36.4870 C.2   602  DHE602      0.0000
      5  CHD       15.2840    3.5070   32.8370 C.2   602  DHE602      0.0000
      6  NA        13.4950    3.1940   37.5590 N.2   602  DHE602      0.0000
      7  C1A       12.1690    3.0000   37.2580 C.2   602  DHE602      0.0000
      8  C2A       11.3880    3.1860   38.4690 C.2   602  DHE602      0.0000
      9  C3A       12.2390    3.4730   39.4500 C.2   602  DHE602      0.0000
     10  C4A       13.5700    3.4670   38.9240 C.2   602  DHE602      0.0000
     11  CMA       11.9030    3.7220   40.9500 C.3   602  DHE602      0.0000
     12  CAA        9.8330    3.1440   38.4720 C.3   602  DHE602      0.0000
     13  CBA        9.1880    4.4640   37.9930 C.3   602  DHE602      0.0000
     14  CGA        7.7150    4.6210   38.0430 C.2   602  DHE602      0.0000
     15  O1A        6.9990    3.7510   38.5390 O.co2 602  DHE602      0.0000
     16  O2A        7.2250    5.6970   37.5220 O.co2 602  DHE602      0.0000
     17  NB        16.3470    3.3530   37.7570 N.pl3 602  DHE602      0.0000
     18  C1B       16.0520    3.6070   39.0850 C.2   602  DHE602      0.0000
     19  C2B       17.2760    3.7720   39.8220 C.2   602  DHE602      0.0000
     20  OMB       17.3270    4.0870   41.3070 O.2   602  DHE602      0.0000
     21  C3B       18.2790    3.5930   38.9550 C.2   602  DHE602      0.0000
     22  CGB       18.5470    2.1620   39.3780 C.3   602  DHE602      0.0000
     23  CAB       19.4200    4.4820   38.9870 C.3   602  DHE602      0.0000
     24  CBB       19.2230    5.7540   39.1680 C.2   602  DHE602      0.0000
     25  O1B       19.9760    6.4340   39.9630 O.co2 602  DHE602      0.0000
     26  O2B       18.3070    6.3730   38.5680 O.co2 602  DHE602      0.0000
     27  C4B       17.7230    3.2990   37.6630 C.2   602  DHE602      0.0000
     28  NC        16.5490    3.3000   34.9320 N.2   602  DHE602      0.0000
     29  C1C       17.8850    3.2080   35.2250 C.2   602  DHE602      0.0000
     30  C2C       18.6380    3.1560   33.9720 C.2   602  DHE602      0.0000
     31  OMC       20.1640    3.0230   33.9490 O.2   602  DHE602      0.0000
     32  C3C       17.7840    3.4720   32.9930 C.2   602  DHE602      0.0000
     33  CGC       17.8860    2.1230   32.1900 C.3   602  DHE602      0.0000
     34  CAC       18.0820    4.6000   32.1370 C.3   602  DHE602      0.0000
     35  CBC       17.8730    5.8220   32.3430 C.2   602  DHE602      0.0000
     36  O1C       17.2720    6.5750   31.4270 O.co2 602  DHE602      0.0000
     37  O2C       18.3230    6.5370   33.2940 O.co2 602  DHE602      0.0000
     38  C4C       16.4430    3.4310   33.5590 C.2   602  DHE602      0.0000
     39  ND        13.7400    3.1450   34.7360 N.ar  602  DHE602      0.0000
     40  C1D       14.0260    3.2860   33.3820 C.ar  602  DHE602      0.0000
     41  C2D       12.8390    3.0110   32.6220 C.ar  602  DHE602      0.0000
     42  C3D       11.8390    2.7940   33.4860 C.ar  602  DHE602      0.0000
     43  C4D       12.3860    2.8940   34.8220 C.ar  602  DHE602      0.0000
     44  CMD       12.7780    3.0580   31.0730 C.3   602  DHE602      0.0000
     45  CAD       10.3650    2.4890   33.2080 C.2   602  DHE602      0.0000
     46  CBD        9.9780    1.6070   32.0880 C.2   602  DHE602      0.0000
     47  CGD        8.5570    1.1820   31.9470 C.2   602  DHE602      0.0000
     48  O1D        8.2330    0.6110   30.9040 O.co2 602  DHE602      0.0000
     49  O2D        7.7780    1.4890   32.9220 O.co2 602  DHE602      0.0000
@<TRIPOS>BOND
     1    48    47   ar
     2    44    41    1
     3    36    35   ar
     4    47    46    1
     5    47    49   ar
     6    46    45    2
     7    34    35    1
     8    34    32    1
     9    33    32    1
    10    35    37   ar
    11    41    40   ar
    12    41    42   ar
    13     5    40    2
    14     5    38    1
    15    32    38    1
    16    32    30    2
    17    45    42    1
    18    40    39   ar
    19    42    43   ar
    20    38    28    2
    21    31    30    1
    22    30    29    1
    23    39    43   ar
    24    39     1    1
    25    43     2    2
    26    28    29    1
    27    28     1    1
    28    29     4    2
    29     2     7    1
    30     1     6    1
    31     1    17    1
    32     4    27    1
    33     7     6    2
    34     7     8    1
    35    16    14   ar
    36     6    10    1
    37    27    17    1
    38    27    21    2
    39    17    18    1
    40    13    14    1
    41    13    12    1
    42    14    15   ar
    43     8    12    1
    44     8     9    2
    45    26    24   ar
    46    10     9    1
    47    10     3    2
    48    21    23    1
    49    21    22    1
    50    21    19    1
    51    23    24    1
    52    18     3    1
    53    18    19    2
    54    24    25   ar
    55     9    11    1
    56    19    20    1
