@<TRIPOS>MOLECULE
1hj4_HEC_A_1.pdb
 43 50 0 0 0
SMALL
GASTEIGER

@<TRIPOS>ATOM
      1 FE         29.1960   -1.3230   50.9670 Fe    601  HEC601      0.0000
      2  CHA       29.5200   -3.7630   53.3220 C.2   601  HEC601      0.0000
      3  CHB       31.3350    0.6780   52.7510 C.2   601  HEC601      0.0000
      4  CHC       29.3690    0.8400   48.3420 C.2   601  HEC601      0.0000
      5  CHD       26.7970   -3.1210   49.3720 C.2   601  HEC601      0.0000
      6  NA        30.2010   -1.4980   52.7040 N.2   601  HEC601      0.0000
      7  C1A       30.2590   -2.6160   53.5180 C.2   601  HEC601      0.0000
      8  C2A       31.2440   -2.3960   54.5570 C.2   601  HEC601      0.0000
      9  C3A       31.7270   -1.1640   54.4050 C.2   601  HEC601      0.0000
     10  C4A       31.0550   -0.5680   53.2600 C.2   601  HEC601      0.0000
     11  CMA       32.7920   -0.4110   55.2280 C.3   601  HEC601      0.0000
     12  CAA       31.5800   -3.4360   55.6490 C.3   601  HEC601      0.0000
     13  CBA       31.0900   -3.1310   57.0670 C.3   601  HEC601      0.0000
     14  CGA       30.8850   -4.3350   57.9510 C.2   601  HEC601      0.0000
     15  O1A       31.5070   -5.3800   57.6320 O.co2 601  HEC601      0.0000
     16  O2A       30.1060   -4.1890   58.9250 O.co2 601  HEC601      0.0000
     17  NB        30.1290    0.4210   50.6340 N.ar  601  HEC601      0.0000
     18  C1B       30.9680    1.1080   51.4940 C.ar  601  HEC601      0.0000
     19  C2B       31.4850    2.2870   50.8290 C.ar  601  HEC601      0.0000
     20  C3B       30.9600    2.3070   49.6070 C.ar  601  HEC601      0.0000
     21  C4B       30.0960    1.1690   49.4620 C.ar  601  HEC601      0.0000
     22  CMB       32.4580    3.2880   51.4860 C.3   601  HEC601      0.0000
     23  CAB       31.1640    3.3770   48.4840 C.3   601  HEC601      0.0000
     24  CBB       32.2010    3.0880   47.6210 C.3   601  HEC601      0.0000
     25  NC        28.2960   -1.1940   49.1840 N.2   601  HEC601      0.0000
     26  C1C       28.4820   -0.2070   48.2350 C.2   601  HEC601      0.0000
     27  C2C       27.4850   -0.3610   47.1920 C.2   601  HEC601      0.0000
     28  C3C       26.8080   -1.4750   47.4590 C.2   601  HEC601      0.0000
     29  C4C       27.2610   -1.9930   48.7210 C.2   601  HEC601      0.0000
     30  CMC       27.3710    0.5930   45.9830 C.3   601  HEC601      0.0000
     31  CAC       25.5510   -2.0230   46.7000 C.3   601  HEC601      0.0000
     32  CBC       25.8460   -2.8420   45.6350 C.3   601  HEC601      0.0000
     33  ND        28.3200   -3.0880   51.2940 N.ar  601  HEC601      0.0000
     34  C1D       27.3220   -3.6730   50.5300 C.ar  601  HEC601      0.0000
     35  C2D       27.0470   -4.9930   51.0460 C.ar  601  HEC601      0.0000
     36  C3D       27.7990   -5.1710   52.1390 C.ar  601  HEC601      0.0000
     37  C4D       28.6070   -3.9840   52.3090 C.ar  601  HEC601      0.0000
     38  CMD       26.0130   -5.9500   50.4170 C.3   601  HEC601      0.0000
     39  CAD       27.8990   -6.4000   53.0660 C.3   601  HEC601      0.0000
     40  CBD       26.9560   -6.5130   54.2520 C.3   601  HEC601      0.0000
     41  CGD       25.5000   -6.7190   53.9240 C.2   601  HEC601      0.0000
     42  O1D       24.7610   -5.7000   53.9950 O.co2 601  HEC601      0.0000
     43  O2D       25.1410   -7.8770   53.5920 O.co2 601  HEC601      0.0000
@<TRIPOS>BOND
     1    32    31    1
     2    30    27    1
     3    31    28    1
     4    27    28    2
     5    27    26    1
     6    28    29    1
     7    24    23    1
     8    26     4    2
     9    26    25    1
    10     4    21    1
    11    23    20    1
    12    29    25    2
    13    29     5    1
    14    25     1    1
    15     5    34    2
    16    21    20   ar
    17    21    17   ar
    18    20    19   ar
    19    38    35    1
    20    34    35   ar
    21    34    33   ar
    22    17     1    1
    23    17    18   ar
    24    19    22    1
    25    19    18   ar
    26     1    33    1
    27     1     6    1
    28    35    36   ar
    29    33    37   ar
    30    18     3    1
    31    36    37   ar
    32    36    39    1
    33    37     2    2
    34     6    10    1
    35     6     7    2
    36     3    10    2
    37    39    40    1
    38    10     9    1
    39     2     7    1
    40     7     8    1
    41    43    41   ar
    42    41    42   ar
    43    41    40    1
    44     9     8    2
    45     9    11    1
    46     8    12    1
    47    12    13    1
    48    13    14    1
    49    15    14   ar
    50    14    16   ar
