@<TRIPOS>MOLECULE
1hj4_DHE_A_1.pdb
 49 56 0 0 0
SMALL
GASTEIGER

@<TRIPOS>ATOM
      1 FE         14.9500    3.3690   36.3150 Fe    602  DHE602      0.0000
      2  CHA       11.6000    2.8120   36.0400 C.2   602  DHE602      0.0000
      3  CHB       14.6760    3.6870   39.6680 C.2   602  DHE602      0.0000
      4  CHC       18.3710    3.3550   36.5560 C.2   602  DHE602      0.0000
      5  CHD       15.2250    3.5150   32.8900 C.2   602  DHE602      0.0000
      6  NA        13.4330    3.2420   37.6110 N.2   602  DHE602      0.0000
      7  C1A       12.1080    3.0410   37.3040 C.2   602  DHE602      0.0000
      8  C2A       11.3200    3.1980   38.5140 C.2   602  DHE602      0.0000
      9  C3A       12.1620    3.4830   39.5040 C.2   602  DHE602      0.0000
     10  C4A       13.4930    3.4900   38.9840 C.2   602  DHE602      0.0000
     11  CMA       11.8190    3.7390   41.0020 C.3   602  DHE602      0.0000
     12  CAA        9.7670    3.1400   38.5160 C.3   602  DHE602      0.0000
     13  CBA        9.0920    4.4340   38.0630 C.3   602  DHE602      0.0000
     14  CGA        7.6340    4.6180   38.1810 C.2   602  DHE602      0.0000
     15  O1A        6.9000    3.7800   38.7140 O.co2 602  DHE602      0.0000
     16  O2A        7.1570    5.7130   37.6770 O.co2 602  DHE602      0.0000
     17  NB        16.2750    3.4540   37.8160 N.pl3 602  DHE602      0.0000
     18  C1B       15.9680    3.6630   39.1570 C.2   602  DHE602      0.0000
     19  C2B       17.1840    3.8150   39.9070 C.2   602  DHE602      0.0000
     20  OMB       17.2120    4.0670   41.4190 O.2   602  DHE602      0.0000
     21  C3B       18.1910    3.7020   39.0450 C.2   602  DHE602      0.0000
     22  CGB       18.4900    2.2400   39.3420 C.3   602  DHE602      0.0000
     23  CAB       19.3060    4.6160   39.1150 C.3   602  DHE602      0.0000
     24  CBB       19.0700    5.8900   39.2720 C.2   602  DHE602      0.0000
     25  O1B       19.7990    6.5730   40.0880 O.co2 602  DHE602      0.0000
     26  O2B       18.1600    6.4870   38.6540 O.co2 602  DHE602      0.0000
     27  C4B       17.6490    3.4550   37.7320 C.2   602  DHE602      0.0000
     28  NC        16.4920    3.4110   34.9850 N.2   602  DHE602      0.0000
     29  C1C       17.8290    3.4160   35.2850 C.2   602  DHE602      0.0000
     30  C2C       18.6030    3.5370   34.0570 C.2   602  DHE602      0.0000
     31  OMC       20.1390    3.6270   34.0470 O.2   602  DHE602      0.0000
     32  C3C       17.7300    3.6280   33.0530 C.2   602  DHE602      0.0000
     33  CGC       17.8160    2.2480   32.3120 C.3   602  DHE602      0.0000
     34  CAC       17.9100    4.7330   32.1070 C.3   602  DHE602      0.0000
     35  CBC       17.7550    5.9610   32.4240 C.2   602  DHE602      0.0000
     36  O1C       17.1280    6.7700   31.5960 O.co2 602  DHE602      0.0000
     37  O2C       18.2560    6.5320   33.4290 O.co2 602  DHE602      0.0000
     38  C4C       16.3940    3.5260   33.6090 C.2   602  DHE602      0.0000
     39  ND        13.6760    3.1900   34.7800 N.ar  602  DHE602      0.0000
     40  C1D       13.9650    3.3110   33.4220 C.ar  602  DHE602      0.0000
     41  C2D       12.7700    3.0490   32.6660 C.ar  602  DHE602      0.0000
     42  C3D       11.7700    2.8530   33.5290 C.ar  602  DHE602      0.0000
     43  C4D       12.3260    2.9450   34.8660 C.ar  602  DHE602      0.0000
     44  CMD       12.7050    3.0710   31.1180 C.3   602  DHE602      0.0000
     45  CAD       10.2870    2.5620   33.2590 C.2   602  DHE602      0.0000
     46  CBD        9.9360    1.5990   32.1670 C.2   602  DHE602      0.0000
     47  CGD        8.5020    1.2120   32.0160 C.2   602  DHE602      0.0000
     48  O1D        8.1860    0.6720   30.9360 O.co2 602  DHE602      0.0000
     49  O2D        7.7180    1.4900   32.9800 O.co2 602  DHE602      0.0000
@<TRIPOS>BOND
     1    48    47   ar
     2    44    41    1
     3    36    35   ar
     4    47    46    1
     5    47    49   ar
     6    34    35    1
     7    34    32    1
     8    46    45    2
     9    33    32    1
    10    35    37   ar
    11    41    40   ar
    12    41    42   ar
    13     5    40    2
    14     5    38    1
    15    32    38    1
    16    32    30    2
    17    45    42    1
    18    40    39   ar
    19    42    43   ar
    20    38    28    2
    21    31    30    1
    22    30    29    1
    23    39    43   ar
    24    39     1    1
    25    43     2    2
    26    28    29    1
    27    28     1    1
    28    29     4    2
    29     2     7    1
    30     1     6    1
    31     1    17    1
    32     4    27    1
    33     7     6    2
    34     7     8    1
    35     6    10    1
    36    16    14   ar
    37    27    17    1
    38    27    21    2
    39    17    18    1
    40    13    14    1
    41    13    12    1
    42    14    15   ar
    43     8    12    1
    44     8     9    2
    45    26    24   ar
    46    10     9    1
    47    10     3    2
    48    21    23    1
    49    21    22    1
    50    21    19    1
    51    23    24    1
    52    18     3    1
    53    18    19    2
    54    24    25   ar
    55     9    11    1
    56    19    20    1
