@<TRIPOS>MOLECULE
1hj5_HEC_A_1.pdb
 43 50 0 0 0
SMALL
GASTEIGER

@<TRIPOS>ATOM
      1 FE         29.0370   -1.5770   50.7650 Fe    601  HEC601      0.0000
      2  CHA       29.4040   -4.0260   53.1080 C.2   601  HEC601      0.0000
      3  CHB       31.1810    0.4250   52.5080 C.2   601  HEC601      0.0000
      4  CHC       29.1360    0.5940   48.1340 C.2   601  HEC601      0.0000
      5  CHD       26.5890   -3.3750   49.2300 C.2   601  HEC601      0.0000
      6  NA        30.0660   -1.7590   52.4740 N.2   601  HEC601      0.0000
      7  C1A       30.1280   -2.8680   53.3030 C.2   601  HEC601      0.0000
      8  C2A       31.0800   -2.6210   54.3610 C.2   601  HEC601      0.0000
      9  C3A       31.5660   -1.3920   54.1950 C.2   601  HEC601      0.0000
     10  C4A       30.9190   -0.8190   53.0300 C.2   601  HEC601      0.0000
     11  CMA       32.6120   -0.6250   55.0310 C.3   601  HEC601      0.0000
     12  CAA       31.4040   -3.6440   55.4760 C.2   601  HEC601      0.0000
     13  CBA       30.7580   -3.3840   56.8420 C.2   601  HEC601      0.0000
     14  CGA       30.8530   -4.5130   57.8330 C.2   601  HEC601      0.0000
     15  O1A       31.6990   -5.4130   57.5930 O.co2 601  HEC601      0.0000
     16  O2A       30.0790   -4.4590   58.8210 O.co2 601  HEC601      0.0000
     17  NB        29.9350    0.1800   50.4130 N.ar  601  HEC601      0.0000
     18  C1B       30.7940    0.8610   51.2590 C.ar  601  HEC601      0.0000
     19  C2B       31.3140    2.0280   50.5820 C.ar  601  HEC601      0.0000
     20  C3B       30.7630    2.0550   49.3690 C.ar  601  HEC601      0.0000
     21  C4B       29.8910    0.9220   49.2370 C.ar  601  HEC601      0.0000
     22  CMB       32.2910    3.0290   51.2370 C.3   601  HEC601      0.0000
     23  CAB       30.9720    3.1380   48.2580 C.3   601  HEC601      0.0000
     24  CBB       32.2320    3.0570   47.6640 C.3   601  HEC601      0.0000
     25  NC        28.0760   -1.4380   49.0130 N.2   601  HEC601      0.0000
     26  C1C       28.2460   -0.4590   48.0530 C.2   601  HEC601      0.0000
     27  C2C       27.2400   -0.6300   47.0250 C.2   601  HEC601      0.0000
     28  C3C       26.5790   -1.7520   47.3060 C.2   601  HEC601      0.0000
     29  C4C       27.0340   -2.2440   48.5740 C.2   601  HEC601      0.0000
     30  CMC       27.1140    0.2960   45.7960 C.3   601  HEC601      0.0000
     31  CAC       25.2990   -2.2900   46.5710 C.3   601  HEC601      0.0000
     32  CBC       25.5790   -3.0210   45.4320 C.3   601  HEC601      0.0000
     33  ND        28.1720   -3.3540   51.1000 N.ar  601  HEC601      0.0000
     34  C1D       27.1560   -3.9370   50.3580 C.ar  601  HEC601      0.0000
     35  C2D       26.9160   -5.2740   50.8590 C.ar  601  HEC601      0.0000
     36  C3D       27.7060   -5.4550   51.9210 C.ar  601  HEC601      0.0000
     37  C4D       28.4870   -4.2530   52.1000 C.ar  601  HEC601      0.0000
     38  CMD       25.8990   -6.2480   50.2290 C.3   601  HEC601      0.0000
     39  CAD       27.8510   -6.6940   52.8360 C.3   601  HEC601      0.0000
     40  CBD       26.9400   -6.7560   54.0680 C.3   601  HEC601      0.0000
     41  CGD       25.4670   -6.8720   53.7410 C.2   601  HEC601      0.0000
     42  O1D       24.7790   -5.8310   53.8780 O.co2 601  HEC601      0.0000
     43  O2D       25.0680   -7.9870   53.3280 O.co2 601  HEC601      0.0000
@<TRIPOS>BOND
     1    32    31    1
     2    30    27    1
     3    31    28    1
     4    27    28    2
     5    27    26    1
     6    28    29    1
     7    24    23    1
     8    26     4    2
     9    26    25    1
    10     4    21    1
    11    23    20    1
    12    29    25    2
    13    29     5    1
    14    25     1    1
    15     5    34    2
    16    21    20   ar
    17    21    17   ar
    18    20    19   ar
    19    38    35    1
    20    34    35   ar
    21    34    33   ar
    22    17     1    1
    23    17    18   ar
    24    19    22    1
    25    19    18   ar
    26     1    33    1
    27     1     6    1
    28    35    36   ar
    29    33    37   ar
    30    18     3    1
    31    36    37   ar
    32    36    39    1
    33    37     2    2
    34     6    10    1
    35     6     7    2
    36     3    10    2
    37    39    40    1
    38    10     9    1
    39     2     7    1
    40     7     8    1
    41    43    41   ar
    42    41    42   ar
    43    41    40    1
    44     9     8    2
    45     9    11    1
    46     8    12    1
    47    12    13    2
    48    13    14    1
    49    15    14   ar
    50    14    16   ar
