@<TRIPOS>MOLECULE
1hj5_DHE_A_1.pdb
 49 56 0 0 0
SMALL
GASTEIGER

@<TRIPOS>ATOM
      1 FE         14.9600    3.3380   36.2850 Fe    602  DHE602      0.0000
      2  CHA       11.5930    2.8530   36.0260 C.2   602  DHE602      0.0000
      3  CHB       14.6820    3.7150   39.6330 C.2   602  DHE602      0.0000
      4  CHC       18.3590    3.5260   36.4950 C.2   602  DHE602      0.0000
      5  CHD       15.1960    3.4700   32.8500 C.2   602  DHE602      0.0000
      6  NA        13.4360    3.2840   37.5870 N.2   602  DHE602      0.0000
      7  C1A       12.1030    3.0840   37.2860 C.2   602  DHE602      0.0000
      8  C2A       11.3140    3.2430   38.4940 C.2   602  DHE602      0.0000
      9  C3A       12.1550    3.5010   39.4920 C.2   602  DHE602      0.0000
     10  C4A       13.4910    3.5100   38.9610 C.2   602  DHE602      0.0000
     11  CMA       11.8250    3.7340   40.9900 C.3   602  DHE602      0.0000
     12  CAA        9.7620    3.1770   38.4920 C.3   602  DHE602      0.0000
     13  CBA        9.0690    4.3970   37.9010 C.3   602  DHE602      0.0000
     14  CGA        7.6260    4.6430   38.0910 C.2   602  DHE602      0.0000
     15  O1A        6.8920    3.8190   38.6670 O.co2 602  DHE602      0.0000
     16  O2A        7.1700    5.7500   37.6250 O.co2 602  DHE602      0.0000
     17  NB        16.2790    3.5700   37.7720 N.pl3 602  DHE602      0.0000
     18  C1B       15.9770    3.7360   39.1190 C.2   602  DHE602      0.0000
     19  C2B       17.1930    3.8260   39.8730 C.2   602  DHE602      0.0000
     20  OMB       17.2280    4.0090   41.3930 O.2   602  DHE602      0.0000
     21  C3B       18.2030    3.6290   39.0150 C.2   602  DHE602      0.0000
     22  CGB       18.4880    2.1640   39.3710 C.3   602  DHE602      0.0000
     23  CAB       19.3750    4.5010   39.1530 C.3   602  DHE602      0.0000
     24  CBB       19.1630    5.7760   39.3160 C.2   602  DHE602      0.0000
     25  O1B       19.8850    6.4690   40.1230 O.co2 602  DHE602      0.0000
     26  O2B       18.3290    6.4040   38.6050 O.co2 602  DHE602      0.0000
     27  C4B       17.6530    3.5990   37.6810 C.2   602  DHE602      0.0000
     28  NC        16.4740    3.4610   34.9330 N.2   602  DHE602      0.0000
     29  C1C       17.8180    3.5230   35.2240 C.2   602  DHE602      0.0000
     30  C2C       18.5770    3.6490   33.9930 C.2   602  DHE602      0.0000
     31  OMC       20.1090    3.7900   33.9740 O.2   602  DHE602      0.0000
     32  C3C       17.7000    3.6690   32.9900 C.2   602  DHE602      0.0000
     33  CGC       17.8630    2.2770   32.2750 C.3   602  DHE602      0.0000
     34  CAC       17.8290    4.7610   32.0160 C.3   602  DHE602      0.0000
     35  CBC       17.6880    5.9960   32.3530 C.2   602  DHE602      0.0000
     36  O1C       17.0510    6.8230   31.5780 O.co2 602  DHE602      0.0000
     37  O2C       18.2380    6.5250   33.3630 O.co2 602  DHE602      0.0000
     38  C4C       16.3710    3.5330   33.5570 C.2   602  DHE602      0.0000
     39  ND        13.6630    3.1870   34.7590 N.ar  602  DHE602      0.0000
     40  C1D       13.9490    3.2600   33.3940 C.ar  602  DHE602      0.0000
     41  C2D       12.7460    3.0060   32.6430 C.ar  602  DHE602      0.0000
     42  C3D       11.7490    2.8220   33.5250 C.ar  602  DHE602      0.0000
     43  C4D       12.3110    2.9450   34.8460 C.ar  602  DHE602      0.0000
     44  CMD       12.6840    2.9920   31.0980 C.3   602  DHE602      0.0000
     45  CAD       10.2680    2.5220   33.2600 C.2   602  DHE602      0.0000
     46  CBD        9.9100    1.6070   32.1280 C.2   602  DHE602      0.0000
     47  CGD        8.4780    1.2290   31.9560 C.2   602  DHE602      0.0000
     48  O1D        8.1460    0.6540   30.9130 O.co2 602  DHE602      0.0000
     49  O2D        7.6850    1.5290   32.9220 O.co2 602  DHE602      0.0000
@<TRIPOS>BOND
     1    48    47   ar
     2    44    41    1
     3    36    35   ar
     4    47    46    1
     5    47    49   ar
     6    34    35    1
     7    34    32    1
     8    46    45    2
     9    33    32    1
    10    35    37   ar
    11    41    40   ar
    12    41    42   ar
    13     5    40    2
    14     5    38    1
    15    32    38    1
    16    32    30    2
    17    45    42    1
    18    40    39   ar
    19    42    43   ar
    20    38    28    2
    21    31    30    1
    22    30    29    1
    23    39    43   ar
    24    39     1    1
    25    43     2    2
    26    28    29    1
    27    28     1    1
    28    29     4    2
    29     2     7    1
    30     1     6    1
    31     1    17    1
    32     4    27    1
    33     7     6    2
    34     7     8    1
    35     6    10    1
    36    16    14   ar
    37    27    17    1
    38    27    21    2
    39    17    18    1
    40    13    14    1
    41    13    12    1
    42    14    15   ar
    43    12     8    1
    44     8     9    2
    45    26    24   ar
    46    10     9    1
    47    10     3    2
    48    21    23    1
    49    21    22    1
    50    21    19    1
    51    18     3    1
    52    18    19    2
    53    23    24    1
    54    24    25   ar
    55     9    11    1
    56    19    20    1
