@<TRIPOS>MOLECULE
1hj6_NAP_A_1.pdb
 48 52 0 0 0
SMALL
GASTEIGER

@<TRIPOS>ATOM
      1  PA       -68.2620  -90.7020    2.2710 P.3   1420  NAP1420     0.2189
      2  O1A      -69.0180  -90.5400    0.9740 O.2   1420  NAP1420    -0.5170
      3  O2A      -67.0060  -91.5390    2.3170 O.3   1420  NAP1420    -0.4371
      4  O5B      -69.2550  -91.3040    3.3660 O.3   1420  NAP1420    -0.3112
      5  C5B      -70.5620  -90.8030    3.5970 C.3   1420  NAP1420     0.1813
      6  C4B      -71.6840  -91.8030    3.7150 C.3   1420  NAP1420     0.1820
      7  O4B      -72.2910  -92.0820    2.4190 O.3   1420  NAP1420    -0.3136
      8  C3B      -71.2190  -93.2090    4.1150 C.3   1420  NAP1420     0.2157
      9  O3B      -70.8250  -93.4160    5.4720 O.3   1420  NAP1420    -0.2175
     10  C2B      -72.4080  -94.0500    3.5920 C.3   1420  NAP1420     0.2314
     11  O2B      -73.6500  -93.6810    4.2710 O.3   1420  NAP1420    -0.2630
     12  C1B      -72.3800  -93.4650    2.1710 C.3   1420  NAP1420     0.3158
     13  N9A      -71.4780  -94.1540    1.1760 N.pl3 1420  NAP1420    -0.1439
     14  C8A      -70.2490  -93.7690    0.7240 C.3   1420  NAP1420     0.3377
     15  N7A      -69.7100  -94.5760   -0.1400 N.2   1420  NAP1420    -0.2095
     16  C5A      -70.6540  -95.5700   -0.2680 C.2   1420  NAP1420     0.2526
     17  C6A      -70.7280  -96.7960   -1.0600 C.2   1420  NAP1420     0.4393
     18  N6A      -69.7580  -97.1540   -1.8680 N.pl3 1420  NAP1420     0.2180
     19  N1A      -71.8380  -97.5790   -0.9460 N.2   1420  NAP1420     0.0021
     20  C2A      -72.8850  -97.2660   -0.1240 C.3   1420  NAP1420     0.5254
     21  N3A      -72.8850  -96.1200    0.6560 N.2   1420  NAP1420    -0.0055
     22  C4A      -71.7520  -95.3070    0.5500 C.2   1420  NAP1420     0.3518
     23  O3       -68.0140  -89.2590    2.9180 O.3   1420  NAP1420    -0.2703
     24  PN       -67.4180  -88.7970    4.3450 P.3   1420  NAP1420     0.2189
     25  O1N      -67.5620  -89.8890    5.3980 O.3   1420  NAP1420    -0.4371
     26  O2N      -67.7150  -87.3290    4.5940 O.2   1420  NAP1420    -0.5170
     27  O5D      -65.7940  -88.7890    4.1010 O.3   1420  NAP1420    -0.3112
     28  C5D      -64.7690  -89.7430    4.3070 C.3   1420  NAP1420     0.1813
     29  C4D      -63.5300  -89.3220    3.5530 C.3   1420  NAP1420     0.1799
     30  O4D      -63.6500  -89.4030    2.0950 O.3   1420  NAP1420    -0.3327
     31  C3D      -62.9510  -87.9210    3.8070 C.3   1420  NAP1420     0.2158
     32  O3D      -61.5490  -87.8860    4.0000 O.3   1420  NAP1420    -0.2175
     33  C2D      -63.5180  -87.1220    2.6000 C.3   1420  NAP1420     0.2309
     34  O2D      -62.7830  -85.9340    2.3150 O.3   1420  NAP1420    -0.2158
     35  C1D      -63.5420  -88.1540    1.4760 C.3   1420  NAP1420     0.2263
     36  N1N      -64.2710  -87.8600    0.2700 N.pl3 1420  NAP1420    -0.2787
     37  C2N      -63.6150  -88.0860   -0.9750 C.3   1420  NAP1420     0.1244
     38  C3N      -64.3620  -88.0550   -2.1830 C.2   1420  NAP1420     0.0544
     39  C7N      -63.7380  -88.2730   -3.4570 C.2   1420  NAP1420     0.2818
     40  O7N      -62.7990  -89.1010   -3.5480 O.2   1420  NAP1420    -0.2670
     41  N7N      -64.1280  -87.6120   -4.5350 N.am  1420  NAP1420    -0.0839
     42  C4N      -65.7670  -87.7980   -2.1330 C.2   1420  NAP1420     0.0033
     43  C5N      -66.4250  -87.5700   -0.8820 C.2   1420  NAP1420     0.0157
     44  C6N      -65.6740  -87.6010    0.3200 C.2   1420  NAP1420     0.0633
     45  P2B      -74.3230  -94.5570    5.4780 P.3   1420  NAP1420     0.5328
     46  O1X      -75.5330  -93.7650    5.8590 O.3   1420  NAP1420    -0.1145
     47  O2X      -73.2500  -94.6910    6.5130 O.3   1420  NAP1420    -0.1145
     48  O3X      -74.6420  -95.8250    4.7690 O.2   1420  NAP1420    -0.2224
@<TRIPOS>BOND
     1    41    39   am
     2    40    39    2
     3    39    38    1
     4    38    42    2
     5    38    37    1
     6    42    43    1
     7    18    17    1
     8    17    19    2
     9    17    16    1
    10    37    36    1
    11    19    20    1
    12    43    44    2
    13    16    15    2
    14    16    22    1
    15    15    14    1
    16    20    21    1
    17    36    44    1
    18    36    35    1
    19    22    21    2
    20    22    13    1
    21    14    13    1
    22     2     1    2
    23    13    12    1
    24    35    30    1
    25    35    33    1
    26    30    29    1
    27    12     7    1
    28    12    10    1
    29     1     3    1
    30     1    23    1
    31     1     4    1
    32    34    33    1
    33     7     6    1
    34    33    31    1
    35    23    24    1
    36     4     5    1
    37    29    31    1
    38    29    28    1
    39    10     8    1
    40    10    11    1
    41     5     6    1
    42     6     8    1
    43    31    32    1
    44    27    28    1
    45    27    24    1
    46     8     9    1
    47    11    45    1
    48    24    26    2
    49    24    25    1
    50    48    45    2
    51    45    46    1
    52    45    47    1
