@<TRIPOS>MOLECULE
1hj6_IPM_A_1.pdb
 12 11 0 0 0
SMALL
GASTEIGER

@<TRIPOS>ATOM
      1  C1       -66.9300  -84.7570   -3.9220 C.2   1419  IPM1419     0.3952
      2  C2       -66.3020  -84.3270   -2.5720 C.3   1419  IPM1419     0.2645
      3  C3       -65.1800  -83.2660   -2.7710 C.3   1419  IPM1419     0.1448
      4  C4       -65.8060  -81.9310   -3.2400 C.2   1419  IPM1419     0.3674
      5  C5       -64.3520  -83.0630   -1.4560 C.3   1419  IPM1419     0.0138
      6  C6       -63.1640  -82.1170   -1.7020 C.3   1419  IPM1419     0.0007
      7  C7       -63.8030  -84.4010   -0.9310 C.3   1419  IPM1419     0.0007
      8  O1       -67.3080  -83.8640   -1.6680 O.3   1419  IPM1419    -0.2103
      9  O2       -66.1490  -85.3260   -4.8740 O.co2 1419  IPM1419    -0.2428
     10  O3       -68.1940  -84.3740   -4.2350 O.co2 1419  IPM1419    -0.2428
     11  O4       -66.3690  -81.0920   -2.3260 O.co2 1419  IPM1419    -0.2456
     12  O5       -66.0820  -81.7630   -4.5560 O.co2 1419  IPM1419    -0.2456
@<TRIPOS>BOND
     1     9     1   ar
     2    12     4   ar
     3    10     1   ar
     4     1     2    1
     5     4     3    1
     6     4    11   ar
     7     3     2    1
     8     3     5    1
     9     2     8    1
    10     6     5    1
    11     5     7    1
