@<TRIPOS>MOLECULE
1hjo_ADP_A_1.pdb
 27 29 0 0 0
SMALL
GASTEIGER

@<TRIPOS>ATOM
      1  PB         7.8070   28.0630   34.9930 P.3   383  ADP383      0.5373
      2  O1B        8.9690   28.8630   34.5600 O.2   383  ADP383     -0.2221
      3  O2B        8.2490   26.9600   36.0870 O.3   383  ADP383     -0.1143
      4  O3B        6.7250   28.9300   35.5300 O.3   383  ADP383     -0.1143
      5  PA         7.1220   27.4550   32.2440 P.3   383  ADP383      0.2231
      6  O1A        6.9240   26.1360   31.6030 O.2   383  ADP383     -0.5169
      7  O2A        8.3100   28.1460   31.7270 O.3   383  ADP383     -0.4370
      8  O3A        7.2590   27.2290   33.8020 O.3   383  ADP383     -0.2261
      9  O5'        5.8430   28.3810   32.1010 O.3   383  ADP383     -0.3111
     10  C5'        4.5280   27.9690   32.5000 C.3   383  ADP383      0.1813
     11  C4'        3.6210   29.1590   32.1510 C.3   383  ADP383      0.1821
     12  O4'        3.4710   29.2610   30.7040 O.3   383  ADP383     -0.3135
     13  C3'        2.2030   29.0320   32.7100 C.3   383  ADP383      0.2184
     14  O3'        1.6850   30.2730   33.2040 O.3   383  ADP383     -0.2174
     15  C2'        1.3880   28.5390   31.5360 C.3   383  ADP383      0.2570
     16  O2'       -0.0140   28.8000   31.6490 O.3   383  ADP383     -0.2130
     17  C1'        2.0640   29.2540   30.3930 C.3   383  ADP383      0.3186
     18  N9         1.7610   28.6040   29.0750 N.pl3 383  ADP383     -0.1439
     19  C8         2.1080   27.3680   28.6990 C.3   383  ADP383      0.3377
     20  N7         1.6540   27.1450   27.4690 N.2   383  ADP383     -0.2095
     21  C5         1.0190   28.2170   27.0560 C.2   383  ADP383      0.2526
     22  C6         0.3400   28.5980   25.8920 C.2   383  ADP383      0.4393
     23  N6         0.2290   27.7450   24.8590 N.pl3 383  ADP383      0.2180
     24  N1        -0.2220   29.8490   25.8030 N.2   383  ADP383      0.0021
     25  C2        -0.1430   30.7410   26.8140 C.3   383  ADP383      0.5254
     26  N3         0.5090   30.3790   27.9380 N.2   383  ADP383     -0.0055
     27  C4         1.0910   29.1590   28.0960 C.2   383  ADP383      0.3518
@<TRIPOS>BOND
     1    23    22    1
     2    24    22    2
     3    24    25    1
     4    22    21    1
     5    25    26    1
     6    21    20    2
     7    21    27    1
     8    20    19    1
     9    26    27    2
    10    27    18    1
    11    19    18    1
    12    18    17    1
    13    17    12    1
    14    17    15    1
    15    12    11    1
    16    15    16    1
    17    15    13    1
    18     6     5    2
    19     7     5    1
    20     9     5    1
    21     9    10    1
    22    11    10    1
    23    11    13    1
    24     5     8    1
    25    13    14    1
    26     8     1    1
    27     2     1    2
    28     1     4    1
    29     1     3    1
