@<TRIPOS>MOLECULE
1hjs_EPE_A_1.pdb
 15 15 0 0 0
SMALL
GASTEIGER

@<TRIPOS>ATOM
      1  N1        11.4000  -14.1230   42.6720 N.3   901  EPE901     -0.2689
      2  C2        11.7230  -14.1700   44.1620 C.3   901  EPE901      0.0897
      3  C3        13.2480  -14.1480   44.2810 C.3   901  EPE901      0.0897
      4  N4        13.8310  -15.3640   43.6740 N.3   901  EPE901     -0.2681
      5  C5        13.4660  -15.4570   42.2270 C.3   901  EPE901      0.0897
      6  C6        11.9420  -15.3840   41.9970 C.3   901  EPE901      0.0897
      7  C7        15.3310  -15.4220   43.7230 C.3   901  EPE901      0.1081
      8  C8        15.9460  -15.3370   45.1100 C.3   901  EPE901      0.1993
      9  O8        16.1150  -16.5890   45.7650 O.3   901  EPE901     -0.2189
     10  C9         9.9160  -14.1060   42.3710 C.3   901  EPE901      0.0939
     11  C10        9.2260  -12.8790   43.0530 C.3   901  EPE901      0.1225
     12  S          7.4760  -12.8080   42.6230 S.3   901  EPE901     -0.1946
     13  O1S        6.9420  -11.6570   43.3170 O.3   901  EPE901     -0.3074
     14  O2S        6.8720  -14.0600   43.0580 O.3   901  EPE901     -0.3074
     15  O3S        7.4350  -12.6480   41.1910 O.3   901  EPE901     -0.3074
@<TRIPOS>BOND
     1    15    12    1
     2     6     5    1
     3     6     1    1
     4     5     4    1
     5    10     1    1
     6    10    11    1
     7    12    11    1
     8    12    14    1
     9    12    13    1
    10     1     2    1
    11     4     7    1
    12     4     3    1
    13     7     8    1
    14     2     3    1
    15     8     9    1
