@<TRIPOS>MOLECULE
1hjt_HEM_A_1.pdb
 43 50 0 0 0
SMALL
GASTEIGER

@<TRIPOS>ATOM
      1 FE         14.7800   27.9220    4.9310 Fe    160  HEM160      0.0000
      2  CHA       16.0090   31.0800    5.1740 C.2   160  HEM160      0.0000
      3  CHB       13.9360   27.9610    8.2930 C.2   160  HEM160      0.0000
      4  CHC       13.4310   24.7160    4.7050 C.2   160  HEM160      0.0000
      5  CHD       15.4990   27.8270    1.5900 C.2   160  HEM160      0.0000
      6  NA        14.9350   29.2760    6.4650 N.2   160  HEM160      0.0000
      7  C1A       15.4800   30.5290    6.3190 C.2   160  HEM160      0.0000
      8  C2A       15.3770   31.1860    7.6100 C.2   160  HEM160      0.0000
      9  C3A       14.8430   30.2990    8.4950 C.2   160  HEM160      0.0000
     10  C4A       14.5320   29.0810    7.7690 C.2   160  HEM160      0.0000
     11  CMA       14.5620   30.4980    9.9820 C.3   160  HEM160      0.0000
     12  CAA       15.7500   32.6490    7.8510 C.3   160  HEM160      0.0000
     13  CBA       14.5860   33.6580    7.9020 C.3   160  HEM160      0.0000
     14  CGA       13.6880   33.6130    6.6700 C.2   160  HEM160      0.0000
     15  O1A       14.2310   33.9180    5.5870 O.co2 160  HEM160      0.0000
     16  O2A       12.5000   33.2740    6.8550 O.co2 160  HEM160      0.0000
     17  NB        13.8650   26.5500    6.2790 N.ar  160  HEM160      0.0000
     18  C1B       13.6550   26.7960    7.6170 C.ar  160  HEM160      0.0000
     19  C2B       13.0670   25.5990    8.1810 C.ar  160  HEM160      0.0000
     20  C3B       12.8890   24.6950    7.1670 C.ar  160  HEM160      0.0000
     21  C4B       13.4000   25.3010    5.9480 C.ar  160  HEM160      0.0000
     22  CMB       12.7110   25.4230    9.6550 C.3   160  HEM160      0.0000
     23  CAB       12.3220   23.3890    7.0990 C.3   160  HEM160      0.0000
     24  CBB       12.5680   22.4270    8.1530 C.3   160  HEM160      0.0000
     25  NC        14.5350   26.4990    3.4170 N.2   160  HEM160      0.0000
     26  C1C       14.0410   25.2320    3.5830 C.2   160  HEM160      0.0000
     27  C2C       14.2060   24.5410    2.3160 C.2   160  HEM160      0.0000
     28  C3C       14.7830   25.4110    1.4310 C.2   160  HEM160      0.0000
     29  C4C       14.9700   26.6770    2.1250 C.2   160  HEM160      0.0000
     30  CMC       13.7620   23.1010    2.0860 C.3   160  HEM160      0.0000
     31  CAC       15.1910   25.3230    0.0680 C.3   160  HEM160      0.0000
     32  CBC       15.4750   24.0570   -0.5600 C.3   160  HEM160      0.0000
     33  ND        15.5680   29.2430    3.6000 N.ar  160  HEM160      0.0000
     34  C1D       15.8370   28.9660    2.2790 C.ar  160  HEM160      0.0000
     35  C2D       16.5540   30.1130    1.7460 C.ar  160  HEM160      0.0000
     36  C3D       16.7360   31.0000    2.7610 C.ar  160  HEM160      0.0000
     37  C4D       16.0710   30.4770    3.9400 C.ar  160  HEM160      0.0000
     38  CMD       17.0170   30.2200    0.2920 C.3   160  HEM160      0.0000
     39  CAD       17.5750   32.2860    2.7640 C.2   160  HEM160      0.0000
     40  CBD       19.0550   32.1530    3.1270 C.2   160  HEM160      0.0000
     41  CGD       19.8780   33.4220    3.0210 C.2   160  HEM160      0.0000
     42  O1D       20.0450   33.8920    1.8730 O.co2 160  HEM160      0.0000
     43  O2D       20.3390   33.8790    4.0920 O.co2 160  HEM160      0.0000
@<TRIPOS>BOND
     1    32    31    1
     2    31    28    1
     3    38    35    1
     4    28    29    1
     5    28    27    2
     6     5    29    1
     7     5    34    2
     8    35    34   ar
     9    35    36   ar
    10    42    41   ar
    11    30    27    1
    12    29    25    2
    13    34    33   ar
    14    27    26    1
    15    36    39    1
    16    36    37   ar
    17    39    40    2
    18    41    40    1
    19    41    43   ar
    20    25    26    1
    21    25     1    1
    22    26     4    2
    23    33    37   ar
    24    33     1    1
    25    37     2    2
    26     4    21    1
    27     1    17    1
    28     1     6    1
    29     2     7    1
    30    15    14   ar
    31    21    17   ar
    32    21    20   ar
    33    17    18   ar
    34     7     6    2
    35     7     8    1
    36     6    10    1
    37    14    16   ar
    38    14    13    1
    39    23    20    1
    40    23    24    1
    41    20    19   ar
    42     8    12    1
    43     8     9    2
    44    18    19   ar
    45    18     3    1
    46    10     3    2
    47    10     9    1
    48    12    13    1
    49    19    22    1
    50     9    11    1
