@<TRIPOS>MOLECULE
1hk1_T44_A_1.pdb
 24 25 0 0 0
SMALL
GASTEIGER

@<TRIPOS>ATOM
      1  C1        -8.8380    0.4350   16.1240 C.ar  3001  T443001    -0.0191
      2  C2        -8.5030   -0.8960   15.9270 C.ar  3001  T443001     0.0047
      3  C3        -8.7710   -1.5650   14.7400 C.ar  3001  T443001     0.0647
      4  C4        -9.4150   -0.8670   13.6630 C.ar  3001  T443001     0.1558
      5  C5        -9.7690    0.4540   13.8660 C.ar  3001  T443001     0.0647
      6  C6        -9.4990    1.1350   15.0750 C.ar  3001  T443001     0.0047
      7  C7        -8.4600    1.0780   17.4500 C.3   3001  T443001     0.0570
      8  C8        -6.9520    1.2850   17.7520 C.3   3001  T443001     0.1986
      9  C9        -5.9370    1.2820   16.5510 C.2   3001  T443001     0.3822
     10  C1'       -8.5950   -1.3360   11.4930 C.ar  3001  T443001     0.1464
     11  C2'       -8.9690   -1.2970   10.1510 C.ar  3001  T443001     0.0465
     12  C3'       -7.9560   -1.1160    9.1870 C.ar  3001  T443001     0.0724
     13  C4'       -6.5240   -0.9600    9.5080 C.ar  3001  T443001     0.2064
     14  C5'       -6.2470   -1.0120   10.8780 C.ar  3001  T443001     0.0724
     15  C6'       -7.2150   -1.1930   11.8700 C.ar  3001  T443001     0.0465
     16  N8        -6.7950    2.6050   18.4820 N.3   3001  T443001    -0.1205
     17  O4        -9.6400   -1.5140   12.4670 O.3   3001  T443001    -0.4526
     18  O4'       -5.5950   -0.7910    8.6000 O.3   3001  T443001    -0.2857
     19  O9        -5.9910    2.2340   15.7580 O.co2 3001  T443001    -0.2440
     20  O10       -5.1460    0.3320   16.4750 O.co2 3001  T443001    -0.2440
     21  I3        -8.1980   -3.5550   14.5810 I     3001  T443001    -0.0393
     22  I3'       -8.5320   -1.0760    7.1830 I     3001  T443001    -0.0391
     23  I5       -10.7310    1.5180   12.3380 I     3001  T443001    -0.0393
     24  I5'       -4.2520   -0.8100   11.4730 I     3001  T443001    -0.0391
@<TRIPOS>BOND
     1    22    12    1
     2    18    13    1
     3    12    13   ar
     4    12    11   ar
     5    13    14   ar
     6    11    10   ar
     7    14    24    1
     8    14    15   ar
     9    10    15   ar
    10    10    17    1
    11    23     5    1
    12    17     4    1
    13     4     5   ar
    14     4     3   ar
    15     5     6   ar
    16    21     3    1
    17     3     2   ar
    18     6     1   ar
    19    19     9   ar
    20     2     1   ar
    21     1     7    1
    22    20     9   ar
    23     9     8    1
    24     7     8    1
    25     8    16    1
