@<TRIPOS>MOLECULE
1hk2_T44_A_1.pdb
 24 25 0 0 0
SMALL
GASTEIGER

@<TRIPOS>ATOM
      1  C1        -8.7150   -0.1570   16.5320 C.ar  3001  T443001    -0.0191
      2  C2        -8.5080   -1.4940   16.1720 C.ar  3001  T443001     0.0047
      3  C3        -8.8450   -1.9840   14.9110 C.ar  3001  T443001     0.0647
      4  C4        -9.4150   -1.1090   13.9540 C.ar  3001  T443001     0.1558
      5  C5        -9.6370    0.1970   14.3100 C.ar  3001  T443001     0.0647
      6  C6        -9.3070    0.7180   15.5810 C.ar  3001  T443001     0.0047
      7  C7        -8.2670    0.2920   17.9120 C.3   3001  T443001     0.0570
      8  C8        -6.7280    0.2350   18.1060 C.3   3001  T443001     0.1986
      9  C9        -5.8500    0.6800   16.8810 C.2   3001  T443001     0.3822
     10  C1'       -8.6940   -1.4100   11.6970 C.ar  3001  T443001     0.1464
     11  C2'       -9.1040   -1.3580   10.3750 C.ar  3001  T443001     0.0465
     12  C3'       -8.1130   -1.1890    9.3940 C.ar  3001  T443001     0.0724
     13  C4'       -6.6900   -1.0540    9.6440 C.ar  3001  T443001     0.2064
     14  C5'       -6.3830   -1.1150   11.0130 C.ar  3001  T443001     0.0724
     15  C6'       -7.3150   -1.2810   12.0310 C.ar  3001  T443001     0.0465
     16  N8        -6.3320    1.1290   19.2500 N.3   3001  T443001    -0.1205
     17  O4        -9.7110   -1.5800   12.6920 O.3   3001  T443001    -0.4526
     18  O4'       -5.8010   -0.8980    8.6630 O.3   3001  T443001    -0.2857
     19  O9        -6.0440    1.8240   16.4390 O.co2 3001  T443001    -0.2440
     20  O10       -5.0340   -0.1400   16.4240 O.co2 3001  T443001    -0.2440
     21  I3        -8.5100   -3.9720   14.4470 I     3001  T443001    -0.0393
     22  I3'       -8.6610   -1.1050    7.4410 I     3001  T443001    -0.0391
     23  I5       -10.5080    1.4510   12.8940 I     3001  T443001    -0.0393
     24  I5'       -4.4250   -0.9230   11.5640 I     3001  T443001    -0.0391
@<TRIPOS>BOND
     1    22    12    1
     2    18    13    1
     3    12    13   ar
     4    12    11   ar
     5    13    14   ar
     6    11    10   ar
     7    14    24    1
     8    14    15   ar
     9    10    15   ar
    10    10    17    1
    11    17     4    1
    12    23     5    1
    13     4     5   ar
    14     4     3   ar
    15     5     6   ar
    16    21     3    1
    17     3     2   ar
    18     6     1   ar
    19     2     1   ar
    20    20     9   ar
    21    19     9   ar
    22     1     7    1
    23     9     8    1
    24     7     8    1
    25     8    16    1
