@<TRIPOS>MOLECULE
1hk3_T44_A_1.pdb
 24 25 0 0 0
SMALL
GASTEIGER

@<TRIPOS>ATOM
      1  C1        -8.5170   -0.0260   16.9190 C.ar  3001  T443001    -0.0191
      2  C2        -8.2480   -1.3730   16.6270 C.ar  3001  T443001     0.0047
      3  C3        -8.5270   -1.9240   15.3750 C.ar  3001  T443001     0.0647
      4  C4        -9.0770   -1.1180   14.3850 C.ar  3001  T443001     0.1558
      5  C5        -9.3550    0.1940   14.6570 C.ar  3001  T443001     0.0647
      6  C6        -9.0910    0.7910   15.9090 C.ar  3001  T443001     0.0047
      7  C7        -8.1390    0.4980   18.2920 C.3   3001  T443001     0.0570
      8  C8        -6.6360    0.3710   18.6580 C.3   3001  T443001     0.1986
      9  C9        -5.6060    0.4660   17.5110 C.2   3001  T443001     0.3822
     10  C1'       -8.2890   -1.5180   12.1780 C.ar  3001  T443001     0.1464
     11  C2'       -8.7090   -1.4520   10.8500 C.ar  3001  T443001     0.0465
     12  C3'       -7.6890   -1.2930    9.8590 C.ar  3001  T443001     0.0724
     13  C4'       -6.2760   -1.1940   10.1620 C.ar  3001  T443001     0.2064
     14  C5'       -5.9750   -1.2720   11.5200 C.ar  3001  T443001     0.0724
     15  C6'       -6.9260   -1.4300   12.5280 C.ar  3001  T443001     0.0465
     16  N8        -6.2710    1.4650   19.6170 N.3   3001  T443001    -0.1205
     17  O4        -9.3060   -1.6660   13.1550 O.3   3001  T443001    -0.4526
     18  O4'       -5.3610   -1.0430    9.2120 O.3   3001  T443001    -0.2857
     19  O9        -5.6890    1.4750   16.7690 O.co2 3001  T443001    -0.2440
     20  O10       -4.7340   -0.3990   17.4750 O.co2 3001  T443001    -0.2440
     21  I3        -8.0790   -3.9310   14.9420 I     3001  T443001    -0.0393
     22  I3'       -8.1820   -1.1870    7.8380 I     3001  T443001    -0.0391
     23  I5       -10.1670    1.3750   13.1120 I     3001  T443001    -0.0393
     24  I5'       -3.9800   -1.1310   12.0440 I     3001  T443001    -0.0391
@<TRIPOS>BOND
     1    22    12    1
     2    18    13    1
     3    12    13   ar
     4    12    11   ar
     5    13    14   ar
     6    11    10   ar
     7    14    24    1
     8    14    15   ar
     9    10    15   ar
    10    10    17    1
    11    23     5    1
    12    17     4    1
    13     4     5   ar
    14     4     3   ar
    15     5     6   ar
    16    21     3    1
    17     3     2   ar
    18     6     1   ar
    19     2     1   ar
    20    19     9   ar
    21     1     7    1
    22    20     9   ar
    23     9     8    1
    24     7     8    1
    25     8    16    1
