@<TRIPOS>MOLECULE
1hk4_T44_A_1.pdb
 24 25 0 0 0
SMALL
GASTEIGER

@<TRIPOS>ATOM
      1  C1        19.9390   10.5710   28.4700 C.ar  1008  T441008    -0.0191
      2  C2        21.1460   10.1870   27.8620 C.ar  1008  T441008     0.0047
      3  C3        21.3810   10.3590   26.4820 C.ar  1008  T441008     0.0647
      4  C4        20.3590   10.9500   25.6550 C.ar  1008  T441008     0.1558
      5  C5        19.1670   11.3290   26.2560 C.ar  1008  T441008     0.0647
      6  C6        18.9280   11.1580   27.6480 C.ar  1008  T441008     0.0047
      7  C7        19.7550   10.3650   29.9740 C.3   1008  T441008     0.0570
      8  C8        20.0590    8.9880   30.5470 C.3   1008  T441008     0.1986
      9  C9        20.2560    8.9390   32.0910 C.2   1008  T441008     0.3822
     10  C1'       21.2590   12.2440   23.7610 C.ar  1008  T441008     0.1464
     11  C2'       21.4640   12.2220   22.3660 C.ar  1008  T441008     0.0465
     12  C3'       22.1220   13.3170   21.7680 C.ar  1008  T441008     0.0724
     13  C4'       22.6000   14.4820   22.5190 C.ar  1008  T441008     0.2064
     14  C5'       22.3470   14.4070   23.9110 C.ar  1008  T441008     0.0724
     15  C6'       21.6970   13.3410   24.5500 C.ar  1008  T441008     0.0465
     16  N8        18.9170    8.0720   30.2060 N.3   1008  T441008    -0.1205
     17  O4        20.5960   11.1190   24.2950 O.3   1008  T441008    -0.4526
     18  O4'       23.2050   15.4860   21.9370 O.3   1008  T441008    -0.2857
     19  O9        19.5000    9.6380   32.7860 O.co2 1008  T441008    -0.2440
     20  O10       21.1510    8.2040   32.5210 O.co2 1008  T441008    -0.2440
     21  I3        23.2130    9.7650   25.6740 I     1008  T441008    -0.0393
     22  I3'       22.4340   13.3230   19.6990 I     1008  T441008    -0.0391
     23  I5        17.6480   12.2010   25.0820 I     1008  T441008    -0.0393
     24  I5'       22.9680   15.9870   25.1110 I     1008  T441008    -0.0391
@<TRIPOS>BOND
     1    22    12    1
     2    12    11   ar
     3    12    13   ar
     4    18    13    1
     5    11    10   ar
     6    13    14   ar
     7    10    17    1
     8    10    15   ar
     9    14    15   ar
    10    14    24    1
    11    17     4    1
    12    23     5    1
    13     4     5   ar
    14     4     3   ar
    15    21     3    1
    16     5     6   ar
    17     3     2   ar
    18     6     1   ar
    19     2     1   ar
    20     1     7    1
    21     7     8    1
    22    16     8    1
    23     8     9    1
    24     9    20   ar
    25     9    19   ar
