@<TRIPOS>MOLECULE
1hk4_MYR_A_1.pdb
 15 14 0 0 0
SMALL
GASTEIGER

@<TRIPOS>ATOM
      1  C1        29.3610   12.2180   35.8760 C.2   1001  MYR1001     0.3649
      2  O1        28.6940   11.1780   36.0740 O.co2 1001  MYR1001    -0.2457
      3  O2        28.8580   13.3630   35.8960 O.co2 1001  MYR1001    -0.2457
      4  C2        30.8630   12.0900   35.6010 C.3   1001  MYR1001     0.1141
      5  C3        31.6430   11.9260   36.9130 C.3   1001  MYR1001     0.0118
      6  C4        31.8790   13.3520   37.4170 C.3   1001  MYR1001     0.0006
      7  C5        33.3310   13.7650   37.2720 C.3   1001  MYR1001     0.0000
      8  C6        33.4840   15.2710   37.1420 C.3   1001  MYR1001     0.0000
      9  C7        34.1980   15.6120   35.8450 C.3   1001  MYR1001     0.0000
     10  C8        35.6880   15.8400   36.0610 C.3   1001  MYR1001     0.0000
     11  C9        36.3750   16.3350   34.7940 C.3   1001  MYR1001     0.0000
     12  C10       36.9280   15.1880   33.9720 C.3   1001  MYR1001     0.0000
     13  C11       37.6760   15.6940   32.7580 C.3   1001  MYR1001     0.0000
     14  C12       37.7720   14.6340   31.6630 C.3   1001  MYR1001     0.0000
     15  C13       36.4630   14.4850   30.8800 C.3   1001  MYR1001     0.0000
@<TRIPOS>BOND
     1    15    14    1
     2    14    13    1
     3    13    12    1
     4    12    11    1
     5    11    10    1
     6     4     1    1
     7     4     5    1
     8     9    10    1
     9     9     8    1
    10     1     3   ar
    11     1     2   ar
    12     5     6    1
    13     8     7    1
    14     7     6    1
