@<TRIPOS>MOLECULE
1hk5_MYR_A_1.pdb
 14 13 0 0 0
SMALL
GASTEIGER

@<TRIPOS>ATOM
      1  C1        29.5780   12.4830   36.3990 C.2   1001  MYR1001     0.3649
      2  O1        28.8800   11.5380   36.8280 O.co2 1001  MYR1001    -0.2457
      3  O2        29.1170   13.6250   36.1930 O.co2 1001  MYR1001    -0.2457
      4  C2        31.0670   12.2380   36.1210 C.3   1001  MYR1001     0.1141
      5  C3        31.8750   12.1910   37.4290 C.3   1001  MYR1001     0.0118
      6  C4        32.1520   13.6580   37.7850 C.3   1001  MYR1001     0.0006
      7  C5        33.6400   13.9330   37.9700 C.3   1001  MYR1001     0.0000
      8  C6        33.9850   15.3990   37.7130 C.3   1001  MYR1001     0.0000
      9  C7        34.5150   15.6130   36.2950 C.3   1001  MYR1001     0.0000
     10  C8        36.0380   15.6540   36.2470 C.3   1001  MYR1001     0.0000
     11  C9        36.5590   16.1250   34.8860 C.3   1001  MYR1001     0.0000
     12  C10       37.2190   15.0010   34.0870 C.3   1001  MYR1001     0.0000
     13  C11       37.8290   15.5100   32.7710 C.3   1001  MYR1001     0.0000
     14  C12       37.1620   14.8870   31.5290 C.3   1001  MYR1001     0.0000
@<TRIPOS>BOND
     1    14    13    1
     2    13    12    1
     3    12    11    1
     4    11    10    1
     5     4     1    1
     6     4     5    1
     7     3     1   ar
     8    10     9    1
     9     9     8    1
    10     1     2   ar
    11     5     6    1
    12     8     7    1
    13     6     7    1
