@<TRIPOS>MOLECULE
1hk5_T44_A_1.pdb
 24 25 0 0 0
SMALL
GASTEIGER

@<TRIPOS>ATOM
      1  C1        20.1330   10.6090   28.6660 C.ar  1008  T441008    -0.0191
      2  C2        21.3270   10.1840   28.0590 C.ar  1008  T441008     0.0047
      3  C3        21.5560   10.3250   26.6700 C.ar  1008  T441008     0.0647
      4  C4        20.5570   10.9130   25.8390 C.ar  1008  T441008     0.1558
      5  C5        19.3850   11.3270   26.4330 C.ar  1008  T441008     0.0647
      6  C6        19.1360   11.1940   27.8270 C.ar  1008  T441008     0.0047
      7  C7        19.9460   10.4410   30.1810 C.3   1008  T441008     0.0570
      8  C8        20.1380    9.0470   30.7770 C.3   1008  T441008     0.1986
      9  C9        19.8630    8.9210   32.3160 C.2   1008  T441008     0.3822
     10  C1'       21.4480   12.2100   23.9490 C.ar  1008  T441008     0.1464
     11  C2'       21.6110   12.2340   22.5600 C.ar  1008  T441008     0.0465
     12  C3'       22.2530   13.3490   21.9790 C.ar  1008  T441008     0.0724
     13  C4'       22.7570   14.4910   22.7330 C.ar  1008  T441008     0.2064
     14  C5'       22.5470   14.3770   24.1240 C.ar  1008  T441008     0.0724
     15  C6'       21.9120   13.2880   24.7570 C.ar  1008  T441008     0.0465
     16  N8        19.2120    8.0910   30.0630 N.3   1008  T441008    -0.1205
     17  O4        20.7970   11.0580   24.4730 O.3   1008  T441008    -0.4526
     18  O4'       23.3510   15.5100   22.1520 O.3   1008  T441008    -0.2857
     19  O9        18.8240    9.4440   32.7560 O.co2 1008  T441008    -0.2440
     20  O10       20.7020    8.3070   32.9980 O.co2 1008  T441008    -0.2440
     21  I3        23.3470    9.6790   25.8460 I     1008  T441008    -0.0393
     22  I3'       22.5010   13.3930   19.9130 I     1008  T441008    -0.0391
     23  I5        17.9040   12.1940   25.2380 I     1008  T441008    -0.0393
     24  I5'       23.2150   15.9280   25.3310 I     1008  T441008    -0.0391
@<TRIPOS>BOND
     1    22    12    1
     2    12    11   ar
     3    12    13   ar
     4    18    13    1
     5    11    10   ar
     6    13    14   ar
     7    10    17    1
     8    10    15   ar
     9    14    15   ar
    10    14    24    1
    11    17     4    1
    12    23     5    1
    13     4     5   ar
    14     4     3   ar
    15    21     3    1
    16     5     6   ar
    17     3     2   ar
    18     6     1   ar
    19     2     1   ar
    20     1     7    1
    21    16     8    1
    22     7     8    1
    23     8     9    1
    24     9    19   ar
    25     9    20   ar
