@<TRIPOS>MOLECULE
1hk8_DGT_A_1.pdb
 31 33 0 0 0
SMALL
GASTEIGER

@<TRIPOS>ATOM
      1  PG        43.9840   39.6950   63.0310 P.3   1587  DGT1587     0.5373
      2  O1G       42.5780   39.3310   63.6240 O.3   1587  DGT1587    -0.1143
      3  O2G       45.1110   39.2790   64.0770 O.3   1587  DGT1587    -0.1143
      4  O3G       44.1300   38.9460   61.6390 O.2   1587  DGT1587    -0.2221
      5  O3B       44.1350   41.2760   62.7870 O.3   1587  DGT1587    -0.2258
      6  PB        42.9830   42.1620   62.0560 P.3   1587  DGT1587     0.2277
      7  O1B       43.7430   43.1150   61.0010 O.2   1587  DGT1587    -0.5168
      8  O2B       41.8950   41.1570   61.4800 O.3   1587  DGT1587    -0.4368
      9  O3A       42.3340   43.1920   63.1730 O.3   1587  DGT1587    -0.2700
     10  PA        41.6690   42.8240   64.5850 P.3   1587  DGT1587     0.2189
     11  O1A       41.4880   41.2440   64.7170 O.2   1587  DGT1587    -0.5170
     12  O2A       42.4940   43.3330   65.8230 O.3   1587  DGT1587    -0.4371
     13  O5'       40.1870   43.4420   64.6060 O.3   1587  DGT1587    -0.3112
     14  C5'       39.3150   43.4280   65.7480 C.3   1587  DGT1587     0.1812
     15  C4'       38.1030   44.3060   65.4170 C.3   1587  DGT1587     0.1772
     16  O4'       38.5170   45.6250   65.0020 O.3   1587  DGT1587    -0.3347
     17  C3'       37.3790   43.6960   64.2500 C.3   1587  DGT1587     0.1857
     18  O3'       35.9820   43.7070   64.5750 O.3   1587  DGT1587    -0.2203
     19  C2'       37.5380   44.6440   63.0960 C.3   1587  DGT1587     0.0865
     20  C1'       38.1820   45.9010   63.6320 C.3   1587  DGT1587     0.1981
     21  N9        39.3670   46.4480   62.9400 N.pl3 1587  DGT1587    -0.2374
     22  C8        40.4550   45.8480   62.3870 C.3   1587  DGT1587     0.2245
     23  N7        41.3580   46.7660   61.8900 N.2   1587  DGT1587    -0.2322
     24  C5        40.8340   47.9880   62.1610 C.2   1587  DGT1587     0.2182
     25  C6        41.1270   49.4300   61.9860 C.1   1587  DGT1587     0.2372
     26  O6        42.1790   49.7890   61.4250 O.2   1587  DGT1587    -0.2069
     27  N1        40.2790   50.3650   62.4080 N.2   1587  DGT1587    -0.2485
     28  C2        39.1180   50.0810   63.0180 C.1   1587  DGT1587     0.2531
     29  N2        38.3250   51.0930   63.4310 N.pl3 1587  DGT1587    -0.0226
     30  N3        38.7260   48.8150   63.2550 N.2   1587  DGT1587    -0.3074
     31  C4        39.5780   47.7420   62.8160 C.2   1587  DGT1587     0.2299
@<TRIPOS>BOND
     1     7     6    2
     2    26    25    2
     3     8     6    1
     4     4     1    2
     5    23    24    2
     6    23    22    1
     7    25    24    1
     8    25    27    2
     9     6     5    1
    10     6     9    1
    11    24    31    1
    12    22    21    1
    13    27    28    2
    14     5     1    1
    15    31    21    1
    16    31    30    2
    17    21    20    1
    18    28    30    2
    19    28    29    1
    20     1     2    1
    21     1     3    1
    22    19    20    1
    23    19    17    1
    24     9    10    1
    25    20    16    1
    26    17    18    1
    27    17    15    1
    28    10    13    1
    29    10    11    2
    30    10    12    1
    31    13    14    1
    32    16    15    1
    33    15    14    1
