@<TRIPOS>MOLECULE
1hkb_BGC_A_1.pdb
 12 12 0 0 0
SMALL
GASTEIGER

@<TRIPOS>ATOM
      1  C2        43.1510  -14.5760    7.1970 C.3   918  BGC918      0.2434
      2  C3        41.8010  -15.0060    7.7890 C.3   918  BGC918      0.2199
      3  C4        40.8750  -15.6810    6.7660 C.3   918  BGC918      0.2144
      4  C5        41.6250  -16.6820    5.8670 C.3   918  BGC918      0.1836
      5  C6        40.7740  -17.2000    4.7230 C.3   918  BGC918      0.2142
      6  C1        43.6990  -15.6270    6.2670 C.3   918  BGC918      0.3024
      7  O1        44.8330  -15.1600    5.6400 O.3   918  BGC918     -0.1869
      8  O2        44.0790  -14.3750    8.2510 O.3   918  BGC918     -0.2148
      9  O3        41.1440  -13.8620    8.3090 O.3   918  BGC918     -0.2174
     10  O4        39.8580  -16.3730    7.4670 O.3   918  BGC918     -0.2176
     11  O5        42.7830  -16.0590    5.2790 O.3   918  BGC918     -0.3236
     12  O6        40.5220  -16.1750    3.7700 O.3   918  BGC918     -0.2176
@<TRIPOS>BOND
     1    12     5    1
     2     5     4    1
     3    11     4    1
     4    11     6    1
     5     7     6    1
     6     4     3    1
     7     6     1    1
     8     3    10    1
     9     3     2    1
    10     1     2    1
    11     1     8    1
    12     2     9    1
