@<TRIPOS>MOLECULE
1hkb_G6P_A_1.pdb
 16 16 0 0 0
SMALL
GASTEIGER

@<TRIPOS>ATOM
      1  C1        36.0830  -16.6910    1.3570 C.3   919  G6P919      0.3024
      2  C2        34.8890  -16.4400    0.4330 C.3   919  G6P919      0.2434
      3  C3        34.4370  -17.7340   -0.2520 C.3   919  G6P919      0.2199
      4  C4        35.6160  -18.4800   -0.8820 C.3   919  G6P919      0.2143
      5  C5        36.7740  -18.6320    0.1240 C.3   919  G6P919      0.1808
      6  C6        38.0230  -19.1990   -0.5280 C.3   919  G6P919      0.1859
      7  O1        36.5650  -15.4760    1.8250 O.3   919  G6P919     -0.1869
      8  O2        33.8110  -15.9070    1.1920 O.3   919  G6P919     -0.2148
      9  O3        33.4880  -17.4210   -1.2630 O.3   919  G6P919     -0.2174
     10  O4        35.1820  -19.7640   -1.3080 O.3   919  G6P919     -0.2176
     11  O5        37.1480  -17.3410    0.6550 O.3   919  G6P919     -0.3237
     12  O6        38.5610  -18.2640   -1.4590 O.3   919  G6P919     -0.2675
     13  P         39.9380  -18.5380   -2.2340 P.3   919  G6P919      0.5327
     14  O1P       40.4400  -19.9100   -1.9940 O.3   919  G6P919     -0.1145
     15  O2P       41.0260  -17.6300   -1.8240 O.3   919  G6P919     -0.1145
     16  O3P       39.7910  -18.3490   -3.6900 O.2   919  G6P919     -0.2224
@<TRIPOS>BOND
     1    16    13    2
     2    13    14    1
     3    13    15    1
     4    13    12    1
     5    12     6    1
     6    10     4    1
     7     9     3    1
     8     4     3    1
     9     4     5    1
    10     6     5    1
    11     3     2    1
    12     5    11    1
    13     2     8    1
    14     2     1    1
    15    11     1    1
    16     1     7    1
