@<TRIPOS>MOLECULE
1hkc_BGC_A_1.pdb
 12 12 0 0 0
SMALL
GASTEIGER

@<TRIPOS>ATOM
      1  C2       -12.3260  124.3010    3.2540 C.3   918  BGC918      0.2434
      2  C3       -11.8930  124.3920    4.7200 C.3   918  BGC918      0.2199
      3  C4       -11.3690  123.0410    5.2540 C.3   918  BGC918      0.2144
      4  C5       -10.4310  122.3280    4.2550 C.3   918  BGC918      0.1836
      5  C6       -10.1580  120.8770    4.6320 C.3   918  BGC918      0.2142
      6  C1       -11.2220  123.6530    2.4380 C.3   918  BGC918      0.3024
      7  O1       -11.6150  123.5710    1.1160 O.3   918  BGC918     -0.1869
      8  O2       -12.5760  125.5980    2.7450 O.3   918  BGC918     -0.2148
      9  O3       -12.9950  124.8150    5.5140 O.3   918  BGC918     -0.2174
     10  O4       -10.6520  123.2720    6.4600 O.3   918  BGC918     -0.2176
     11  O5       -10.9950  122.3260    2.9250 O.3   918  BGC918     -0.3236
     12  O6       -11.3260  120.0710    4.5290 O.3   918  BGC918     -0.2176
@<TRIPOS>BOND
     1     7     6    1
     2     6    11    1
     3     6     1    1
     4     8     1    1
     5    11     4    1
     6     1     2    1
     7     4     5    1
     8     4     3    1
     9    12     5    1
    10     2     3    1
    11     2     9    1
    12     3    10    1
