@<TRIPOS>MOLECULE
1hkd_GYP_A_1.pdb
 13 13 0 0 0
SMALL
GASTEIGER

@<TRIPOS>ATOM
      1  C1       -15.5900   48.0450  -16.0220 C.3   1184  GYP1184     0.2695
      2  C2       -14.3450   48.2820  -15.1710 C.3   1184  GYP1184     0.2406
      3  C3       -13.2600   47.2530  -15.4860 C.3   1184  GYP1184     0.2198
      4  C4       -13.8260   45.8420  -15.3510 C.3   1184  GYP1184     0.2144
      5  C5       -15.1230   45.6900  -16.1440 C.3   1184  GYP1184     0.1835
      6  C6       -15.7580   44.3280  -15.9130 C.3   1184  GYP1184     0.2142
      7  C7       -16.5020   48.2220  -18.2280 C.3   1184  GYP1184     0.1769
      8  O1       -15.3130   48.2550  -17.4180 O.3   1184  GYP1184    -0.3259
      9  O2       -13.8240   49.6020  -15.3900 O.3   1184  GYP1184    -0.2149
     10  O3       -12.1530   47.4340  -14.5870 O.3   1184  GYP1184    -0.2174
     11  O4       -12.8630   44.9160  -15.8650 O.3   1184  GYP1184    -0.2176
     12  O5       -16.0680   46.7110  -15.8000 O.3   1184  GYP1184    -0.3256
     13  O6       -16.2690   44.2570  -14.5800 O.3   1184  GYP1184    -0.2176
@<TRIPOS>BOND
     1     7     8    1
     2     8     1    1
     3     5     6    1
     4     5    12    1
     5     5     4    1
     6     1    12    1
     7     1     2    1
     8     6    13    1
     9    11     4    1
    10     3     4    1
    11     3     2    1
    12     3    10    1
    13     9     2    1
