@<TRIPOS>MOLECULE
1hki_NA1_A_1.pdb
 15 15 0 0 0
SMALL
GASTEIGER

@<TRIPOS>ATOM
      1  C1         0.9780   61.6450   -1.8740 C.3   1387  NA11387     0.1665
      2  C2        -0.4520   61.8930   -2.3890 C.3   1387  NA11387     0.1576
      3  C3        -1.2670   60.5920   -2.3370 C.3   1387  NA11387     0.2069
      4  C4        -0.5350   59.4900   -3.1070 C.3   1387  NA11387     0.2133
      5  C5         0.8860   59.3250   -2.5460 C.3   1387  NA11387     0.1775
      6  C6         1.6310   58.2120   -3.2980 C.3   1387  NA11387     0.1743
      7  C7        -1.4200   64.1520   -2.0910 C.2   1387  NA11387     0.2420
      8  C8        -2.0770   65.1250   -1.1040 C.3   1387  NA11387     0.0964
      9  N2        -1.0980   62.9570   -1.5810 N.am  1387  NA11387    -0.2019
     10  O3        -1.4180   60.1920   -0.9750 O.3   1387  NA11387    -0.2184
     11  O4        -1.2430   58.2540   -2.9880 O.3   1387  NA11387    -0.2176
     12  O5         1.6040   60.5900   -2.6630 O.3   1387  NA11387    -0.3491
     13  O6         3.0180   58.1000   -2.8700 O.3   1387  NA11387    -0.3484
     14  C9         3.1080   57.6330   -1.5110 C.3   1387  NA11387     0.1742
     15  O7        -1.2270   64.4780   -3.2610 O.2   1387  NA11387    -0.2733
@<TRIPOS>BOND
     1     6    13    1
     2     6     5    1
     3    15     7    2
     4     4    11    1
     5     4     5    1
     6     4     3    1
     7    13    14    1
     8    12     5    1
     9    12     1    1
    10     2     3    1
    11     2     1    1
    12     2     9    1
    13     3    10    1
    14     7     9   am
    15     7     8    1
