@<TRIPOS>MOLECULE
1hki_ALI_A_1.pdb
 14 15 0 0 0
SMALL
GASTEIGER

@<TRIPOS>ATOM
      1  C1         8.8560   66.6080    1.7230 C.3   1389  ALI1389     0.1987
      2  C2         7.5160   67.3780    1.7140 C.3   1389  ALI1389     0.1804
      3  C3         6.4380   66.3270    1.4640 C.3   1389  ALI1389     0.2082
      4  C4         7.1220   65.3140    0.5530 C.3   1389  ALI1389     0.1902
      5  C5         8.4350   65.2060    1.2870 C.3   1389  ALI1389     0.1081
      6  C6         9.5200   64.4130    0.5460 C.3   1389  ALI1389     0.1883
      7  C7         8.4620   67.4310    3.7760 C.2   1389  ALI1389     0.2998
      8  C8         9.8450   67.2220    5.7560 C.3   1389  ALI1389     0.1403
      9  N2         7.4610   67.9030    3.0660 N.2   1389  ALI1389    -0.2186
     10  N7         8.6970   67.7920    5.0350 N.pl3 1389  ALI1389    -0.1866
     11  O3         5.3460   66.9410    0.7630 O.3   1389  ALI1389    -0.2182
     12  O4         6.4930   64.0370    0.4940 O.3   1389  ALI1389    -0.2201
     13  O6         9.7930   65.0410   -0.7010 O.3   1389  ALI1389    -0.2202
     14  O7         9.2750   66.5720    3.1190 O.2   1389  ALI1389    -0.4504
@<TRIPOS>BOND
     1    13     6    1
     2    12     4    1
     3     6     5    1
     4     4     5    1
     5     4     3    1
     6    11     3    1
     7     5     1    1
     8     3     2    1
     9     2     1    1
    10     2     9    1
    11     1    14    1
    12     9     7    2
    13    14     7    1
    14     7    10    1
    15    10     8    1
