@<TRIPOS>MOLECULE
1hkj_NA1_A_1.pdb
 15 15 0 0 0
SMALL
GASTEIGER

@<TRIPOS>ATOM
      1  C1         0.7700   61.5540   -2.1230 C.3   1387  NA11387     0.1665
      2  C2        -0.6440   61.7040   -2.6760 C.3   1387  NA11387     0.1576
      3  C3        -1.3800   60.3760   -2.6480 C.3   1387  NA11387     0.2069
      4  C4        -0.5310   59.3040   -3.3630 C.3   1387  NA11387     0.2133
      5  C5         0.8580   59.2270   -2.7150 C.3   1387  NA11387     0.1775
      6  C6         1.7190   58.1550   -3.3960 C.3   1387  NA11387     0.1743
      7  C7        -1.4260   64.0030   -2.3490 C.2   1387  NA11387     0.2420
      8  C8        -2.1470   64.9810   -1.4090 C.3   1387  NA11387     0.0964
      9  N2        -1.3310   62.7410   -1.8960 N.am  1387  NA11387    -0.2019
     10  O3        -1.5920   60.0040   -1.2940 O.3   1387  NA11387    -0.2184
     11  O4        -1.1690   58.0220   -3.3070 O.3   1387  NA11387    -0.2176
     12  O5         1.4990   60.5170   -2.8210 O.3   1387  NA11387    -0.3491
     13  O6         3.0690   58.1200   -2.8550 O.3   1387  NA11387    -0.3484
     14  C9         3.0680   57.7650   -1.4640 C.3   1387  NA11387     0.1742
     15  O7        -1.0120   64.3770   -3.4560 O.2   1387  NA11387    -0.2733
@<TRIPOS>BOND
     1    15     7    2
     2     6    13    1
     3     6     5    1
     4     4    11    1
     5     4     5    1
     6     4     3    1
     7    13    14    1
     8    12     5    1
     9    12     1    1
    10     2     3    1
    11     2     1    1
    12     2     9    1
    13     3    10    1
    14     7     9   am
    15     7     8    1
