@<TRIPOS>MOLECULE
1hkj_AMI_A_1.pdb
 15 16 0 0 0
SMALL
GASTEIGER

@<TRIPOS>ATOM
      1  C1         8.6170   66.6900    1.0410 C.3   1389  AMI1389     0.1987
      2  C2         7.2370   67.3860    1.0800 C.3   1389  AMI1389     0.1803
      3  C3         6.2000   66.2900    0.7770 C.3   1389  AMI1389     0.2082
      4  C4         6.9390   65.2840   -0.1190 C.3   1389  AMI1389     0.1902
      5  C5         8.2580   65.2600    0.6310 C.3   1389  AMI1389     0.1081
      6  C6         9.3770   64.4890   -0.0700 C.3   1389  AMI1389     0.1883
      7  C7         8.2200   67.4220    3.1490 C.2   1389  AMI1389     0.2833
      8  C8         7.4750   68.5390    5.1980 C.3   1389  AMI1389     0.1166
      9  C9         9.6560   67.2370    5.1170 C.3   1389  AMI1389     0.1166
     10  N2         7.1590   67.8300    2.4680 N.2   1389  AMI1389    -0.2198
     11  N7         8.4440   67.7280    4.4410 N.pl3 1389  AMI1389    -0.2607
     12  O3         5.1160   66.8670    0.0420 O.3   1389  AMI1389    -0.2182
     13  O4         6.3620   63.9650   -0.1640 O.3   1389  AMI1389    -0.2201
     14  O6         9.5740   65.0100   -1.3790 O.3   1389  AMI1389    -0.2202
     15  O7         9.1030   66.6900    2.4290 O.2   1389  AMI1389    -0.4514
@<TRIPOS>BOND
     1    14     6    1
     2    13     4    1
     3     4     5    1
     4     4     3    1
     5     6     5    1
     6    12     3    1
     7     5     1    1
     8     3     2    1
     9     1     2    1
    10     1    15    1
    11     2    10    1
    12    15     7    1
    13    10     7    2
    14     7    11    1
    15    11     9    1
    16    11     8    1
