@<TRIPOS>MOLECULE
1hkk_AMI_A_1.pdb
 15 16 0 0 0
SMALL
GASTEIGER

@<TRIPOS>ATOM
      1  C1         8.5580   67.6390    0.2700 C.3   1388  AMI1388     0.1987
      2  C2         7.1820   68.3720    0.3020 C.3   1388  AMI1388     0.1803
      3  C3         6.1470   67.2730    0.0450 C.3   1388  AMI1388     0.2082
      4  C4         6.8430   66.3050   -0.9120 C.3   1388  AMI1388     0.1902
      5  C5         8.1940   66.2240   -0.2160 C.3   1388  AMI1388     0.1081
      6  C6         9.2960   65.5640   -1.0820 C.3   1388  AMI1388     0.1883
      7  C7         8.1430   68.3670    2.3680 C.2   1388  AMI1388     0.2833
      8  C8         7.3550   69.4470    4.4150 C.3   1388  AMI1388     0.1166
      9  C9         9.5360   68.1280    4.3590 C.3   1388  AMI1388     0.1166
     10  N2         7.1130   68.8400    1.6730 N.2   1388  AMI1388    -0.2198
     11  N7         8.3270   68.6240    3.6710 N.pl3 1388  AMI1388    -0.2607
     12  O3         4.9740   67.8330   -0.5540 O.3   1388  AMI1388    -0.2182
     13  O4         6.3020   64.9960   -0.9770 O.3   1388  AMI1388    -0.2201
     14  O6         9.5290   66.3560   -2.2650 O.3   1388  AMI1388    -0.2202
     15  O7         8.9970   67.5680    1.6600 O.2   1388  AMI1388    -0.4514
@<TRIPOS>BOND
     1    14     6    1
     2     6     5    1
     3    13     4    1
     4     4     5    1
     5     4     3    1
     6    12     3    1
     7     5     1    1
     8     3     2    1
     9     1     2    1
    10     1    15    1
    11     2    10    1
    12    15     7    1
    13    10     7    2
    14     7    11    1
    15    11     9    1
    16    11     8    1
