@<TRIPOS>MOLECULE
1hkm_ALI_A_1.pdb
 14 15 0 0 0
SMALL
GASTEIGER

@<TRIPOS>ATOM
      1  C1         8.7940   66.6060    1.2020 C.3   1389  ALI1389     0.1989
      2  C2         7.4200   67.3200    1.1560 C.3   1389  ALI1389     0.1806
      3  C3         6.3880   66.2290    0.8630 C.3   1389  ALI1389     0.2082
      4  C4         7.1310   65.1950    0.0180 C.3   1389  ALI1389     0.1902
      5  C5         8.4580   65.1770    0.7670 C.3   1389  ALI1389     0.1081
      6  C6         9.5920   64.5070   -0.0160 C.3   1389  ALI1389     0.1883
      7  C7         8.2880   67.4100    3.2590 C.2   1389  ALI1389     0.3156
      8  C8         9.4440   67.3110    5.2600 C.2   1389  ALI1389     0.1244
      9  N2         7.2880   67.8280    2.5110 N.2   1389  ALI1389    -0.2160
     10  N7         8.4220   67.7550    4.5450 N.2   1389  ALI1389    -0.1914
     11  O3         5.3080   66.7820    0.1060 O.3   1389  ALI1389    -0.2182
     12  O4         6.5510   63.8720   -0.0350 O.3   1389  ALI1389    -0.2201
     13  O6         9.8250   65.2140   -1.2280 O.3   1389  ALI1389    -0.2202
     14  O7         9.1870   66.6130    2.6140 O.2   1389  ALI1389    -0.4484
@<TRIPOS>BOND
     1    13     6    1
     2    12     4    1
     3     6     5    1
     4     4     5    1
     5     4     3    1
     6    11     3    1
     7     5     1    1
     8     3     2    1
     9     2     1    1
    10     2     9    1
    11     1    14    1
    12     9     7    2
    13    14     7    1
    14     7    10    1
    15    10     8    2
