@<TRIPOS>MOLECULE
1hkn_N2M_C_1.pdb
 15 16 0 0 0
SMALL
GASTEIGER

@<TRIPOS>ATOM
      1  S         14.8990   21.5260   84.2130 S.3   4138  N2M4138     0.0421
      2  O1S       15.5390   22.5800   85.4830 O.3   4138  N2M4138    -0.0650
      3  O2S       14.9930   22.5030   82.7830 O.3   4138  N2M4138    -0.0650
      4  O3S       13.1860   21.4790   84.6090 O.3   4138  N2M4138    -0.0650
      5  C1        16.1640   19.2010   84.7670 C.ar  4138  N2M4138     0.0189
      6  C2        15.4030   19.8710   83.8790 C.ar  4138  N2M4138     0.1123
      7  C3        15.0430   19.2210   82.7210 C.ar  4138  N2M4138     0.0189
      8  C4        15.4650   17.8620   82.4570 C.ar  4138  N2M4138     0.0027
      9  C5        16.6530   15.8650   83.1040 C.ar  4138  N2M4138     0.0891
     10  C6        17.4180   15.1730   83.9810 C.ar  4138  N2M4138     0.0181
     11  C7        17.8130   15.7810   85.1730 C.ar  4138  N2M4138     0.0014
     12  C8        17.3960   17.1450   85.4550 C.ar  4138  N2M4138     0.0001
     13  C9        16.5960   17.8840   84.5520 C.ar  4138  N2M4138     0.0026
     14  C10       16.2180   17.2090   83.3390 C.ar  4138  N2M4138     0.0168
     15  N         16.1410   15.0960   81.5700 N.pl3 4138  N2M4138    -0.1281
@<TRIPOS>BOND
     1    15     9    1
     2     8     7   ar
     3     8    14   ar
     4     7     6   ar
     5     3     1    1
     6     9    14   ar
     7     9    10   ar
     8    14    13   ar
     9     6     1    1
    10     6     5   ar
    11    10    11   ar
    12     1     4    1
    13     1     2    1
    14    13     5   ar
    15    13    12   ar
    16    11    12   ar
