@<TRIPOS>MOLECULE
1hku_NAD_A_1.pdb
 44 48 0 0 0
SMALL
GASTEIGER

@<TRIPOS>ATOM
      1  PA         3.9830   24.8760   26.4610 P.3   600  NAD600      0.2189
      2  O1A        2.7200   24.1350   26.3470 O.3   600  NAD600     -0.4371
      3  O2A        4.9000   25.4510   25.4140 O.2   600  NAD600     -0.5170
      4  O5B        4.1640   25.5490   27.8900 O.3   600  NAD600     -0.3112
      5  C5B        3.1970   25.5160   28.9820 C.3   600  NAD600      0.1813
      6  C4B        3.9730   25.1060   30.2150 C.3   600  NAD600      0.1821
      7  O4B        2.9970   25.1300   31.3190 O.3   600  NAD600     -0.3135
      8  C3B        4.5310   23.6250   30.2450 C.3   600  NAD600      0.2184
      9  O3B        5.9900   23.6100   30.4120 O.3   600  NAD600     -0.2174
     10  C2B        3.7970   22.9440   31.3920 C.3   600  NAD600      0.2570
     11  O2B        4.4500   21.9230   32.0530 O.3   600  NAD600     -0.2130
     12  C1B        3.4460   24.1680   32.2280 C.3   600  NAD600      0.3186
     13  N9A        2.3530   23.9240   33.1420 N.pl3 600  NAD600     -0.1439
     14  C8A        1.1560   23.2390   33.0460 C.3   600  NAD600      0.3377
     15  N7A        0.4410   23.2690   34.1590 N.2   600  NAD600     -0.2095
     16  C5A        1.1420   23.9860   35.0560 C.2   600  NAD600      0.2526
     17  C6A        0.8890   24.3740   36.4550 C.2   600  NAD600      0.4393
     18  N6A       -0.1960   24.0320   37.1190 N.pl3 600  NAD600      0.2180
     19  N1A        1.8950   25.1430   37.0300 N.2   600  NAD600      0.0021
     20  C2A        3.0270   25.5330   36.4200 C.3   600  NAD600      0.5254
     21  N3A        3.3150   25.1890   35.0960 N.2   600  NAD600     -0.0055
     22  C4A        2.3400   24.4120   34.4490 C.2   600  NAD600      0.3518
     23  O3         3.1280   26.2340   26.0700 O.3   600  NAD600     -0.2703
     24  PN         3.6660   27.6830   25.5180 P.3   600  NAD600      0.2189
     25  O1N        4.2990   28.5740   26.4990 O.3   600  NAD600     -0.4371
     26  O2N        3.1110   28.0290   24.1910 O.2   600  NAD600     -0.5170
     27  O5D        2.3430   28.3020   26.2400 O.3   600  NAD600     -0.3112
     28  C5D        0.9990   27.9260   25.8050 C.3   600  NAD600      0.1813
     29  C4D       -0.0690   28.4920   26.6660 C.3   600  NAD600      0.1799
     30  O4D       -0.0650   29.9860   26.6630 O.3   600  NAD600     -0.3327
     31  C3D       -1.4620   28.0650   26.1360 C.3   600  NAD600      0.2158
     32  O3D       -1.9330   26.8880   26.7740 O.3   600  NAD600     -0.2175
     33  C2D       -2.3400   29.2930   26.4330 C.3   600  NAD600      0.2309
     34  O2D       -2.9610   29.1910   27.6900 O.3   600  NAD600     -0.2158
     35  C1D       -1.3610   30.5190   26.2510 C.3   600  NAD600      0.2263
     36  N1N       -1.3980   31.0210   24.8220 N.pl3 600  NAD600     -0.2787
     37  C2N       -2.0920   32.2790   24.6700 C.3   600  NAD600      0.1244
     38  C3N       -1.7310   33.2810   23.8750 C.2   600  NAD600      0.0544
     39  C7N       -2.5500   34.5780   23.7660 C.2   600  NAD600      0.2818
     40  O7N       -2.8280   34.9850   22.6260 O.2   600  NAD600     -0.2670
     41  N7N       -2.9070   35.2580   24.8610 N.am  600  NAD600     -0.0839
     42  C4N       -0.4970   33.2190   23.0150 C.2   600  NAD600      0.0033
     43  C5N        0.2770   31.9350   23.1740 C.2   600  NAD600      0.0157
     44  C6N       -0.1750   30.9210   24.0460 C.2   600  NAD600      0.0633
@<TRIPOS>BOND
     1    40    39    2
     2    42    43    1
     3    42    38    2
     4    43    44    2
     5    39    38    1
     6    39    41   am
     7    38    37    1
     8    44    36    1
     9    26    24    2
    10    37    36    1
    11    36    35    1
    12     3     1    2
    13    24    23    1
    14    24    27    1
    15    24    25    1
    16    28    27    1
    17    28    29    1
    18    23     1    1
    19    31    33    1
    20    31    29    1
    21    31    32    1
    22    35    33    1
    23    35    30    1
    24     2     1    1
    25    33    34    1
    26     1     4    1
    27    30    29    1
    28     4     5    1
    29     5     6    1
    30     6     8    1
    31     6     7    1
    32     8     9    1
    33     8    10    1
    34     7    12    1
    35    10    11    1
    36    10    12    1
    37    12    13    1
    38    14    13    1
    39    14    15    1
    40    13    22    1
    41    15    16    2
    42    22    16    1
    43    22    21    2
    44    16    17    1
    45    21    20    1
    46    20    19    1
    47    17    19    2
    48    17    18    1
