@<TRIPOS>MOLECULE
1hkv_PLP_A_1.pdb
 15 15 0 0 0
SMALL
GASTEIGER

@<TRIPOS>ATOM
      1  N1        65.5030   41.2550  227.5440 N.ar  500  PLP500     -0.2452
      2  C2        65.2210   40.2670  228.4990 C.ar  500  PLP500      0.0978
      3  C2A       66.0860   40.1420  229.7230 C.3   500  PLP500      0.0555
      4  C3        64.1580   39.4080  228.3330 C.ar  500  PLP500      0.2049
      5  O3        63.9350   38.4520  229.2880 O.3   500  PLP500     -0.2857
      6  C4        63.3710   39.4940  227.1800 C.ar  500  PLP500      0.0182
      7  C4A       62.3030   38.5970  227.0050 C.3   500  PLP500      0.0342
      8  C5        63.6410   40.4730  226.2090 C.ar  500  PLP500      0.0261
      9  C6        64.7190   41.3550  226.3870 C.ar  500  PLP500      0.0965
     10  C5A       62.7610   40.6200  224.9620 C.3   500  PLP500      0.1815
     11  O4P       61.3820   40.8650  225.1980 O.3   500  PLP500     -0.2653
     12  P         60.3600   41.3960  224.0570 P.3   500  PLP500      0.5329
     13  O1P       59.1240   41.7990  224.7570 O.3   500  PLP500     -0.1145
     14  O2P       59.9910   40.2290  223.1620 O.2   500  PLP500     -0.2224
     15  O3P       60.8480   42.6590  223.3250 O.3   500  PLP500     -0.1145
@<TRIPOS>BOND
     1    14    12    2
     2    15    12    1
     3    12    13    1
     4    12    11    1
     5    10    11    1
     6    10     8    1
     7     8     9   ar
     8     8     6   ar
     9     9     1   ar
    10     7     6    1
    11     6     4   ar
    12     1     2   ar
    13     4     2   ar
    14     4     5    1
    15     2     3    1
