@<TRIPOS>MOLECULE
1hkv_LYS_A_1.pdb
 10 9 0 0 0
SMALL
GASTEIGER

@<TRIPOS>ATOM
      1  N         52.7100   38.9550  229.2580 N.3   501  LYS501     -0.1208
      2  CA        53.5420   39.1260  228.0630 C.3   501  LYS501      0.1943
      3  C         52.6890   39.4040  226.7960 C.2   501  LYS501      0.3819
      4  O         52.0650   40.4730  226.6850 O.co2 501  LYS501     -0.2441
      5  CB        54.5020   37.8940  227.8520 C.3   501  LYS501      0.0307
      6  CG        56.0120   38.1850  228.1920 C.3   501  LYS501      0.0036
      7  CD        57.0030   37.3330  227.3620 C.3   501  LYS501      0.0206
      8  CE        58.4770   37.2680  228.0190 C.3   501  LYS501      0.1093
      9  NZ        58.7700   38.1990  229.2470 N.3   501  LYS501     -0.1314
     10  OXT       52.6270   38.5730  225.8650 O.co2 501  LYS501     -0.2441
@<TRIPOS>BOND
     1    10     3   ar
     2     4     3   ar
     3     3     2    1
     4     7     8    1
     5     7     6    1
     6     5     2    1
     7     5     6    1
     8     8     9    1
     9     2     1    1
