@<TRIPOS>MOLECULE
1hkx_TBR_A_1.pdb
 18 17 0 0 0
SMALL
GASTEIGER

@<TRIPOS>ATOM
      1 TA1        -5.5970   -0.7380   33.6080 Ta    2000  TBR2000     0.0000
      2 TA2        -3.2510   -2.5050   33.1060 Ta    2000  TBR2000     0.0000
      3 TA3        -3.7370   -0.1020   31.4120 Ta    2000  TBR2000     0.0000
      4 TA4        -1.5000   -0.0860   33.2880 Ta    2000  TBR2000     0.0000
      5 TA5        -3.8180    1.6710   33.7940 Ta    2000  TBR2000     0.0000
      6 TA6        -3.3380   -0.7260   35.5310 Ta    2000  TBR2000     0.0000
      7 BR1        -5.7610   -3.3770   33.2200 Br    2000  TBR2000     0.0000
      8 BR2        -6.3630   -0.4360   31.1150 Br    2000  TBR2000     0.0000
      9 BR3        -6.4320    1.7510   34.0720 Br    2000  TBR2000     0.0000
     10 BR4        -5.8380   -1.2060   36.2100 Br    2000  TBR2000     0.0000
     11 BR5        -3.4430   -2.5960   30.4900 Br    2000  TBR2000     0.0000
     12 BR6        -1.3420    2.5380   33.6600 Br    2000  TBR2000     0.0000
     13 BR7        -0.7450   -0.3830   35.7750 Br    2000  TBR2000     0.0000
     14 BR8        -0.6770   -2.5720   32.8380 Br    2000  TBR2000     0.0000
     15 BR9        -3.6400    1.7490   36.4480 Br    2000  TBR2000     0.0000
     16 BRA        -2.9300   -3.3710   35.5960 Br    2000  TBR2000     0.0000
     17 BRB        -1.2700    0.3770   30.6830 Br    2000  TBR2000     0.0000
     18 BRC        -4.1280    2.5470   31.2960 Br    2000  TBR2000     0.0000
@<TRIPOS>BOND
     1    11     2    1
     2    17     3    1
     3     8     1    1
     4    18     5    1
     5     3     4    1
     6     3     1    1
     7    14     2    1
     8     2     7    1
     9     2    16    1
    10     4     5    1
    11     4    13    1
    12     1     6    1
    13    12     5    1
    14     5     9    1
    15     5     6    1
    16     6    10    1
    17     6    15    1
