@<TRIPOS>MOLECULE
1hl3_NAD_A_1.pdb
 44 48 0 0 0
SMALL
GASTEIGER

@<TRIPOS>ATOM
      1  PA         2.7820   23.3750   26.2090 P.3   600  NAD600      0.2189
      2  O1A        1.4630   22.7250   26.3710 O.3   600  NAD600     -0.4371
      3  O2A        3.5600   23.7730   25.0030 O.2   600  NAD600     -0.5170
      4  O5B        3.1220   24.2380   27.5150 O.3   600  NAD600     -0.3112
      5  C5B        2.3230   24.1700   28.7420 C.3   600  NAD600      0.1813
      6  C4B        3.1840   23.5810   29.8370 C.3   600  NAD600      0.1821
      7  O4B        2.3140   23.5530   31.0320 O.3   600  NAD600     -0.3135
      8  C3B        3.6380   22.0870   29.6440 C.3   600  NAD600      0.2184
      9  O3B        5.0950   21.9980   29.6510 O.3   600  NAD600     -0.2174
     10  C2B        2.9800   21.2900   30.7660 C.3   600  NAD600      0.2570
     11  O2B        3.6720   20.2040   31.2910 O.3   600  NAD600     -0.2130
     12  C1B        2.6480   22.4030   31.7780 C.3   600  NAD600      0.3186
     13  N9A        1.4730   22.0970   32.5830 N.pl3 600  NAD600     -0.1439
     14  C8A        0.3100   21.3630   32.3460 C.3   600  NAD600      0.3377
     15  N7A       -0.5220   21.3380   33.3760 N.2   600  NAD600     -0.2095
     16  C5A        0.0420   22.0610   34.3550 C.2   600  NAD600      0.2526
     17  C6A       -0.3760   22.4000   35.7280 C.2   600  NAD600      0.4393
     18  N6A       -1.5180   21.9960   36.2450 N.pl3 600  NAD600      0.2180
     19  N1A        0.5280   23.1920   36.4300 N.2   600  NAD600      0.0021
     20  C2A        1.7090   23.6390   35.9640 C.3   600  NAD600      0.5254
     21  N3A        2.1560   23.3430   34.6690 N.2   600  NAD600     -0.0055
     22  C4A        1.2950   22.5450   33.8990 C.2   600  NAD600      0.3518
     23  O3         1.9030   24.6650   25.7730 O.3   600  NAD600     -0.2703
     24  PN         2.2150   26.1750   25.1660 P.3   600  NAD600      0.2189
     25  O1N        2.2990   26.0790   23.7000 O.2   600  NAD600     -0.5170
     26  O2N        3.3880   26.7050   25.9300 O.3   600  NAD600     -0.4371
     27  O5D        0.8330   26.9420   25.5390 O.3   600  NAD600     -0.3112
     28  C5D        0.4930   27.1890   26.9390 C.3   600  NAD600      0.1813
     29  C4D       -0.8870   27.7220   27.0580 C.3   600  NAD600      0.1799
     30  O4D       -1.1390   28.7460   26.0000 O.3   600  NAD600     -0.3327
     31  C3D       -2.0180   26.6500   26.8570 C.3   600  NAD600      0.2158
     32  O3D       -2.9810   26.7230   27.9250 O.3   600  NAD600     -0.2175
     33  C2D       -2.6620   27.0180   25.5090 C.3   600  NAD600      0.2309
     34  O2D       -3.9900   26.5820   25.3980 O.3   600  NAD600     -0.2158
     35  C1D       -2.4770   28.5780   25.4770 C.3   600  NAD600      0.2263
     36  N1N       -2.5860   29.1750   24.0940 N.pl3 600  NAD600     -0.2787
     37  C2N       -3.2680   30.4470   24.1130 C.3   600  NAD600      0.1244
     38  C3N       -2.8570   31.5510   23.4850 C.2   600  NAD600      0.0544
     39  C7N       -3.6600   32.8320   23.5760 C.2   600  NAD600      0.2818
     40  O7N       -4.1970   33.2670   22.5340 O.2   600  NAD600     -0.2670
     41  N7N       -3.7740   33.4580   24.7530 N.am  600  NAD600     -0.0839
     42  C4N       -1.5840   31.6010   22.6540 C.2   600  NAD600      0.0033
     43  C5N       -0.8390   30.2810   22.6200 C.2   600  NAD600      0.0157
     44  C6N       -1.3480   29.1460   23.3210 C.2   600  NAD600      0.0633
@<TRIPOS>BOND
     1    40    39    2
     2    43    42    1
     3    43    44    2
     4    42    38    2
     5    44    36    1
     6    38    39    1
     7    38    37    1
     8    39    41   am
     9    25    24    2
    10    36    37    1
    11    36    35    1
    12     3     1    2
    13    24    27    1
    14    24    23    1
    15    24    26    1
    16    34    33    1
    17    35    33    1
    18    35    30    1
    19    33    31    1
    20    27    28    1
    21    23     1    1
    22    30    29    1
    23     1     2    1
    24     1     4    1
    25    31    29    1
    26    31    32    1
    27    28    29    1
    28     4     5    1
    29     5     6    1
    30     8     9    1
    31     8     6    1
    32     8    10    1
    33     6     7    1
    34    10    11    1
    35    10    12    1
    36     7    12    1
    37    12    13    1
    38    14    13    1
    39    14    15    1
    40    13    22    1
    41    15    16    2
    42    22    16    1
    43    22    21    2
    44    16    17    1
    45    21    20    1
    46    17    18    1
    47    17    19    2
    48    20    19    1
