@<TRIPOS>MOLECULE
1hl7_BD1_A_1.pdb
 10 11 0 0 0
SMALL
GASTEIGER

@<TRIPOS>ATOM
      1  C1       111.1980   12.4060   80.7430 C.2   1280  BD11280    -0.0280
      2  C2       109.7750   12.9410   80.7710 C.3   1280  BD11280     0.0579
      3  C3       109.2730   13.2130   82.1970 C.3   1280  BD11280     0.1520
      4  O3       109.5180   14.5690   82.6030 O.3   1280  BD11280    -0.3050
      5  C4       109.9810   12.3690   83.2520 C.3   1280  BD11280     0.1520
      6  O4       111.0220   13.2260   83.7590 O.3   1280  BD11280    -0.3050
      7  C5       110.5100   11.0690   82.6410 C.3   1280  BD11280     0.0579
      8  C6       111.5670   11.4790   81.6440 C.2   1280  BD11280    -0.0280
      9  C7       110.7880   14.5820   83.3060 C.3   1280  BD11280     0.4022
     10  O1       110.7480   15.5180   84.4080 O.3   1280  BD11280    -0.1561
@<TRIPOS>BOND
     1     1     2    1
     2     1     8    2
     3     2     3    1
     4     8     7    1
     5     3     4    1
     6     3     5    1
     7     4     9    1
     8     7     5    1
     9     5     6    1
    10     9     6    1
    11     9    10    1
