@<TRIPOS>MOLECULE
1hl9_FUF_A_1.pdb
 11 11 0 0 0
SMALL
GASTEIGER

@<TRIPOS>ATOM
      1  C1       -18.4540   19.7810   57.0810 C.3   1449  FUF1449     0.3045
      2  C2       -17.7400   20.0190   58.4280 C.3   1449  FUF1449     0.2524
      3  C3       -18.6640   20.8220   59.3770 C.3   1449  FUF1449     0.2220
      4  C4       -20.0060   20.0890   59.5580 C.3   1449  FUF1449     0.2120
      5  C5       -20.6070   19.8380   58.1580 C.3   1449  FUF1449     0.1509
      6  C6       -21.9340   19.0670   58.1900 C.3   1449  FUF1449     0.0350
      7  O1       -17.6490   19.0170   56.2090 O.3   1449  FUF1449    -0.1867
      8  F2       -16.5160   20.7220   58.1940 F     1449  FUF1449    -0.2289
      9  O3       -18.0660   20.9440   60.6520 O.3   1449  FUF1449    -0.2172
     10  O4       -19.8100   18.8410   60.2190 O.3   1449  FUF1449    -0.2177
     11  O5       -19.6820   19.1130   57.3490 O.3   1449  FUF1449    -0.3262
@<TRIPOS>BOND
     1     7     1    1
     2     1    11    1
     3     1     2    1
     4    11     5    1
     5     5     6    1
     6     5     4    1
     7     8     2    1
     8     2     3    1
     9     3     4    1
    10     3     9    1
    11     4    10    1
