@<TRIPOS>MOLECULE
1hlb_HEM_A_1.pdb
 43 50 0 0 0
SMALL
GASTEIGER

@<TRIPOS>ATOM
      1  CHA       19.9550   25.3180    5.3410 C.2   158  HEM158      0.0000
      2  CHB       16.2940   25.1620    8.4120 C.2   158  HEM158      0.0000
      3  CHC       16.3340   20.3910    8.3510 C.2   158  HEM158      0.0000
      4  CHD       20.1460   20.5380    5.5070 C.2   158  HEM158      0.0000
      5  C1A       18.9360   25.7460    6.1960 C.2   158  HEM158      0.0000
      6  C2A       18.5610   27.0620    6.4170 C.2   158  HEM158      0.0000
      7  C3A       17.6730   27.0220    7.4970 C.2   158  HEM158      0.0000
      8  C4A       17.3510   25.6820    7.6500 C.2   158  HEM158      0.0000
      9  CMA       17.2650   28.2020    8.3830 C.3   158  HEM158      0.0000
     10  CAA       19.1310   28.3000    5.7330 C.3   158  HEM158      0.0000
     11  CBA       18.1840   29.2550    5.0250 C.3   158  HEM158      0.0000
     12  CGA       18.8290   30.5850    4.6000 C.2   158  HEM158      0.0000
     13  O1A       18.0950   31.5900    4.5020 O.co2 158  HEM158      0.0000
     14  O2A       20.0510   30.6440    4.3550 O.co2 158  HEM158      0.0000
     15  C1B       15.9270   23.8280    8.6900 C.ar  158  HEM158      0.0000
     16  C2B       14.7830   23.4320    9.3720 C.ar  158  HEM158      0.0000
     17  C3B       14.8670   22.0350    9.4330 C.ar  158  HEM158      0.0000
     18  C4B       15.9750   21.6920    8.6920 C.ar  158  HEM158      0.0000
     19  CMB       13.7200   24.3680    9.9320 C.3   158  HEM158      0.0000
     20  CAB       14.0360   21.0750   10.0240 C.3   158  HEM158      0.0000
     21  CBB       12.7370   21.2950   10.6290 C.3   158  HEM158      0.0000
     22  C1C       17.4210   19.9590    7.5960 C.2   158  HEM158      0.0000
     23  C2C       17.7400   18.6360    7.3960 C.2   158  HEM158      0.0000
     24  C3C       18.8080   18.6640    6.4910 C.2   158  HEM158      0.0000
     25  C4C       19.1190   20.0060    6.3100 C.2   158  HEM158      0.0000
     26  CMC       17.0650   17.4810    8.1320 C.3   158  HEM158      0.0000
     27  CAC       19.5190   17.6250    5.8780 C.3   158  HEM158      0.0000
     28  CBC       19.4400   16.1990    6.1490 C.3   158  HEM158      0.0000
     29  C1D       20.5260   21.8740    5.2420 C.ar  158  HEM158      0.0000
     30  C2D       21.4940   22.2510    4.3330 C.ar  158  HEM158      0.0000
     31  C3D       21.6070   23.6420    4.4260 C.ar  158  HEM158      0.0000
     32  C4D       20.4910   24.0300    5.1790 C.ar  158  HEM158      0.0000
     33  CMD       22.3310   21.3040    3.4800 C.3   158  HEM158      0.0000
     34  CAD       22.8580   24.3950    3.9220 C.3   158  HEM158      0.0000
     35  CBD       22.9310   25.9120    3.8000 C.3   158  HEM158      0.0000
     36  CGD       22.0470   26.5810    2.7500 C.2   158  HEM158      0.0000
     37  O1D       21.2740   27.4730    3.1150 O.co2 158  HEM158      0.0000
     38  O2D       22.1630   26.2490    1.5680 O.co2 158  HEM158      0.0000
     39  NA        18.2080   24.9190    6.9640 N.2   158  HEM158      0.0000
     40  NB        16.6610   22.7760    8.3090 N.ar  158  HEM158      0.0000
     41  NC        18.2900   20.7800    7.0040 N.2   158  HEM158      0.0000
     42  ND        19.9630   22.9530    5.8030 N.ar  158  HEM158      0.0000
     43 FE         18.2620   22.8500    6.9920 Fe    158  HEM158      0.0000
@<TRIPOS>BOND
     1    38    36   ar
     2    36    37   ar
     3    36    35    1
     4    33    30    1
     5    35    34    1
     6    34    31    1
     7    30    31   ar
     8    30    29   ar
     9    14    12   ar
    10    31    32   ar
    11    13    12   ar
    12    12    11    1
    13    11    10    1
    14    32     1    2
    15    32    42   ar
    16    29     4    2
    17    29    42   ar
    18     1     5    1
    19     4    25    1
    20    10     6    1
    21    42    43    1
    22    27    28    1
    23    27    24    1
    24     5     6    1
    25     5    39    2
    26    25    24    1
    27    25    41    2
    28     6     7    2
    29    24    23    2
    30    39    43    1
    31    39     8    1
    32    43    41    1
    33    43    40    1
    34    41    22    1
    35    23    22    1
    36    23    26    1
    37     7     8    1
    38     7     9    1
    39    22     3    2
    40     8     2    2
    41    40    15   ar
    42    40    18   ar
    43     3    18    1
    44     2    15    1
    45    15    16   ar
    46    18    17   ar
    47    16    17   ar
    48    16    19    1
    49    17    20    1
    50    20    21    1
