@<TRIPOS>MOLECULE
1hlc_GAL_A_1.pdb
 11 11 0 0 0
SMALL
GASTEIGER

@<TRIPOS>ATOM
      1  C1        22.4380   13.3160   42.6530 C.3   998  GAL998      0.1777
      2  C2        23.2150   14.0890   43.7150 C.3   998  GAL998      0.2141
      3  C3        22.2330   14.6620   44.7490 C.3   998  GAL998      0.2173
      4  C4        21.1690   15.4870   44.0380 C.3   998  GAL998      0.2142
      5  C5        20.4800   14.6290   42.9800 C.3   998  GAL998      0.1810
      6  C6        19.4040   15.3490   42.1970 C.3   998  GAL998      0.2141
      7  O2        24.1470   13.2160   44.3410 O.3   998  GAL998     -0.2176
      8  O3        22.9140   15.4850   45.6830 O.3   998  GAL998     -0.2175
      9  O4        21.7810   16.6190   43.4300 O.3   998  GAL998     -0.2176
     10  O5        21.4530   14.1550   42.0350 O.3   998  GAL998     -0.3481
     11  O6        18.8230   14.4810   41.2410 O.3   998  GAL998     -0.2176
@<TRIPOS>BOND
     1    11     6    1
     2    10     1    1
     3    10     5    1
     4     6     5    1
     5     1     2    1
     6     5     4    1
     7     9     4    1
     8     2     7    1
     9     2     3    1
    10     4     3    1
    11     3     8    1
