@<TRIPOS>MOLECULE
1hlc_BGC_A_1.pdb
 12 12 0 0 0
SMALL
GASTEIGER

@<TRIPOS>ATOM
      1  C2        22.5700   11.8240   38.1100 C.3   999  BGC999      0.2434
      2  C3        23.1550   12.6820   39.2360 C.3   999  BGC999      0.2199
      3  C4        22.6700   12.1490   40.5890 C.3   999  BGC999      0.2144
      4  C5        22.9650   10.6480   40.7350 C.3   999  BGC999      0.1836
      5  C6        22.3990   10.0720   42.0350 C.3   999  BGC999      0.2142
      6  C1        22.8690   10.3290   38.3560 C.3   999  BGC999      0.3024
      7  O1        22.2250    9.5690   37.3910 O.3   999  BGC999     -0.1869
      8  O2        23.1040   12.2520   36.8590 O.3   999  BGC999     -0.2148
      9  O3        22.7330   14.0340   39.0660 O.3   999  BGC999     -0.2174
     10  O4        23.3030   12.8770   41.6640 O.3   999  BGC999     -0.2176
     11  O5        22.3660    9.9180   39.6410 O.3   999  BGC999     -0.3236
     12  O6        22.7470    8.7030   42.2080 O.3   999  BGC999     -0.2176
@<TRIPOS>BOND
     1     8     1    1
     2     7     6    1
     3     1     6    1
     4     1     2    1
     5     6    11    1
     6     9     2    1
     7     2     3    1
     8    11     4    1
     9     3     4    1
    10     3    10    1
    11     4     5    1
    12     5    12    1
