@<TRIPOS>MOLECULE
1hld_NAD_A_1.pdb
 44 48 0 0 0
SMALL
GASTEIGER

@<TRIPOS>ATOM
      1  PA        -4.7900   62.9640    4.6840 P.3   801  NAD801      0.2189
      2  O1A       -5.6850   63.6510    5.6050 O.3   801  NAD801     -0.4371
      3  O2A       -4.6240   63.5880    3.3770 O.2   801  NAD801     -0.5170
      4  O5B       -5.4160   61.4620    4.8500 O.3   801  NAD801     -0.3112
      5  C5B       -5.2520   60.3310    4.0230 C.3   801  NAD801      0.1813
      6  C4B       -6.5600   59.5710    3.8120 C.3   801  NAD801      0.1821
      7  O4B       -7.0150   58.7960    4.9180 O.3   801  NAD801     -0.3135
      8  C3B       -7.7500   60.4640    3.4400 C.3   801  NAD801      0.2184
      9  O3B       -8.0810   60.3960    2.0510 O.3   801  NAD801     -0.2174
     10  C2B       -8.9310   59.8840    4.2160 C.3   801  NAD801      0.2570
     11  O2B      -10.1890   59.8900    3.5200 O.3   801  NAD801     -0.2130
     12  C1B       -8.3710   58.5240    4.5460 C.3   801  NAD801      0.3186
     13  N9A       -9.1330   57.7650    5.5500 N.pl3 801  NAD801     -0.1439
     14  C8A       -9.4880   58.1530    6.7880 C.3   801  NAD801      0.3377
     15  N7A      -10.0530   57.1330    7.4580 N.2   801  NAD801     -0.2095
     16  C5A      -10.0240   56.1380    6.5860 C.2   801  NAD801      0.2526
     17  C6A      -10.4700   54.8520    6.8430 C.2   801  NAD801      0.4393
     18  N6A      -11.0240   54.5040    8.0030 N.pl3 801  NAD801      0.2180
     19  N1A      -10.3130   53.9950    5.8240 N.2   801  NAD801      0.0021
     20  C2A       -9.7820   54.3280    4.6430 C.3   801  NAD801      0.5254
     21  N3A       -9.3620   55.5670    4.4040 N.2   801  NAD801     -0.0055
     22  C4A       -9.4700   56.4910    5.3810 C.2   801  NAD801      0.3518
     23  O3        -3.3920   62.8480    5.3500 O.3   801  NAD801     -0.2703
     24  PN        -1.8960   62.8590    4.8820 P.3   801  NAD801      0.2189
     25  O1N       -1.3300   64.1990    5.0310 O.3   801  NAD801     -0.4371
     26  O2N       -1.7160   62.1820    3.5810 O.2   801  NAD801     -0.5170
     27  O5D       -1.2760   62.0260    6.1440 O.3   801  NAD801     -0.3112
     28  C5D       -1.6840   60.6670    6.4040 C.3   801  NAD801      0.1813
     29  C4D       -1.1710   60.1380    7.7380 C.3   801  NAD801      0.1799
     30  O4D        0.2570   60.1530    7.5980 O.3   801  NAD801     -0.3327
     31  C3D       -1.4840   61.0170    8.9430 C.3   801  NAD801      0.2158
     32  O3D       -1.7120   60.3000   10.1720 O.3   801  NAD801     -0.2175
     33  C2D       -0.2270   61.8550    9.0890 C.3   801  NAD801      0.2309
     34  O2D       -0.1070   62.4860   10.3700 O.3   801  NAD801     -0.2158
     35  C1D        0.7910   60.8020    8.7600 C.3   801  NAD801      0.2263
     36  N1N        2.1290   61.2720    8.4170 N.pl3 801  NAD801     -0.2787
     37  C2N        3.2380   60.5760    8.8900 C.3   801  NAD801      0.1244
     38  C3N        4.5190   60.9170    8.4670 C.2   801  NAD801      0.0544
     39  C7N        5.7320   60.1090    8.8880 C.2   801  NAD801      0.2818
     40  O7N        6.8280   60.6240    8.8040 O.2   801  NAD801     -0.2670
     41  N7N        5.5640   58.8780    9.3200 N.am  801  NAD801     -0.0839
     42  C4N        4.6770   61.9780    7.5790 C.2   801  NAD801      0.0033
     43  C5N        3.5640   62.6830    7.1150 C.2   801  NAD801      0.0157
     44  C6N        2.2860   62.3430    7.5240 C.2   801  NAD801      0.0633
@<TRIPOS>BOND
     1     9     8    1
     2     3     1    2
     3     8     6    1
     4     8    10    1
     5    11    10    1
     6    26    24    2
     7     6     5    1
     8     6     7    1
     9     5     4    1
    10    10    12    1
    11    21    20    1
    12    21    22    2
    13    12     7    1
    14    12    13    1
    15    20    19    1
    16     1     4    1
    17     1    23    1
    18     1     2    1
    19    24    25    1
    20    24    23    1
    21    24    27    1
    22    22    13    1
    23    22    16    1
    24    13    14    1
    25    19    17    2
    26    27    28    1
    27    28    29    1
    28    16    17    1
    29    16    15    2
    30    14    15    1
    31    17    18    1
    32    43    44    2
    33    43    42    1
    34    44    36    1
    35    42    38    2
    36    30    29    1
    37    30    35    1
    38    29    31    1
    39    36    35    1
    40    36    37    1
    41    38    39    1
    42    38    37    1
    43    35    33    1
    44    40    39    2
    45    39    41   am
    46    31    33    1
    47    31    32    1
    48    33    34    1
