@<TRIPOS>MOLECULE
1hld_PFB_A_1.pdb
 13 13 0 0 0
SMALL
GASTEIGER

@<TRIPOS>ATOM
      1  C1         5.1440   64.0330   11.3140 C.ar  1001  PFB1001     0.0701
      2  C2         5.2420   62.7510   11.8790 C.ar  1001  PFB1001     0.1704
      3  C3         5.1320   62.5930   13.2600 C.ar  1001  PFB1001     0.1968
      4  C4         4.9180   63.6880   14.0740 C.ar  1001  PFB1001     0.1991
      5  C5         4.8160   64.9440   13.4760 C.ar  1001  PFB1001     0.1968
      6  C6         4.9280   65.1170   12.1210 C.ar  1001  PFB1001     0.1704
      7  C7         5.3890   64.2770    9.9190 C.3   1001  PFB1001     0.2132
      8  F2         5.4820   61.7000   11.1360 F     1001  PFB1001    -0.2019
      9  F3         5.2940   61.4170   13.7950 F     1001  PFB1001    -0.1993
     10  F4         4.8820   63.5620   15.3960 F     1001  PFB1001    -0.1993
     11  F5         4.6650   65.9920   14.2240 F     1001  PFB1001    -0.1993
     12  F6         4.8900   66.3090   11.5920 F     1001  PFB1001    -0.2019
     13  O1         4.1950   64.7480    9.3320 O.3   1001  PFB1001    -0.2150
@<TRIPOS>BOND
     1    13     7    1
     2     7     1    1
     3     8     2    1
     4     1     2   ar
     5     1     6   ar
     6    12     6    1
     7     2     3   ar
     8     6     5   ar
     9     3     9    1
    10     3     4   ar
    11     5     4   ar
    12     5    11    1
    13     4    10    1
