@<TRIPOS>MOLECULE
1hlf_PLP_A_1.pdb
 15 15 0 0 0
SMALL
GASTEIGER

@<TRIPOS>ATOM
      1  N1        24.6910   25.6770   30.3020 N.ar  999  PLP999     -0.2452
      2  C2        23.5620   24.9610   30.5170 C.ar  999  PLP999      0.0978
      3  C2A       22.5130   25.5390   31.4600 C.3   999  PLP999      0.0555
      4  C3        23.3340   23.7980   29.8040 C.ar  999  PLP999      0.2049
      5  O3        22.1880   23.0490   30.0010 O.3   999  PLP999     -0.2857
      6  C4        24.2550   23.3810   28.8760 C.ar  999  PLP999      0.0182
      7  C4A       24.0000   22.0290   28.0510 C.3   999  PLP999      0.0342
      8  C5        25.4020   24.1560   28.6760 C.ar  999  PLP999      0.0261
      9  C6        25.5900   25.2940   29.4020 C.ar  999  PLP999      0.0965
     10  C5A       26.4440   23.8600   27.5130 C.3   999  PLP999      0.1815
     11  O4P       26.0150   24.5630   26.3100 O.3   999  PLP999     -0.2653
     12  P         27.0170   24.8420   25.0310 P.3   999  PLP999      0.5329
     13  O1P       26.1360   25.4820   24.0680 O.2   999  PLP999     -0.2224
     14  O2P       28.0820   25.9570   25.5070 O.3   999  PLP999     -0.1145
     15  O3P       27.7510   23.6020   24.7090 O.3   999  PLP999     -0.1145
@<TRIPOS>BOND
     1    13    12    2
     2    15    12    1
     3    12    14    1
     4    12    11    1
     5    11    10    1
     6    10     8    1
     7     7     6    1
     8     8     6   ar
     9     8     9   ar
    10     6     4   ar
    11     9     1   ar
    12     4     5    1
    13     4     2   ar
    14     1     2   ar
    15     2     3    1
