@<TRIPOS>MOLECULE
1hlf_GL4_A_1.pdb
 17 18 0 0 0
SMALL
GASTEIGER

@<TRIPOS>ATOM
      1  C1        33.9140   22.7470   27.8160 C.3   998  GL4998      0.3233
      2  C2        33.9590   23.1090   26.2940 C.3   998  GL4998      0.2483
      3  O2        34.0230   24.5300   26.1100 O.3   998  GL4998     -0.2143
      4  C3        32.6840   22.5620   25.5680 C.3   998  GL4998      0.2204
      5  O3        32.8740   22.7290   24.1700 O.3   998  GL4998     -0.2174
      6  C4        32.4650   21.0480   25.8970 C.3   998  GL4998      0.2145
      7  O4        31.2700   20.6050   25.3200 O.3   998  GL4998     -0.2176
      8  C5        32.4260   20.8230   27.4610 C.3   998  GL4998      0.1840
      9  C6        32.3420   19.3660   27.8420 C.3   998  GL4998      0.2142
     10  O6        33.4520   18.6970   27.2850 O.3   998  GL4998     -0.2176
     11  O5        33.6310   21.3600   28.0650 O.3   998  GL4998     -0.3201
     12  N2        35.2420   23.1450   28.3750 N.2   998  GL4998     -0.1603
     13  C8        35.0320   24.0940   29.2830 C.1   998  GL4998      0.1381
     14  S8        36.3110   24.7340   30.1710 S.2   998  GL4998      0.0448
     15  N1        33.7580   24.4600   29.4730 N.2   998  GL4998     -0.2713
     16  C7        33.0470   23.6770   28.6300 C.1   998  GL4998      0.2399
     17  O7        31.8210   23.7490   28.6050 O.2   998  GL4998     -0.2089
@<TRIPOS>BOND
     1     5     4    1
     2     7     6    1
     3     4     6    1
     4     4     2    1
     5     6     8    1
     6     3     2    1
     7     2     1    1
     8    10     9    1
     9     8     9    1
    10     8    11    1
    11     1    11    1
    12     1    12    1
    13     1    16    1
    14    12    13    2
    15    17    16    2
    16    16    15    2
    17    13    15    2
    18    13    14    2
