@<TRIPOS>MOLECULE
1hlk_113_A_1.pdb
 23 25 0 0 0
SMALL
GASTEIGER

@<TRIPOS>ATOM
      1  C1        -8.3060  -25.2130   16.7850 C.ar  2002  1132002     0.2375
      2  C2        -8.7670  -26.2360   15.9550 C.ar  2002  1132002     0.0829
      3  C3        -8.9710  -27.5030   16.4990 C.ar  2002  1132002     0.1514
      4  C4        -8.6530  -27.7580   17.8470 C.ar  2002  1132002     0.0831
      5  C5        -7.8630  -26.8110   18.5520 C.ar  2002  1132002     0.1278
      6  C6        -7.7670  -25.4980   18.0380 C.ar  2002  1132002     0.2408
      7  O8        -9.4950  -28.4970   15.7000 O.2   2002  1132002    -0.4575
      8  C9        -9.6990  -29.7770   16.1730 C.ar  2002  1132002     0.1290
      9  C10       -9.5880  -30.0980   17.4850 C.ar  2002  1132002     0.1029
     10  C11       -9.1800  -29.0070   18.4390 C.ar  2002  1132002     0.2022
     11  C12      -10.0500  -30.7850   15.1080 C.3   2002  1132002     0.0940
     12  C13       -9.7150  -32.2130   15.5650 C.3   2002  1132002     0.1257
     13  O14      -10.1670  -32.4430   16.9040 O.3   2002  1132002    -0.3290
     14  C15       -9.8730  -31.5190   17.9600 C.3   2002  1132002     0.2658
     15  O16       -7.1640  -24.4370   18.6950 O.3   2002  1132002    -0.2829
     16  O17       -8.3700  -23.8850   16.4150 O.3   2002  1132002    -0.2830
     17  C18       -7.1330  -27.1420   19.7910 C.2   2002  1132002     0.3912
     18  O19       -7.7360  -26.7540   20.9260 O.co2 2002  1132002    -0.2404
     19  O20       -8.8770  -32.0280   18.8460 O.3   2002  1132002    -0.3243
     20  C22       -7.6540  -32.5450   18.3690 C.3   2002  1132002     0.1772
     21  C26      -10.3340  -33.2880   14.6620 C.3   2002  1132002     0.0326
     22  O30       -6.0750  -27.7270   19.7820 O.co2 2002  1132002    -0.2404
     23  O31       -9.3190  -29.1950   19.6260 O.2   2002  1132002    -0.2865
@<TRIPOS>BOND
     1    21    12    1
     2    11    12    1
     3    11     8    1
     4    12    13    1
     5     7     8   ar
     6     7     3   ar
     7     2     3   ar
     8     2     1   ar
     9     8     9   ar
    10    16     1    1
    11     3     4   ar
    12     1     6   ar
    13    13    14    1
    14     9    14    1
    15     9    10   ar
    16     4    10   ar
    17     4     5   ar
    18    14    19    1
    19     6     5   ar
    20     6    15    1
    21    20    19    1
    22    10    23    2
    23     5    17    1
    24    22    17   ar
    25    17    18   ar
