@<TRIPOS>MOLECULE
1hlm_HEM_A_1.pdb
 43 50 0 0 0
SMALL
GASTEIGER

@<TRIPOS>ATOM
      1 FE         23.2940   33.0700    6.5990 Fe    159  HEM159      0.0000
      2  CHA       24.4330   32.8400    3.3360 C.2   159  HEM159      0.0000
      3  CHB       22.4240   29.7880    6.3430 C.2   159  HEM159      0.0000
      4  CHC       21.2890   33.3650    9.2750 C.2   159  HEM159      0.0000
      5  CHD       23.4700   36.4120    6.3310 C.2   159  HEM159      0.0000
      6  NA        23.4040   31.6010    5.0960 N.2   159  HEM159      0.0000
      7  C1A       24.0410   31.6470    3.9140 C.2   159  HEM159      0.0000
      8  C2A       24.2890   30.3880    3.3710 C.2   159  HEM159      0.0000
      9  C3A       23.4990   29.5410    4.1260 C.2   159  HEM159      0.0000
     10  C4A       23.0810   30.3020    5.2210 C.2   159  HEM159      0.0000
     11  CMA       23.2110   28.0710    3.8140 C.3   159  HEM159      0.0000
     12  CAA       25.2720   29.9680    2.2580 C.2   159  HEM159      0.0000
     13  CBA       26.7260   29.6240    2.7380 C.2   159  HEM159      0.0000
     14  CGA       27.7500   29.2120    1.6470 C.2   159  HEM159      0.0000
     15  O1A       28.1970   30.1110    0.9180 O.co2 159  HEM159      0.0000
     16  O2A       28.1350   28.0310    1.5790 O.co2 159  HEM159      0.0000
     17  NB        21.9480   31.8160    7.5500 N.ar  159  HEM159      0.0000
     18  C1B       21.9730   30.4820    7.4730 C.ar  159  HEM159      0.0000
     19  C2B       21.5850   29.8820    8.6710 C.ar  159  HEM159      0.0000
     20  C3B       20.9760   30.9040    9.3710 C.ar  159  HEM159      0.0000
     21  C4B       21.3960   32.0710    8.7430 C.ar  159  HEM159      0.0000
     22  CMB       21.9270   28.4660    9.1540 C.3   159  HEM159      0.0000
     23  CAB       20.1130   30.8430   10.4550 C.3   159  HEM159      0.0000
     24  CBB       19.5880   29.6530   11.0940 C.3   159  HEM159      0.0000
     25  NC        22.3340   34.6610    7.5260 N.2   159  HEM159      0.0000
     26  C1C       21.7350   34.5670    8.7270 C.2   159  HEM159      0.0000
     27  C2C       21.6570   35.7790    9.3770 C.2   159  HEM159      0.0000
     28  C3C       22.4300   36.6390    8.6210 C.2   159  HEM159      0.0000
     29  C4C       22.7490   35.9370    7.4450 C.2   159  HEM159      0.0000
     30  CMC       20.9170   36.0860   10.6640 C.3   159  HEM159      0.0000
     31  CAC       22.7800   37.9120    9.0740 C.3   159  HEM159      0.0000
     32  CBC       23.5830   38.9100    8.3810 C.3   159  HEM159      0.0000
     33  ND        23.9290   34.3810    5.1260 N.ar  159  HEM159      0.0000
     34  C1D       24.0250   35.7000    5.2630 C.ar  159  HEM159      0.0000
     35  C2D       24.7440   36.2510    4.2210 C.ar  159  HEM159      0.0000
     36  C3D       24.8380   35.2580    3.2430 C.ar  159  HEM159      0.0000
     37  C4D       24.3870   34.1160    3.8930 C.ar  159  HEM159      0.0000
     38  CMD       25.3780   37.6300    4.2110 C.3   159  HEM159      0.0000
     39  CAD       25.4680   35.3450    1.8390 C.3   159  HEM159      0.0000
     40  CBD       24.5870   34.9110    0.6610 C.3   159  HEM159      0.0000
     41  CGD       25.3120   34.4370   -0.6150 C.2   159  HEM159      0.0000
     42  O1D       25.2740   33.2400   -0.9110 O.co2 159  HEM159      0.0000
     43  O2D       25.8650   35.2430   -1.3730 O.co2 159  HEM159      0.0000
@<TRIPOS>BOND
     1    43    41   ar
     2    42    41   ar
     3    41    40    1
     4    40    39    1
     5    15    14   ar
     6    16    14   ar
     7    14    13    1
     8    39    36    1
     9    12    13    2
    10    12     8    1
    11    36    37   ar
    12    36    35   ar
    13     2    37    2
    14     2     7    1
    15     8     7    1
    16     8     9    2
    17    11     9    1
    18    37    33   ar
    19     7     6    2
    20     9    10    1
    21    38    35    1
    22    35    34   ar
    23     6    10    1
    24     6     1    1
    25    33    34   ar
    26    33     1    1
    27    10     3    2
    28    34     5    2
    29     5    29    1
    30     3    18    1
    31     1    25    1
    32     1    17    1
    33    29    25    2
    34    29    28    1
    35    18    17   ar
    36    18    19   ar
    37    25    26    1
    38    17    21   ar
    39    32    31    1
    40    28    31    1
    41    28    27    2
    42    19    22    1
    43    19    20   ar
    44    26     4    2
    45    26    27    1
    46    21     4    1
    47    21    20   ar
    48    20    23    1
    49    27    30    1
    50    23    24    1
