@<TRIPOS>MOLECULE
1hlt_0G6_H_1.pdb
 30 31 0 0 0
SMALL
GASTEIGER

@<TRIPOS>ATOM
      1  N          2.4330   35.2750   23.2940 N.3     1  0G61       -0.1227
      2  CA         1.0950   35.9350   23.2360 C.3     1  0G61        0.1725
      3  C          0.1230   35.0200   22.5350 C.2     1  0G61        0.2475
      4  O          0.1480   33.8160   22.7890 O.2     1  0G61       -0.2730
      5  CB         0.6900   36.2810   24.6470 C.3     1  0G61        0.0547
      6  CG        -0.6500   36.8560   24.9000 C.ar    1  0G61       -0.0202
      7  CD1       -0.9740   38.1130   24.4580 C.ar    1  0G61       -0.0042
      8  CD2       -1.5570   36.1740   25.6840 C.ar    1  0G61       -0.0042
      9  CE1       -2.2210   38.6820   24.7090 C.ar    1  0G61       -0.0003
     10  CE2       -2.8140   36.6820   25.9390 C.ar    1  0G61       -0.0003
     11  CZ        -3.1440   37.9570   25.4480 C.ar    1  0G61       -0.0000
     12  N1        -0.7240   35.6210   21.7260 N.am    1  0G61       -0.2492
     13  CA1       -1.7520   34.8060   21.0190 C.3     1  0G61        0.1619
     14  C1        -0.8960   33.7940   20.2310 C.2     1  0G61        0.2601
     15  O1         0.1430   34.2950   19.7380 O.2     1  0G61       -0.2715
     16  CB1       -2.6020   35.7410   20.2450 C.3     1  0G61        0.0570
     17  CG1       -2.1560   37.1080   20.5280 C.2     1  0G61       -0.0077
     18  CD        -0.8870   37.0120   21.3910 C.2     1  0G61        0.0634
     19  N2        -1.2300   32.5650   20.2690 N.am    1  0G61       -0.2032
     20  CA2       -0.9460   31.2200   19.9310 C.3     1  0G61        0.1257
     21  C2        -1.8550   30.5810   18.9550 C.3     1  0G61        0.1718
     22  O2        -1.2210   29.8870   17.8850 O.3     1  0G61       -0.2213
     23  CB2       -0.5130   30.2980   21.0630 C.3     1  0G61        0.0280
     24  CG2        0.9350   29.7650   21.0380 C.3     1  0G61        0.0488
     25  CD3        1.1290   28.9250   22.2580 C.3     1  0G61        0.2205
     26  NE         2.3300   29.3340   23.0110 N.pl3   1  0G61       -0.0865
     27  CZ1        2.8040   28.4080   23.9100 C.cat   1  0G61        0.5346
     28  NH1        2.1260   27.2680   24.0810 N.pl3   1  0G61        0.1354
     29  NH2        3.9290   28.6290   24.5940 N.pl3   1  0G61        0.1354
     30  C3        -2.9300   31.3820   18.2930 C.3     1  0G61        0.0373
@<TRIPOS>BOND
     1    22    21    1
     2    30    21    1
     3    21    20    1
     4    15    14    2
     5    20    19    1
     6    20    23    1
     7    14    19   am
     8    14    13    1
     9    16    17    1
    10    16    13    1
    11    17    18    2
    12    13    12    1
    13    24    23    1
    14    24    25    1
    15    18    12    1
    16    12     3   am
    17    25    26    1
    18     3     4    2
    19     3     2    1
    20    26    27    2
    21     2     1    1
    22     2     5    1
    23    27    28    1
    24    27    29    1
    25     7     9   ar
    26     7     6   ar
    27     5     6    1
    28     9    11   ar
    29     6     8   ar
    30    11    10   ar
    31     8    10   ar
