@<TRIPOS>MOLECULE
1hlu_ATP_A_1.pdb
 32 34 0 0 0
SMALL
GASTEIGER

@<TRIPOS>ATOM
      1  PG         7.4840   20.5890   64.0230 P.3     1  ATP1        0.5373
      2  O1G        8.8890   20.1490   63.9180 O.3     1  ATP1       -0.1143
      3  O2G        6.8680   20.3000   65.4300 O.3     1  ATP1       -0.1143
      4  O3G        7.1310   21.9910   63.7970 O.2     1  ATP1       -0.2221
      5  PB         4.9930   19.2890   62.7410 P.3     1  ATP1        0.2277
      6  O1B        5.0090   18.1270   61.7560 O.2     1  ATP1       -0.5168
      7  O2B        4.2560   20.5340   62.3530 O.3     1  ATP1       -0.4368
      8  O3B        6.5240   19.7440   63.0510 O.3     1  ATP1       -0.2258
      9  PA         3.4950   18.8510   65.4260 P.3     1  ATP1        0.2189
     10  O1A        2.1180   18.3560   65.0840 O.2     1  ATP1       -0.5170
     11  O2A        3.5820   20.1800   66.0590 O.3     1  ATP1       -0.4371
     12  O3A        4.5090   18.6940   64.1630 O.3     1  ATP1       -0.2700
     13  O5'        4.1450   17.8420   66.4980 O.3     1  ATP1       -0.3112
     14  C5'        3.4010   16.6760   66.9300 C.3     1  ATP1        0.1813
     15  C4'        4.3210   15.4870   67.0940 C.3     1  ATP1        0.1820
     16  O4'        3.8030   14.6500   68.1590 O.3     1  ATP1       -0.3136
     17  C3'        4.4010   14.5500   65.8850 C.3     1  ATP1        0.2149
     18  O3'        5.5810   13.7650   65.7740 O.3     1  ATP1       -0.2176
     19  C2'        3.1830   13.6560   66.0860 C.3     1  ATP1        0.2171
     20  O2'        3.4100   12.3610   65.5530 O.3     1  ATP1       -0.3762
     21  C1'        3.0780   13.5610   67.6230 C.3     1  ATP1        0.3150
     22  N9         1.6940   13.6790   68.0570 N.pl3   1  ATP1       -0.1440
     23  C8         0.6950   14.3830   67.4330 C.3     1  ATP1        0.3377
     24  N7        -0.4860   14.2530   67.9820 N.2     1  ATP1       -0.2095
     25  C5        -0.2480   13.3980   69.0480 C.2     1  ATP1        0.2526
     26  C6        -1.1210   12.8720   70.0240 C.2     1  ATP1        0.4393
     27  N6        -2.4370   13.1120   70.0550 N.pl3   1  ATP1        0.2180
     28  N1        -0.5740   12.0580   70.9530 N.2     1  ATP1        0.0021
     29  C2         0.7460   11.7990   70.9020 C.3     1  ATP1        0.5254
     30  N3         1.6510   12.2360   70.0340 N.2     1  ATP1       -0.0055
     31  C4         1.0800   13.0440   69.1220 C.2     1  ATP1        0.3518
     32 HO2'        2.6280   11.8180   65.6770 H       1  ATP1        0.2107
@<TRIPOS>BOND
     1     6     5    2
     2     7     5    1
     3     5     8    1
     4     5    12    1
     5     8     1    1
     6     4     1    2
     7     2     1    1
     8     1     3    1
     9    12     9    1
    10    10     9    2
    11     9    11    1
    12     9    13    1
    13    20    32    1
    14    20    19    1
    15    18    17    1
    16    17    19    1
    17    17    15    1
    18    19    21    1
    19    13    14    1
    20    14    15    1
    21    15    16    1
    22    23    24    1
    23    23    22    1
    24    21    22    1
    25    21    16    1
    26    24    25    2
    27    22    31    1
    28    25    31    1
    29    25    26    1
    30    31    30    2
    31    26    27    1
    32    26    28    2
    33    30    29    1
    34    29    28    1
