@<TRIPOS>MOLECULE
1hm9_UD1_A_1.pdb
 39 41 0 0 0
SMALL
GASTEIGER

@<TRIPOS>ATOM
      1  C1'       25.2320   43.0200  -44.3680 C.3   1500  UD11500     0.2633
      2  C2'       25.3880   42.7060  -45.8670 C.3   1500  UD11500     0.1845
      3  C3'       24.2950   43.4100  -46.6270 C.3   1500  UD11500     0.2094
      4  C4'       22.9570   42.9360  -46.1430 C.3   1500  UD11500     0.2136
      5  C5'       22.7930   43.2220  -44.7940 C.3   1500  UD11500     0.1834
      6  C6'       21.4220   42.6770  -44.3090 C.3   1500  UD11500     0.2142
      7  C7'       27.8400   42.4460  -46.2060 C.2   1500  UD11500     0.2420
      8  C8'       29.1010   43.0520  -46.7750 C.3   1500  UD11500     0.0964
      9  N2'       26.7350   43.1600  -46.3670 N.am  1500  UD11500    -0.1992
     10  O1'       25.4670   44.4310  -44.2740 O.3   1500  UD11500    -0.2864
     11  O3'       24.4760   43.0920  -48.0050 O.3   1500  UD11500    -0.2183
     12  O4'       21.9230   43.6160  -46.8760 O.3   1500  UD11500    -0.2176
     13  O5'       23.8760   42.6310  -43.9760 O.3   1500  UD11500    -0.3260
     14  O6'       21.3560   42.6440  -42.8850 O.3   1500  UD11500    -0.2176
     15  O7'       27.8920   41.3610  -45.6440 O.2   1500  UD11500    -0.2733
     16  N1        30.1760   40.6240  -38.6170 N.am  1500  UD11500    -0.1766
     17  C2        31.2270   39.8720  -38.0980 C.1   1500  UD11500     0.2845
     18  N3        32.4780   40.2910  -38.3430 N.2   1500  UD11500    -0.2452
     19  C4        32.8240   41.3710  -39.0400 C.1   1500  UD11500     0.2182
     20  C5        31.7580   42.2240  -39.6210 C.2   1500  UD11500     0.1242
     21  C6        30.4610   41.8650  -39.4140 C.2   1500  UD11500     0.0929
     22  O2        31.1090   38.8540  -37.4450 O.2   1500  UD11500    -0.1918
     23  O4        34.0000   41.6370  -39.1940 O.2   1500  UD11500    -0.2085
     24  C1B       28.8020   40.1910  -38.3760 C.3   1500  UD11500     0.2401
     25  C2B       27.9530   41.1550  -37.5110 C.3   1500  UD11500     0.2319
     26  O2'       28.0970   40.7650  -36.1250 O.3   1500  UD11500    -0.2157
     27  C3B       26.5290   41.0330  -38.1340 C.3   1500  UD11500     0.2158
     28  C4B       26.7970   40.4770  -39.5710 C.3   1500  UD11500     0.1799
     29  O4B       28.1370   40.0230  -39.6110 O.3   1500  UD11500    -0.3320
     30  O3B       25.7790   40.0700  -37.4080 O.3   1500  UD11500    -0.2175
     31  C5B       26.7060   41.5420  -40.6840 C.3   1500  UD11500     0.1813
     32  O5B       27.4730   42.6990  -40.3580 O.3   1500  UD11500    -0.3112
     33  PA        26.9470   44.1490  -40.5500 P.3   1500  UD11500     0.2189
     34  O1A       28.1200   45.0190  -40.2810 O.2   1500  UD11500    -0.5170
     35  O2A       25.8100   44.4120  -39.6070 O.3   1500  UD11500    -0.4371
     36  O3A       26.4670   44.1720  -42.0370 O.3   1500  UD11500    -0.2703
     37  PB        25.5720   45.1550  -42.8600 P.3   1500  UD11500     0.2208
     38  O1B       26.2710   46.4740  -43.0390 O.2   1500  UD11500    -0.5170
     39  O2B       24.1670   45.2530  -42.3350 O.3   1500  UD11500    -0.4371
@<TRIPOS>BOND
     1    11     3    1
     2    12     4    1
     3     8     7    1
     4     3     4    1
     5     3     2    1
     6     9     7   am
     7     9     2    1
     8     7    15    2
     9     4     5    1
    10     2     1    1
    11     5     6    1
    12     5    13    1
    13     1    10    1
    14     1    13    1
    15     6    14    1
    16    10    37    1
    17    38    37    2
    18    37    39    1
    19    37    36    1
    20    36    33    1
    21    31    32    1
    22    31    28    1
    23    33    32    1
    24    33    34    2
    25    33    35    1
    26    20    21    2
    27    20    19    1
    28    29    28    1
    29    29    24    1
    30    28    27    1
    31    21    16    1
    32    23    19    2
    33    19    18    2
    34    16    24    1
    35    16    17   am
    36    24    25    1
    37    18    17    2
    38    27    25    1
    39    27    30    1
    40    17    22    2
    41    25    26    1
