@<TRIPOS>MOLECULE
1hmp_5GP_A_1.pdb
 24 26 0 0 0
SMALL
GASTEIGER

@<TRIPOS>ATOM
      1  P         37.8930   49.6220   10.6630 P.3   300  5GP300      0.5327
      2  O1P       37.8290   50.6940    9.6640 O.2   300  5GP300     -0.2224
      3  O2P       38.8810   49.8470   11.7690 O.3   300  5GP300     -0.1145
      4  O3P       36.5520   49.1440   11.1080 O.3   300  5GP300     -0.1145
      5  O5'       38.4800   48.4130    9.8030 O.3   300  5GP300     -0.2675
      6  C5'       39.1340   48.7040    8.5720 C.3   300  5GP300      0.1859
      7  C4'       39.7030   47.4660    7.9100 C.3   300  5GP300      0.1801
      8  O4'       39.7520   47.7580    6.4930 O.3   300  5GP300     -0.3326
      9  C3'       41.1510   47.0790    8.3110 C.3   300  5GP300      0.2158
     10  O3'       41.2140   46.0040    9.3060 O.3   300  5GP300     -0.2175
     11  C2'       41.7430   46.6010    6.9920 C.3   300  5GP300      0.2310
     12  O2'       41.4980   45.2300    6.7510 O.3   300  5GP300     -0.2158
     13  C1'       41.0400   47.4960    5.9760 C.3   300  5GP300      0.2293
     14  N9        41.7780   48.7420    5.8960 N.pl3 300  5GP300     -0.2354
     15  C8        41.6780   49.8740    6.6670 C.3   300  5GP300      0.2246
     16  N7        42.6760   50.6820    6.4700 N.2   300  5GP300     -0.2322
     17  C5        43.5350   50.0260    5.5710 C.2   300  5GP300      0.2182
     18  C6        44.7490   50.4600    4.9400 C.1   300  5GP300      0.2372
     19  O6        45.3030   51.5620    5.0030 O.2   300  5GP300     -0.2069
     20  N1        45.2870   49.4760    4.0990 N.2   300  5GP300     -0.2485
     21  C2        44.6940   48.2560    3.8340 C.1   300  5GP300      0.2531
     22  N2        45.3180   47.5020    2.9230 N.pl3 300  5GP300     -0.0226
     23  N3        43.5320   47.8600    4.3690 N.2   300  5GP300     -0.3074
     24  C4        43.0120   48.7900    5.2380 C.2   300  5GP300      0.2300
@<TRIPOS>BOND
     1    22    21    1
     2    21    20    2
     3    21    23    2
     4    20    18    2
     5    23    24    2
     6    18    19    2
     7    18    17    1
     8    24    17    1
     9    24    14    1
    10    17    16    2
    11    14    13    1
    12    14    15    1
    13    13     8    1
    14    13    11    1
    15    16    15    1
    16     8     7    1
    17    12    11    1
    18    11     9    1
    19     7     9    1
    20     7     6    1
    21     9    10    1
    22     6     5    1
    23     2     1    2
    24     5     1    1
    25     1     4    1
    26     1     3    1
