@<TRIPOS>MOLECULE
1hmr_ELA_A_1.pdb
 20 19 0 0 0
SMALL
GASTEIGER

@<TRIPOS>ATOM
      1  CA        19.6520   33.3030   53.6450 C.3   133  ELA133      0.1397
      2  C         18.9220   33.3060   52.3730 C.2   133  ELA133      0.3692
      3  O         19.0110   34.3390   51.7310 O.co2 133  ELA133     -0.2453
      4  C3        20.8140   34.2570   53.8010 C.2   133  ELA133     -0.0189
      5  C4        21.6480   34.1750   54.9910 C.2   133  ELA133     -0.0301
      6  C5        22.7520   35.1680   55.1020 C.3   133  ELA133      0.0257
      7  C6        23.1580   35.5220   56.5270 C.3   133  ELA133      0.0047
      8  C7        23.7060   34.4290   57.3550 C.3   133  ELA133      0.0003
      9  C8        23.3620   34.6370   58.8590 C.3   133  ELA133      0.0000
     10  C9        21.9690   34.3740   59.1720 C.3   133  ELA133      0.0000
     11  C10       21.5120   34.6910   60.4940 C.3   133  ELA133      0.0000
     12  C11       20.0350   34.5380   60.6500 C.3   133  ELA133      0.0000
     13  C12       19.2440   34.8740   59.4230 C.3   133  ELA133      0.0000
     14  C13       17.9140   34.2150   59.3610 C.3   133  ELA133      0.0000
     15  C14       17.1850   34.3750   58.0750 C.3   133  ELA133      0.0000
     16  C15       17.0930   35.7700   57.5950 C.3   133  ELA133      0.0000
     17  C16       16.2220   35.9090   56.3530 C.3   133  ELA133      0.0000
     18  C17       15.9690   37.3870   56.0920 C.3   133  ELA133      0.0000
     19  C18       17.1450   38.1910   56.5440 C.3   133  ELA133      0.0000
     20  OXT       18.2470   32.3160   52.1830 O.co2 133  ELA133     -0.2453
@<TRIPOS>BOND
     1     3     2   ar
     2    20     2   ar
     3     2     1    1
     4     1     4    1
     5     4     5    2
     6     5     6    1
     7     6     7    1
     8    18    17    1
     9    18    19    1
    10    17    16    1
    11     7     8    1
    12     8     9    1
    13    16    15    1
    14    15    14    1
    15     9    10    1
    16    10    11    1
    17    14    13    1
    18    13    12    1
    19    11    12    1
