@<TRIPOS>MOLECULE
1hms_OLA_A_1.pdb
 20 19 0 0 0
SMALL
GASTEIGER

@<TRIPOS>ATOM
      1  C1        19.0300   33.3380   52.4920 C.2   133  OLA133      0.3649
      2  O1        18.3210   32.3340   52.4110 O.co2 133  OLA133     -0.2457
      3  O2        19.0140   34.4160   51.9100 O.co2 133  OLA133     -0.2457
      4  C2        20.0020   33.2660   53.5770 C.3   133  OLA133      0.1141
      5  C3        20.6000   34.5030   54.1250 C.3   133  OLA133      0.0118
      6  C4        21.8030   34.2750   55.0600 C.3   133  OLA133      0.0006
      7  C5        22.3410   35.6020   55.5610 C.3   133  OLA133      0.0000
      8  C6        23.5690   35.5340   56.4000 C.3   133  OLA133      0.0003
      9  C7        23.5370   34.5310   57.5140 C.3   133  OLA133      0.0047
     10  C8        22.6930   35.0320   58.6870 C.3   133  OLA133      0.0257
     11  C9        22.6420   34.0520   59.8040 C.2   133  OLA133     -0.0307
     12  C10       21.7210   34.1380   60.8600 C.2   133  OLA133     -0.0307
     13  C11       20.7780   35.2360   61.0590 C.3   133  OLA133      0.0257
     14  C12       19.3360   34.9930   60.9030 C.3   133  OLA133      0.0047
     15  C13       18.9230   34.6100   59.4960 C.3   133  OLA133      0.0003
     16  C14       17.5060   34.0840   59.4840 C.3   133  OLA133      0.0000
     17  C15       16.7310   34.5080   58.2780 C.3   133  OLA133      0.0000
     18  C16       17.3270   35.6680   57.5660 C.3   133  OLA133      0.0000
     19  C17       16.3040   36.4260   56.7320 C.3   133  OLA133      0.0000
     20  C18       16.7280   37.8920   56.6480 C.3   133  OLA133      0.0000
@<TRIPOS>BOND
     1     3     1   ar
     2     2     1   ar
     3     1     4    1
     4     4     5    1
     5     5     6    1
     6     6     7    1
     7     7     8    1
     8     8     9    1
     9    20    19    1
    10    19    18    1
    11     9    10    1
    12    18    17    1
    13    17    16    1
    14    10    11    1
    15    16    15    1
    16    15    14    1
    17    11    12    2
    18    12    13    1
    19    14    13    1
