@<TRIPOS>MOLECULE
1hmt_STE_A_1.pdb
 20 19 0 0 0
SMALL
GASTEIGER

@<TRIPOS>ATOM
      1  C1        19.0590   33.2400   52.2470 C.2   133  STE133      0.3876
      2  O1        18.9990   34.2520   51.5700 O.co2 133  STE133     -0.2406
      3  O2        18.3830   32.2470   52.0740 O.co2 133  STE133     -0.2406
      4  C2        20.0590   33.1550   53.3190 C.2   133  STE133      0.0816
      5  C3        20.9320   34.2630   53.6670 C.2   133  STE133     -0.0194
      6  C4        21.9560   34.0810   54.7900 C.3   133  STE133      0.0263
      7  C5        22.3340   35.3820   55.4400 C.3   133  STE133      0.0047
      8  C6        23.5340   35.3320   56.3390 C.3   133  STE133      0.0003
      9  C7        23.4170   34.4510   57.5450 C.3   133  STE133      0.0000
     10  C8        22.3120   34.8870   58.5100 C.3   133  STE133      0.0000
     11  C9        22.1180   33.9400   59.6400 C.3   133  STE133      0.0000
     12  C10       21.2370   34.5290   60.7410 C.3   133  STE133      0.0000
     13  C11       19.9250   35.0230   60.1590 C.3   133  STE133      0.0000
     14  C12       19.1840   34.0080   59.3690 C.3   133  STE133      0.0000
     15  C13       17.7050   34.0940   59.3940 C.3   133  STE133      0.0000
     16  C14       17.0020   34.8930   58.3830 C.3   133  STE133      0.0000
     17  C15       17.0780   34.3350   56.9710 C.3   133  STE133      0.0000
     18  C16       16.7800   35.4660   55.9700 C.3   133  STE133      0.0000
     19  C17       16.0990   36.5930   56.7190 C.3   133  STE133      0.0000
     20  C18       16.7040   37.9390   56.3390 C.3   133  STE133      0.0000
@<TRIPOS>BOND
     1     2     1   ar
     2     3     1   ar
     3     1     4    1
     4     4     5    2
     5     5     6    1
     6     6     7    1
     7     7     8    1
     8    18    19    1
     9    18    17    1
    10    20    19    1
    11     8     9    1
    12    17    16    1
    13     9    10    1
    14    16    15    1
    15    10    11    1
    16    14    15    1
    17    14    13    1
    18    11    12    1
    19    13    12    1
