@<TRIPOS>MOLECULE
1hmy_SAM_A_1.pdb
 27 29 0 0 0
SMALL
GASTEIGER

@<TRIPOS>ATOM
      1  N         13.6510   18.5440   26.4630 N.3   328  SAM328     -0.1208
      2  CA        13.2600   17.6610   27.4950 C.3   328  SAM328      0.1952
      3  C         13.9270   18.4520   28.6050 C.2   328  SAM328      0.3819
      4  O         13.7260   19.7340   28.5650 O.co2 328  SAM328     -0.2441
      5  OXT       13.9910   17.9930   29.8110 O.co2 328  SAM328     -0.2441
      6  CB        13.9830   16.3460   27.2050 C.3   328  SAM328      0.0414
      7  CG        13.1400   15.0750   27.4620 C.3   328  SAM328      0.0503
      8  SD        13.9720   13.5420   26.9420 S.3   328  SAM328     -0.1761
      9  CE        14.3450   13.3420   25.1940 C.3   328  SAM328      0.0590
     10  C5'       12.6480   12.4490   26.4060 C.3   328  SAM328      0.0806
     11  C4'       11.4580   12.5170   27.2450 C.3   328  SAM328      0.1622
     12  O4'       10.4950   11.6320   26.6630 O.3   328  SAM328     -0.3153
     13  C3'       11.6860   12.0440   28.6950 C.3   328  SAM328      0.2168
     14  O3'       11.2560   13.1060   29.5850 O.3   328  SAM328     -0.2175
     15  C2'       10.7110   10.8200   28.7490 C.3   328  SAM328      0.2569
     16  O2'       10.1660   10.6050   30.1090 O.3   328  SAM328     -0.2130
     17  C1'        9.5940   11.2900   27.7550 C.3   328  SAM328      0.3185
     18  N9         8.6460   10.1850   27.3080 N.pl3 328  SAM328     -0.1439
     19  C8         9.0370    8.9390   26.7730 C.3   328  SAM328      0.3377
     20  N7         8.0450    8.1790   26.3570 N.2   328  SAM328     -0.2095
     21  C5         6.8570    8.9600   26.6150 C.2   328  SAM328      0.2526
     22  C6         5.4570    8.7040   26.3400 C.2   328  SAM328      0.4393
     23  N6         4.9980    7.5410   25.7660 N.pl3 328  SAM328      0.2180
     24  N1         4.6190    9.6890   26.6890 N.2   328  SAM328      0.0021
     25  C2         5.0650   10.8120   27.2640 C.3   328  SAM328      0.5254
     26  N3         6.3190   11.1910   27.5880 N.2   328  SAM328     -0.0055
     27  C4         7.2050   10.1920   27.2140 C.2   328  SAM328      0.3518
@<TRIPOS>BOND
     1     9     8    1
     2    23    22    1
     3    22    21    1
     4    22    24    2
     5    20    21    2
     6    20    19    1
     7    10     8    1
     8    10    11    1
     9     1     2    1
    10    21    27    1
    11    12    11    1
    12    12    17    1
    13    24    25    1
    14    19    18    1
    15     8     7    1
    16     6     7    1
    17     6     2    1
    18    27    18    1
    19    27    26    2
    20    11    13    1
    21    25    26    1
    22    18    17    1
    23     2     3    1
    24    17    15    1
    25     4     3   ar
    26     3     5   ar
    27    13    15    1
    28    13    14    1
    29    15    16    1
