@<TRIPOS>MOLECULE
1hn2_ANC_A_1.pdb
 15 17 0 0 0
SMALL
GASTEIGER

@<TRIPOS>ATOM
      1  C1         0.5210   -0.6440    5.5400 C.ar  3001  ANC3001     0.0013
      2  C2         1.2810   -0.2490    4.3830 C.ar  3001  ANC3001     0.0001
      3  C3        -0.8640   -0.3470    5.6250 C.ar  3001  ANC3001     0.0168
      4  C4         0.6220    0.4600    3.3030 C.ar  3001  ANC3001     0.0014
      5  C5        -1.5100    0.3530    4.5630 C.ar  3001  ANC3001     0.0891
      6  C6        -0.7930    0.7480    3.4210 C.ar  3001  ANC3001     0.0181
      7  C7        -1.1380   -2.5280   10.0370 C.ar  3001  ANC3001     0.0000
      8  C8         0.3580   -2.8580    9.9340 C.ar  3001  ANC3001     0.0000
      9  C9        -1.7650   -1.8280    8.9860 C.ar  3001  ANC3001     0.0000
     10  C10        1.0440   -2.4380    8.7800 C.ar  3001  ANC3001     0.0000
     11  C11       -1.0190   -1.4310    7.8380 C.ar  3001  ANC3001     0.0000
     12  C12        0.3780   -1.7370    7.7450 C.ar  3001  ANC3001     0.0000
     13  C13        1.2110   -1.3360    6.5530 C.ar  3001  ANC3001     0.0000
     14  C14       -1.7230   -0.6780    6.7090 C.ar  3001  ANC3001     0.0013
     15  N1        -2.9840    0.6900    4.6120 N.pl3 3001  ANC3001    -0.1281
@<TRIPOS>BOND
     1     4     6   ar
     2     4     2   ar
     3     6     5   ar
     4     2     1   ar
     5     5    15    1
     6     5     3   ar
     7     1     3   ar
     8     1    13   ar
     9     3    14   ar
    10    13    12   ar
    11    14    11   ar
    12    12    11   ar
    13    12    10   ar
    14    11     9   ar
    15    10     8   ar
    16     9     7   ar
    17     8     7   ar
