@<TRIPOS>MOLECULE
1hn4_MJI_A_1.pdb
 32 31 0 0 0
SMALL
GASTEIGER

@<TRIPOS>ATOM
      1  C1        17.6620   14.6390   11.8510 C.3   397  MJI397      0.1745
      2  O1        16.9590   15.7970   12.2200 O.3   397  MJI397     -0.3511
      3  C2        18.5690   14.9360   10.6840 C.3   397  MJI397      0.1806
      4  O2        17.8760   15.7120    9.6740 O.3   397  MJI397     -0.3114
      5  C3        19.7820   15.7060   11.1580 C.3   397  MJI397      0.1749
      6  O3        20.3930   16.3550   10.0710 O.3   397  MJI397     -0.3430
      7  C31       21.2720   15.5020    9.3740 C.3   397  MJI397      0.2459
      8  C32       22.2780   16.2960    8.5760 C.3   397  MJI397      0.4248
      9  F31       23.0220   17.1620    9.3250 F     397  MJI397     -0.1674
     10  F32       21.7440   17.0130    7.5610 F     397  MJI397     -0.1674
     11  F33       23.1200   15.4470    8.0230 F     397  MJI397     -0.1674
     12  P2        17.3330   15.0270    8.3220 P.3   397  MJI397      0.2141
     13  O21       16.9210   16.1210    7.3690 O.2   397  MJI397     -0.5172
     14  O22       18.3060   13.9770    7.8640 O.3   397  MJI397     -0.4373
     15  C2P       14.9090   15.0020    9.3820 C.3   397  MJI397      0.1815
     16  O23       16.0110   14.2710    8.8210 O.3   397  MJI397     -0.3114
     17  C11       16.2080   15.5770   13.3760 C.3   397  MJI397      0.1423
     18  C12       15.0100   16.5060   13.3670 C.3   397  MJI397      0.0321
     19  C13       15.1650   17.5470   14.4680 C.3   397  MJI397      0.0026
     20  C14       14.6940   16.9670   15.7980 C.3   397  MJI397      0.0001
     21  C15       15.4660   17.6210   16.9300 C.3   397  MJI397      0.0000
     22  C16       15.9530   16.5510   17.8950 C.3   397  MJI397      0.0000
     23  C17       17.4350   16.7440   18.1550 C.3   397  MJI397      0.0000
     24  C18       17.6320   17.6610   19.3530 C.3   397  MJI397      0.0000
     25  C19       17.9330   16.8190   20.5840 C.3   397  MJI397      0.0000
     26  C20       19.3920   17.0010   20.9750 C.3   397  MJI397      0.0000
     27  C21       19.6970   16.1470   22.2010 C.3   397  MJI397      0.0000
     28  C22       20.3430   14.8360   21.7700 C.3   397  MJI397      0.0000
     29  C23       21.1280   14.2540   22.9380 C.3   397  MJI397      0.0000
     30  C24       21.1420   12.7340   22.8470 C.3   397  MJI397      0.0000
     31  C25       21.7390   12.1570   24.1270 C.3   397  MJI397      0.0000
     32  C26       22.2030   10.7240   23.8760 C.3   397  MJI397      0.0000
@<TRIPOS>BOND
     1    13    12    2
     2    10     8    1
     3    14    12    1
     4    11     8    1
     5    12    16    1
     6    12     4    1
     7     8     9    1
     8     8     7    1
     9    16    15    1
    10     7     6    1
    11     4     3    1
    12     6     5    1
    13     3     5    1
    14     3     1    1
    15     1     2    1
    16     2    17    1
    17    18    17    1
    18    18    19    1
    19    19    20    1
    20    20    21    1
    21    21    22    1
    22    22    23    1
    23    23    24    1
    24    24    25    1
    25    25    26    1
    26    26    27    1
    27    28    27    1
    28    28    29    1
    29    30    29    1
    30    30    31    1
    31    32    31    1
