@<TRIPOS>MOLECULE
1hna_GDN_A_1.pdb
 20 19 0 0 0
SMALL
GASTEIGER

@<TRIPOS>ATOM
      1  N1         2.1620   19.9790   23.2520 N.3   218  GDN218     -0.1208
      2  CA1        2.1630   19.9660   24.7110 C.3   218  GDN218      0.1948
      3  C1         1.1090   19.0180   25.2510 C.2   218  GDN218      0.3819
      4  O11        0.2100   18.6610   24.4750 O.co2 218  GDN218     -0.2441
      5  O12        1.1990   18.6070   26.4220 O.co2 218  GDN218     -0.2441
      6  CB1        1.9250   21.3730   25.2370 C.3   218  GDN218      0.0402
      7  CG1        2.3420   21.5910   26.6730 C.3   218  GDN218      0.0889
      8  CD1        2.2330   23.0390   27.0710 C.2   218  GDN218      0.2418
      9  OE1        2.2470   23.9350   26.2250 O.2   218  GDN218     -0.2733
     10  N2         2.0240   23.2680   28.3560 N.am  218  GDN218     -0.1968
     11  CA2        1.8930   24.6180   28.8650 C.3   218  GDN218      0.1843
     12  C2         2.9070   24.8830   29.9850 C.2   218  GDN218      0.2627
     13  O2         2.6860   25.7300   30.8400 O.2   218  GDN218     -0.2714
     14  CB2        0.4610   24.8430   29.3710 C.3   218  GDN218      0.0997
     15  SG2       -0.8450   24.7630   28.0960 S.3   218  GDN218     -0.0797
     16  N3         4.0360   24.1930   29.9560 N.am  218  GDN218     -0.1917
     17  CA3        5.0880   24.3380   30.9520 C.3   218  GDN218      0.2285
     18  C3         6.2790   25.0610   30.3620 C.2   218  GDN218      0.3865
     19  O31        6.1340   25.6890   29.2980 O.co2 218  GDN218     -0.2437
     20  O32        7.3610   25.0100   30.9700 O.co2 218  GDN218     -0.2437
@<TRIPOS>BOND
     1     1     2    1
     2     4     3   ar
     3     2     6    1
     4     2     3    1
     5     6     7    1
     6     3     5   ar
     7     9     8    2
     8     7     8    1
     9     8    10   am
    10    15    14    1
    11    10    11    1
    12    11    14    1
    13    11    12    1
    14    19    18   ar
    15    16    12   am
    16    16    17    1
    17    12    13    2
    18    18    17    1
    19    18    20   ar
