@<TRIPOS>MOLECULE
1hnb_GDN_A_1.pdb
 20 19 0 0 0
SMALL
GASTEIGER

@<TRIPOS>ATOM
      1  N1        14.2210   36.2800   36.8580 N.3   218  GDN218     -0.1208
      2  CA1       14.2600   36.8280   38.2090 C.3   218  GDN218      0.1948
      3  C1        12.8520   37.0470   38.7560 C.2   218  GDN218      0.3819
      4  O11       12.6990   37.8060   39.7340 O.co2 218  GDN218     -0.2441
      5  O12       11.9100   36.4360   38.2130 O.co2 218  GDN218     -0.2441
      6  CB1       15.0260   38.1460   38.2110 C.3   218  GDN218      0.0402
      7  CG1       14.4310   39.1800   37.2800 C.3   218  GDN218      0.0889
      8  CD1       15.1150   40.5260   37.3660 C.2   218  GDN218      0.2418
      9  OE1       16.2550   40.6290   37.8260 O.2   218  GDN218     -0.2733
     10  N2        14.5810   41.4600   36.5940 N.am  218  GDN218     -0.1968
     11  CA2       15.1110   42.8110   36.5660 C.3   218  GDN218      0.1843
     12  C2        15.0720   43.4150   37.9750 C.2   218  GDN218      0.2627
     13  O2        14.0100   43.4800   38.6040 O.2   218  GDN218     -0.2714
     14  CB2       14.2910   43.6580   35.5880 C.3   218  GDN218      0.0997
     15  SG2       12.6270   42.9980   35.2310 S.3   218  GDN218     -0.0797
     16  N3        16.2550   43.6290   38.5390 N.am  218  GDN218     -0.1917
     17  CA3       16.4410   44.2000   39.8660 C.3   218  GDN218      0.2285
     18  C3        17.9020   44.0840   40.2360 C.2   218  GDN218      0.3865
     19  O31       18.7630   44.3970   39.3880 O.co2 218  GDN218     -0.2437
     20  O32       18.1920   43.6620   41.3720 O.co2 218  GDN218     -0.2437
@<TRIPOS>BOND
     1    15    14    1
     2    14    11    1
     3    11    10    1
     4    11    12    1
     5    10     8   am
     6     1     2    1
     7     7     8    1
     8     7     6    1
     9     8     9    2
    10    12    16   am
    11    12    13    2
    12     2     6    1
    13     2     3    1
    14     5     3   ar
    15    16    17    1
    16     3     4   ar
    17    19    18   ar
    18    17    18    1
    19    18    20   ar
