@<TRIPOS>MOLECULE
1hnc_GDN_A_1.pdb
 20 19 0 0 0
SMALL
GASTEIGER

@<TRIPOS>ATOM
      1  N1        14.3280   46.1340   43.9270 N.3   218  GDN218     -0.1208
      2  CA1       13.9900   47.3640   44.6330 C.3   218  GDN218      0.1948
      3  C1        12.5620   47.2980   45.1790 C.2   218  GDN218      0.3819
      4  O11       11.9400   46.2190   45.0910 O.co2 218  GDN218     -0.2441
      5  O12       12.0730   48.3030   45.7330 O.co2 218  GDN218     -0.2441
      6  CB1       14.1760   48.5680   43.7030 C.3   218  GDN218      0.0402
      7  CG1       14.2780   49.9150   44.4060 C.3   218  GDN218      0.0889
      8  CD1       14.7590   51.0290   43.4870 C.2   218  GDN218      0.2418
      9  OE1       15.3660   50.7640   42.4480 O.2   218  GDN218     -0.2733
     10  N2        14.3840   52.2660   43.8050 N.am  218  GDN218     -0.1968
     11  CA2       14.7790   53.4370   43.0230 C.3   218  GDN218      0.1843
     12  C2        15.4370   54.4730   43.9260 C.2   218  GDN218      0.2627
     13  O2        14.8120   55.4630   44.2990 O.2   218  GDN218     -0.2714
     14  CB2       13.5600   54.0680   42.3470 C.3   218  GDN218      0.0997
     15  SG2       12.8210   53.0710   41.0200 S.3   218  GDN218     -0.0797
     16  N3        16.7450   54.3580   44.0910 N.am  218  GDN218     -0.1917
     17  CA3       17.5430   55.2520   44.9150 C.3   218  GDN218      0.2285
     18  C3        18.7830   54.4860   45.3160 C.2   218  GDN218      0.3865
     19  O31       19.0460   53.4150   44.7230 O.co2 218  GDN218     -0.2437
     20  O32       19.4940   54.9480   46.2330 O.co2 218  GDN218     -0.2437
@<TRIPOS>BOND
     1    15    14    1
     2    14    11    1
     3     9     8    2
     4    11    10    1
     5    11    12    1
     6     8    10   am
     7     8     7    1
     8     6     7    1
     9     6     2    1
    10    12    16   am
    11    12    13    2
    12     1     2    1
    13    16    17    1
    14     2     3    1
    15    19    18   ar
    16    17    18    1
    17     4     3   ar
    18     3     5   ar
    19    18    20   ar
