@<TRIPOS>MOLECULE
1hne_III_I_1.pdb
 31 31 0 0 0
SMALL
GASTEIGER

@<TRIPOS>ATOM
      1  C1        33.8260   17.9050   52.0730 C.2     1  MSU1        0.2419
      2  O1        33.9750   17.7360   53.3120 O.2     1  MSU1       -0.2733
      3  C2        33.3130   19.3270   51.9200 C.3     1  MSU1        0.0921
      4  C3        31.9640   19.7220   52.2750 C.3     1  MSU1        0.0740
      5  C4        31.1620   19.8890   53.5900 C.3     1  MSU1        0.2695
      6  OT1       31.9630   19.7890   54.5040 O.3     1  MSU1       -0.1899
      7  OT2       30.1160   18.9720   53.5550 O.3     1  MSU1       -0.3258
      8  CT        29.3510   18.9730   54.7820 C.3     1  MSU1        0.1769
      9  N         33.8750   16.9810   51.1400 N.am    2  ALA2       -0.1978
     10  CA        34.4000   15.6700   51.5470 C.3     2  ALA2        0.1728
     11  C         35.8940   15.9200   51.6690 C.2     2  ALA2        0.2616
     12  O         36.4400   16.6790   50.8200 O.2     2  ALA2       -0.2715
     13  CB        34.0700   14.7060   50.4310 C.3     2  ALA2        0.0334
     14  N         36.5480   15.3390   52.6350 N.am    3  ALA3       -0.1964
     15  CA        37.9940   15.5040   52.8490 C.3     3  ALA3        0.1713
     16  C         38.5660   14.0600   52.8790 C.2     3  ALA3        0.2458
     17  O         38.1140   13.2830   53.7330 O.2     3  ALA3       -0.2730
     18  CB        38.2220   16.1470   54.2110 C.3     3  ALA3        0.0333
     19  N         39.4520   13.8230   51.9440 N.am    4  PRO4       -0.2716
     20  CA        40.0820   12.4550   51.8950 C.3     4  PRO4        0.1535
     21  C         40.8530   12.2510   53.1510 C.2     4  PRO4        0.2595
     22  O         41.6560   13.1470   53.5630 O.2     4  PRO4       -0.2716
     23  CB        40.8530   12.4720   50.5900 C.3     4  PRO4        0.0310
     24  CG        41.1080   13.9480   50.2600 C.3     4  PRO4        0.0237
     25  CD        39.9890   14.6960   50.9240 C.3     4  PRO4        0.0939
     26  C         42.5690    9.8460   54.7910 C.3     5  ALA5        0.1718
     27  N         40.6760   11.0980   53.8150 N.am    5  ALA5       -0.2032
     28  O         43.3270    9.5820   55.9430 O.3     5  ALA5       -0.2213
     29  CA        41.4280   10.8200   55.0570 C.3     5  ALA5        0.1256
     30  CB        40.4200   10.2730   56.0900 C.3     5  ALA5        0.0261
     31  C1        43.5400   10.1830   53.6290 C.3     6  0QE6        0.0373
@<TRIPOS>BOND
     1    24    23    1
     2    24    25    1
     3    13    10    1
     4    23    20    1
     5    12    11    2
     6    25    19    1
     7     9    10    1
     8     9     1   am
     9    10    11    1
    10    11    14   am
    11    20    19    1
    12    20    21    1
    13     3     1    1
    14     3     4    1
    15    19    16   am
    16     1     2    2
    17     4     5    1
    18    14    15    1
    19    15    16    1
    20    15    18    1
    21    16    17    2
    22    21    22    2
    23    21    27   am
    24     7     5    1
    25     7     8    1
    26     5     6    1
    27    31    26    1
    28    27    29    1
    29    26    29    1
    30    26    28    1
    31    29    30    1
