@<TRIPOS>MOLECULE
1hnf_NAG_A_1.pdb
 14 14 0 0 0
SMALL
GASTEIGER

@<TRIPOS>ATOM
      1  C1         4.7360   17.4790   20.6460 C.3   500  NAG500      0.1665
      2  C2         4.7660   18.5540   21.7210 C.3   500  NAG500      0.1576
      3  C3         5.9910   18.3320   22.6020 C.3   500  NAG500      0.2069
      4  C4         5.9420   16.9240   23.1880 C.3   500  NAG500      0.2134
      5  C5         5.7660   15.8790   22.0880 C.3   500  NAG500      0.1809
      6  C6         5.5340   14.4980   22.6450 C.3   500  NAG500      0.2141
      7  C7         3.6880   20.4700   20.7720 C.2   500  NAG500      0.2420
      8  C8         3.8140   21.8720   20.1590 C.3   500  NAG500      0.0964
      9  N2         4.8190   19.8730   21.1310 N.am  500  NAG500     -0.2019
     10  O3         6.0310   19.2990   23.6490 O.3   500  NAG500     -0.2184
     11  O4         7.1540   16.6660   23.8710 O.3   500  NAG500     -0.2176
     12  O5         4.6320   16.1880   21.2500 O.3   500  NAG500     -0.3489
     13  O6         5.0320   13.6320   21.6390 O.3   500  NAG500     -0.2176
     14  O7         2.5830   19.9180   20.9030 O.2   500  NAG500     -0.2733
@<TRIPOS>BOND
     1     8     7    1
     2     1    12    1
     3     1     2    1
     4     7    14    2
     5     7     9   am
     6     9     2    1
     7    12     5    1
     8    13     6    1
     9     2     3    1
    10     5     6    1
    11     5     4    1
    12     3     4    1
    13     3    10    1
    14     4    11    1
