@<TRIPOS>MOLECULE
1hni_AAA_A_1.pdb
 27 28 0 0 0
SMALL
GASTEIGER

@<TRIPOS>ATOM
      1  C1       143.4180  -21.7130   75.6160 C.ar  559  AAA559      0.0478
      2  C1A      143.0540  -21.1910   74.2670 C.2   559  AAA559      0.1747
      3  C1B      142.4560  -19.8030   74.1510 C.3   559  AAA559      0.0773
      4  O1B      143.1450  -21.8730   73.2010 O.2   559  AAA559     -0.2913
      5  C2       143.2100  -20.8850   76.7380 C.ar  559  AAA559      0.0037
      6  C3       143.5550  -21.2470   78.0290 C.ar  559  AAA559     -0.0041
      7  C4       144.1340  -22.4860   78.2670 C.ar  559  AAA559     -0.0206
      8  C4A      144.5040  -22.8920   79.6490 C.3   559  AAA559      0.0311
      9  C5       144.3560  -23.3510   77.1930 C.ar  559  AAA559      0.0101
     10  C6       143.9830  -23.0250   75.8300 C.ar  559  AAA559      0.0473
     11  N7       144.1770  -23.9440   74.7540 N.pl3 559  AAA559     -0.3283
     12  C8       144.6390  -25.3170   74.8800 C.3   559  AAA559      0.1249
     13  C8A      145.7760  -25.6670   73.8970 C.2   559  AAA559      0.2354
     14  N8B      146.9470  -26.2190   74.3140 N.am  559  AAA559     -0.3275
     15  O8B      145.5570  -25.5150   72.6890 O.2   559  AAA559     -0.2736
     16  C9       143.4980  -26.3080   74.8450 C.ar  559  AAA559      0.0107
     17  C10      143.2300  -27.1120   75.9800 C.ar  559  AAA559      0.0327
     18 BR1       144.2850  -26.9390   77.5200 Br    559  AAA559     -0.0493
     19  C11      142.1320  -27.9720   76.0330 C.ar  559  AAA559      0.0065
     20  C12      141.3350  -28.1500   74.9110 C.ar  559  AAA559      0.0010
     21  C13      141.6260  -27.3990   73.7750 C.ar  559  AAA559      0.0065
     22  C14      142.6720  -26.4440   73.7940 C.ar  559  AAA559      0.0327
     23 BR2       142.9430  -25.3820   72.2980 Br    559  AAA559     -0.0493
     24  HN7      143.9170  -23.6410   73.8260 H     559  AAA559      0.1471
     25  H8       145.0230  -25.5030   75.7840 H     559  AAA559      0.0645
     26 HN81      147.7930  -25.9130   73.8860 H     559  AAA559      0.1450
     27 HN82      146.9850  -26.9120   75.0380 H     559  AAA559      0.1450
@<TRIPOS>BOND
     1    23    22    1
     2    15    13    2
     3     4     2    2
     4    21    22   ar
     5    21    20   ar
     6    22    16   ar
     7    24    11    1
     8    26    14    1
     9    13    14   am
    10    13    12    1
    11     3     2    1
    12     2     1    1
    13    14    27    1
    14    11    12    1
    15    11    10    1
    16    16    12    1
    17    16    17   ar
    18    12    25    1
    19    20    19   ar
    20     1    10   ar
    21     1     5   ar
    22    10     9   ar
    23    17    19   ar
    24    17    18    1
    25     5     6   ar
    26     9     7   ar
    27     6     7   ar
    28     7     8    1
