@<TRIPOS>MOLECULE
1hnl_GSH_A_1.pdb
 20 19 0 0 0
SMALL
GASTEIGER

@<TRIPOS>ATOM
      1  N1        11.8360    9.4810   43.6180 N.3   500  GSH500     -0.1208
      2  CA1       12.8070   10.6290   43.6720 C.3   500  GSH500      0.1948
      3  C1        12.8520   11.3430   45.0280 C.2   500  GSH500      0.3819
      4  O11       13.8810   12.0200   45.2600 O.co2 500  GSH500     -0.2441
      5  O12       11.8100   11.2080   45.7110 O.co2 500  GSH500     -0.2441
      6  CB1       12.3890   11.6560   42.6200 C.3   500  GSH500      0.0402
      7  CG1       10.8560   11.9800   42.6800 C.3   500  GSH500      0.0889
      8  CD1       10.8360   13.4050   42.2450 C.2   500  GSH500      0.2418
      9  OE1       11.5760   14.2570   42.7790 O.2   500  GSH500     -0.2733
     10  N2        10.0480   13.7370   41.2460 N.am  500  GSH500     -0.1968
     11  CA2        9.9660   15.1380   40.8410 C.3   500  GSH500      0.1843
     12  C2         8.9230   15.8450   41.6290 C.2   500  GSH500      0.2627
     13  O2         7.9920   15.2040   42.1250 O.2   500  GSH500     -0.2714
     14  CB2        9.5430   15.2150   39.3700 C.3   500  GSH500      0.0997
     15  SG2       10.9940   14.8420   38.3560 S.3   500  GSH500     -0.0797
     16  N3         8.9290   17.1760   41.7340 N.am  500  GSH500     -0.1917
     17  CA3        7.5660   17.6540   42.0030 C.3   500  GSH500      0.2285
     18  C3         7.7030   18.9030   42.8460 C.2   500  GSH500      0.3865
     19  O31        6.7900   19.7580   42.4180 O.co2 500  GSH500     -0.2437
     20  O32        8.6100   18.8280   43.6500 O.co2 500  GSH500     -0.2437
@<TRIPOS>BOND
     1    15    14    1
     2    14    11    1
     3    11    10    1
     4    11    12    1
     5    10     8   am
     6    12    16   am
     7    12    13    2
     8    16    17    1
     9    17    18    1
    10     8     7    1
    11     8     9    2
    12    19    18   ar
    13     6     7    1
    14     6     2    1
    15    18    20   ar
    16     1     2    1
    17     2     3    1
    18     3     4   ar
    19     3     5   ar
