@<TRIPOS>MOLECULE
1hnn_SAH_A_1.pdb
 26 28 0 0 0
SMALL
GASTEIGER

@<TRIPOS>ATOM
      1  N         26.7720   52.6940   18.3750 N.3   2001  SAH2001    -0.1208
      2  CA        27.9330   51.8970   17.9530 C.3   2001  SAH2001     0.1952
      3  CB        28.2380   50.8450   19.0080 C.3   2001  SAH2001     0.0422
      4  CG        28.5310   51.3190   20.3970 C.3   2001  SAH2001     0.0597
      5  SD        30.0250   50.6330   21.0590 S.3   2001  SAH2001    -0.1375
      6  C         27.6670   51.0860   16.7060 C.2   2001  SAH2001     0.3819
      7  O         26.4870   51.0530   16.2800 O.co2 2001  SAH2001    -0.2441
      8  OXT       28.5990   50.3970   16.2430 O.co2 2001  SAH2001    -0.2441
      9  C5'       29.9010   51.3660   22.6910 C.3   2001  SAH2001     0.0899
     10  C4'       29.9960   52.8390   22.7470 C.3   2001  SAH2001     0.1630
     11  O4'       29.8660   53.1010   24.1480 O.3   2001  SAH2001    -0.3153
     12  C3'       31.4100   53.4410   22.2820 C.3   2001  SAH2001     0.2168
     13  O3'       31.3770   54.4220   21.1880 O.3   2001  SAH2001    -0.2175
     14  C2'       31.9030   53.9940   23.6330 C.3   2001  SAH2001     0.2569
     15  O2'       32.8780   55.0570   23.5930 O.3   2001  SAH2001    -0.2130
     16  C1'       30.5650   54.3070   24.3070 C.3   2001  SAH2001     0.3185
     17  N9        30.5210   54.5370   25.7610 N.pl3 2001  SAH2001    -0.1439
     18  C8        31.4550   54.1210   26.7550 C.3   2001  SAH2001     0.3377
     19  N7        31.0730   54.5040   27.9450 N.2   2001  SAH2001    -0.2095
     20  C5        29.8560   55.1970   27.7620 C.2   2001  SAH2001     0.2526
     21  C6        28.9420   55.8450   28.6470 C.2   2001  SAH2001     0.4393
     22  N6        29.1610   55.8960   29.9590 N.pl3 2001  SAH2001     0.2180
     23  N1        27.8020   56.4490   28.1560 N.2   2001  SAH2001     0.0021
     24  C2        27.5940   56.3910   26.8290 C.3   2001  SAH2001     0.5254
     25  N3        28.3680   55.8150   25.8910 N.2   2001  SAH2001    -0.0055
     26  C4        29.4950   55.2230   26.4230 C.2   2001  SAH2001     0.3518
@<TRIPOS>BOND
     1     8     6   ar
     2     7     6   ar
     3     6     2    1
     4     2     1    1
     5     2     3    1
     6     3     4    1
     7     4     5    1
     8     5     9    1
     9    13    12    1
    10    12    10    1
    11    12    14    1
    12     9    10    1
    13    10    11    1
    14    15    14    1
    15    14    16    1
    16    11    16    1
    17    16    17    1
    18    17    26    1
    19    17    18    1
    20    25    26    2
    21    25    24    1
    22    26    20    1
    23    18    19    1
    24    24    23    1
    25    20    19    2
    26    20    21    1
    27    23    21    2
    28    21    22    1
