@<TRIPOS>MOLECULE
1hnn_SKF_A_1.pdb
 14 15 0 0 0
SMALL
GASTEIGER

@<TRIPOS>ATOM
      1  C4        28.3480   46.0370   16.7830 C.ar  3001  SKF3001    -0.0031
      2  C5        27.8990   45.5320   15.5700 C.ar  3001  SKF3001     0.0197
      3  C6        27.8220   44.1470   15.3850 C.ar  3001  SKF3001     0.1248
      4  C7        28.1930   43.2860   16.4100 C.ar  3001  SKF3001     0.0168
      5  S         27.2610   43.4900   13.8470 S.O2  3001  SKF3001     0.0935
      6  C8        28.6420   43.7900   17.6160 C.ar  3001  SKF3001    -0.0074
      7  C9        28.7200   45.1740   17.8070 C.ar  3001  SKF3001    -0.0233
      8  O1        27.4850   44.4300   12.7700 O.2   3001  SKF3001    -0.1503
      9  O2        25.8660   43.1330   13.8730 O.2   3001  SKF3001    -0.1503
     10  N         28.1050   42.1870   13.5730 N.3   3001  SKF3001     0.0392
     11  C1        28.9650   42.8430   18.7440 C.3   3001  SKF3001     0.1147
     12  C2        29.2110   44.8480   20.1940 C.3   3001  SKF3001     0.0937
     13  C3        29.4880   45.7050   18.9780 C.3   3001  SKF3001     0.0449
     14  N1        29.7000   43.4830   19.8600 N.3   3001  SKF3001    -0.2129
@<TRIPOS>BOND
     1     8     5    2
     2    10     5    1
     3     5     9    2
     4     5     3    1
     5     3     2   ar
     6     3     4   ar
     7     2     1   ar
     8     4     6   ar
     9     1     7   ar
    10     6     7   ar
    11     6    11    1
    12     7    13    1
    13    11    14    1
    14    13    12    1
    15    14    12    1
