@<TRIPOS>MOLECULE
1hnv_TBO_A_1.pdb
 21 23 0 0 0
SMALL
GASTEIGER

@<TRIPOS>ATOM
      1  N1       143.7970  -25.8260   72.3850 N.2   559  TBO559     -0.3498
      2  C1A      144.3600  -26.3150   73.6320 C.2   559  TBO559      0.1432
      3  C2       144.7150  -24.8490   71.8780 C.1   559  TBO559      0.0955
      4  S2       144.5790  -23.9750   70.4470 S.2   559  TBO559      0.0398
      5  N3       145.7650  -24.7530   72.7710 N.am  559  TBO559     -0.2425
      6  C3A      145.5010  -25.6500   73.7930 C.3   559  TBO559      0.1559
      7  C4       147.0090  -24.1920   72.3660 C.3   559  TBO559      0.1179
      8  C5       147.4410  -23.1480   73.3330 C.3   559  TBO559      0.0786
      9  N6       147.3860  -23.5170   74.7490 N.3   559  TBO559     -0.2650
     10  C7       147.6000  -24.9190   74.9620 C.3   559  TBO559      0.0980
     11  C7A      146.2920  -25.6340   74.9460 C.2   559  TBO559      0.0075
     12  C8       145.8570  -26.3950   76.0670 C.2   559  TBO559      0.0531
     13 CL8       146.7620  -26.3590   77.5790 Cl    559  TBO559     -0.0828
     14  C9       144.6490  -27.1310   75.9650 C.2   559  TBO559      0.0132
     15  C10      143.8840  -27.0940   74.7290 C.2   559  TBO559      0.0314
     16  C11      148.8760  -23.0930   73.0470 C.3   559  TBO559      0.0192
     17  C12      147.7900  -22.5870   75.8780 C.3   559  TBO559      0.0985
     18  C13      146.5600  -22.2010   76.6830 C.2   559  TBO559     -0.0172
     19  C14      146.4350  -21.8280   77.9440 C.2   559  TBO559     -0.0465
     20  C15      145.0020  -21.5010   78.1680 C.3   559  TBO559      0.0261
     21  C16      147.6270  -21.7450   78.8640 C.3   559  TBO559      0.0261
@<TRIPOS>BOND
     1     4     3    2
     2     3     1    2
     3     3     5    1
     4     7     5    1
     5     7     8    1
     6     1     2    2
     7     5     6    1
     8    16     8    1
     9     8     9    1
    10     2     6    1
    11     2    15    1
    12     6    11    1
    13    15    14    2
    14     9    10    1
    15     9    17    1
    16    11    10    1
    17    11    12    2
    18    17    18    1
    19    14    12    1
    20    12    13    1
    21    18    19    2
    22    19    20    1
    23    19    21    1
