@<TRIPOS>MOLECULE
1ho4_PXP_A_1.pdb
 16 16 0 0 0
SMALL
GASTEIGER

@<TRIPOS>ATOM
      1  N1         2.3270  -17.0120   -6.1530 N.ar  802  PXP802     -0.2452
      2  C2         1.0320  -16.6240   -6.4560 C.ar  802  PXP802      0.0979
      3  C2A        0.1230  -17.5420   -7.2900 C.3   802  PXP802      0.0555
      4  C3         0.5710  -15.3970   -5.9990 C.ar  802  PXP802      0.2073
      5  O3        -0.7160  -14.9820   -6.2860 O.3   802  PXP802     -0.2856
      6  C4         1.4280  -14.5630   -5.2310 C.ar  802  PXP802      0.0506
      7  C4A        0.9170  -13.2260   -4.7410 C.3   802  PXP802      0.2116
      8  O4A       -0.3710  -13.4260   -4.3020 O.3   802  PXP802     -0.2151
      9  C5         2.7490  -14.9790   -4.9290 C.ar  802  PXP802      0.0286
     10  C6         3.1830  -16.2070   -5.3980 C.ar  802  PXP802      0.0966
     11  C5A        3.7280  -14.1210   -4.0880 C.3   802  PXP802      0.1816
     12  O4P        3.3170  -14.1170   -2.7370 O.3   802  PXP802     -0.2653
     13  P          4.0760  -13.3670   -1.5960 P.3   802  PXP802      0.5329
     14  O1P        3.3400  -13.8440   -0.4260 O.3   802  PXP802     -0.1145
     15  O2P        3.8110  -11.8540   -1.9420 O.2   802  PXP802     -0.2224
     16  O3P        5.5230  -13.5700   -1.5680 O.3   802  PXP802     -0.1145
@<TRIPOS>BOND
     1     3     2    1
     2     2     1   ar
     3     2     4   ar
     4     5     4    1
     5     1    10   ar
     6     4     6   ar
     7    10     9   ar
     8     6     9   ar
     9     6     7    1
    10     9    11    1
    11     7     8    1
    12    11    12    1
    13    12    13    1
    14    15    13    2
    15    13    16    1
    16    13    14    1
