@<TRIPOS>MOLECULE
1ho5_ADN_A_1.pdb
 19 21 0 0 0
SMALL
GASTEIGER

@<TRIPOS>ATOM
      1  O5'       24.4390   12.6520   83.3080 O.3   1604  ADN1604    -0.2176
      2  C5'       24.8440   13.7540   82.5090 C.3   1604  ADN1604     0.2143
      3  C4'       24.9320   13.3390   81.0570 C.3   1604  ADN1604     0.1851
      4  O4'       23.6240   12.8650   80.6280 O.3   1604  ADN1604    -0.3134
      5  C3'       25.2490   14.4570   80.0720 C.3   1604  ADN1604     0.2186
      6  O3'       26.6530   14.7160   79.9990 O.3   1604  ADN1604    -0.2174
      7  C2'       24.6930   13.8930   78.7660 C.3   1604  ADN1604     0.2570
      8  O2'       25.5890   12.9580   78.2010 O.3   1604  ADN1604    -0.2130
      9  C1'       23.4220   13.1920   79.2630 C.3   1604  ADN1604     0.3186
     10  N9        22.2410   14.0470   79.1690 N.pl3 1604  ADN1604    -0.1439
     11  C8        21.7590   14.9540   80.0800 C.3   1604  ADN1604     0.3377
     12  N7        20.6710   15.5720   79.6900 N.2   1604  ADN1604    -0.2095
     13  C5        20.4160   15.0290   78.4410 C.2   1604  ADN1604     0.2526
     14  C6        19.4120   15.2690   77.4910 C.2   1604  ADN1604     0.4393
     15  N6        18.4100   16.1320   77.6630 N.pl3 1604  ADN1604     0.2180
     16  N1        19.4730   14.5830   76.3310 N.2   1604  ADN1604     0.0021
     17  C2        20.4750   13.7210   76.1480 C.3   1604  ADN1604     0.5254
     18  N3        21.4720   13.4020   76.9630 N.2   1604  ADN1604    -0.0055
     19  C4        21.3820   14.0980   78.1060 C.2   1604  ADN1604     0.3518
@<TRIPOS>BOND
     1    17    16    1
     2    17    18    1
     3    16    14    2
     4    18    19    2
     5    14    15    1
     6    14    13    1
     7    19    13    1
     8    19    10    1
     9     8     7    1
    10    13    12    2
    11     7     9    1
    12     7     5    1
    13    10     9    1
    14    10    11    1
    15     9     4    1
    16    12    11    1
    17     6     5    1
    18     5     3    1
    19     4     3    1
    20     3     2    1
    21     2     1    1
