@<TRIPOS>MOLECULE
1hon_GNH_A_1.pdb
 42 44 0 0 0
SMALL
GASTEIGER

@<TRIPOS>ATOM
      1  N3B       30.6560   62.9440  -18.3190 N.3   432  GNH432     -0.2343
      2  PB        31.8960   63.9750  -17.9040 P.3   432  GNH432      0.4378
      3  O1B       32.5630   63.5700  -16.6560 O.3   432  GNH432     -0.1267
      4  O2B       32.8330   64.3830  -18.9690 O.2   432  GNH432     -0.2374
      5  O3A       31.1950   65.4190  -17.7310 O.3   432  GNH432     -0.2374
      6  PA        30.2010   65.8430  -16.5350 P.3   432  GNH432      0.2212
      7  O1A       29.3920   64.6560  -16.2320 O.2   432  GNH432     -0.5170
      8  O2A       31.0580   66.4940  -15.5510 O.3   432  GNH432     -0.4371
      9  O5'       29.2500   66.9450  -17.2390 O.3   432  GNH432     -0.3245
     10  C5'       28.8110   68.1290  -16.5670 C.3   432  GNH432      0.0836
     11  C4'       29.5570   69.4380  -16.9260 C.3   432  GNH432      0.1131
     12  O4'       29.0260   70.4080  -16.0500 O.3   432  GNH432     -0.3474
     13  C3'       31.0350   69.4680  -16.6380 C.3   432  GNH432      0.1133
     14  O3'       31.7110   70.6980  -17.0090 O.3   432  GNH432     -0.3864
     15  C2'       31.0360   69.4670  -15.1690 C.3   432  GNH432      0.1266
     16  O2'       32.3370   69.8690  -14.7390 O.3   432  GNH432     -0.3849
     17  C1'       29.9730   70.5230  -14.9410 C.3   432  GNH432      0.1617
     18  N9        29.4650   70.4520  -13.6480 N.pl3 432  GNH432     -0.2241
     19  C8        29.0920   69.3820  -12.8480 C.2   432  GNH432      0.1451
     20  N7        28.4690   69.6570  -11.7220 N.2   432  GNH432     -0.3865
     21  C5        28.4250   71.0420  -11.7950 C.2   432  GNH432      0.2296
     22  C6        27.8750   71.9720  -10.8730 C.2   432  GNH432      0.2859
     23  O6        27.2520   71.7420   -9.8330 O.2   432  GNH432     -0.2668
     24  N1        28.0890   73.2690  -11.3320 N.am  432  GNH432     -0.2418
     25  C2        28.6830   73.5950  -12.5360 C.2   432  GNH432      0.2395
     26  N2        28.7260   74.8780  -12.8750 N.pl3 432  GNH432     -0.3206
     27  N3        29.1900   72.7350  -13.3990 N.2   432  GNH432     -0.3551
     28  C4        29.0350   71.5000  -12.9610 C.2   432  GNH432      0.2272
     29 HN31       30.7730   62.1930  -18.9840 H     432  GNH432      0.1299
     30 HN32       29.7650   63.0190  -17.8730 H     432  GNH432      0.1299
     31 H5'2       27.7600   68.2880  -16.8140 H     432  GNH432      0.0591
     32 H5'1       28.8680   67.9620  -15.4950 H     432  GNH432      0.0591
     33  H4'       29.3590   69.6930  -17.9630 H     432  GNH432      0.0647
     34  H3'       31.5340   68.5850  -17.0400 H     432  GNH432      0.0647
     35 HO3'       31.0420   71.3680  -17.2170 H     432  GNH432      0.2100
     36  H2'       30.7530   68.4790  -14.8160 H     432  GNH432      0.0663
     37 HO2'       32.6240   70.5370  -15.3730 H     432  GNH432      0.2101
     38  H1'       30.4420   71.5050  -15.0470 H     432  GNH432      0.0841
     39  H8        29.2160   68.3570  -13.1860 H     432  GNH432      0.1149
     40  HN1       27.8060   74.0550  -10.7650 H     432  GNH432      0.1589
     41 HN21       29.5860   75.2970  -13.0920 H     432  GNH432      0.1459
     42 HN22       27.9070   75.4120  -12.9380 H     432  GNH432      0.1459
@<TRIPOS>BOND
     1    29     1    1
     2     4     2    2
     3     1     2    1
     4     1    30    1
     5    33    11    1
     6     2     5    1
     7     2     3    1
     8     5     6    1
     9     9    10    1
    10     9     6    1
    11    35    14    1
    12    34    13    1
    13    14    13    1
    14    11    13    1
    15    11    10    1
    16    11    12    1
    17    31    10    1
    18    13    15    1
    19    10    32    1
    20     6     7    2
    21     6     8    1
    22    12    17    1
    23    37    16    1
    24    15    17    1
    25    15    36    1
    26    15    16    1
    27    38    17    1
    28    17    18    1
    29    18    28    1
    30    18    19    1
    31    27    28    2
    32    27    25    2
    33    39    19    1
    34    41    26    1
    35    28    21    1
    36    42    26    1
    37    26    25    1
    38    19    20    2
    39    25    24    1
    40    21    20    2
    41    21    22    1
    42    24    22   am
    43    24    40    1
    44    22    23    2
