@<TRIPOS>MOLECULE
1hoo_GNP_A_1.pdb
 44 46 0 0 0
SMALL
GASTEIGER

@<TRIPOS>ATOM
      1  PG        27.2030   60.8840  -18.6120 P.3   432  GNP432      0.4884
      2  O1G       27.3810   61.5840  -19.9230 O.2   432  GNP432     -0.2331
      3  O2G       27.9400   59.6000  -18.5280 O.3   432  GNP432     -0.1240
      4  O3G       25.8080   60.8330  -18.0720 O.3   432  GNP432     -0.1240
      5  N3B       27.9060   61.9690  -17.5180 N.3   432  GNP432     -0.0163
      6  PB        27.8460   63.6360  -17.7620 P.3   432  GNP432      0.4669
      7  O1B       28.4780   64.0170  -19.0300 O.2   432  GNP432     -0.2351
      8  O2B       26.4660   64.0770  -17.5030 O.3   432  GNP432     -0.1253
      9  O3A       28.7910   64.0420  -16.5060 O.3   432  GNP432     -0.2360
     10  PA        29.9570   65.1780  -16.4310 P.3   432  GNP432      0.2213
     11  O1A       30.2490   65.4460  -14.9870 O.3   432  GNP432     -0.4371
     12  O2A       31.0470   64.8460  -17.3980 O.2   432  GNP432     -0.5170
     13  O5'       29.1740   66.4710  -17.0030 O.3   432  GNP432     -0.3245
     14  C5'       28.6670   67.4970  -16.2380 C.3   432  GNP432      0.0836
     15  C4'       29.1650   68.6830  -16.9230 C.3   432  GNP432      0.1131
     16  O4'       28.8670   69.8080  -16.1010 O.3   432  GNP432     -0.3474
     17  C3'       30.6770   68.6560  -16.9740 C.3   432  GNP432      0.1133
     18  O3'       31.1790   69.4130  -18.0540 O.3   432  GNP432     -0.3864
     19  C2'       31.0360   69.1180  -15.5070 C.3   432  GNP432      0.1266
     20  O2'       32.3280   69.7550  -15.3130 O.3   432  GNP432     -0.3849
     21  C1'       29.8640   70.0230  -15.1070 C.3   432  GNP432      0.1617
     22  N9        29.3350   69.7630  -13.8450 N.pl3 432  GNP432     -0.2241
     23  C8        29.0380   68.6050  -13.1910 C.2   432  GNP432      0.1451
     24  N7        28.3510   68.6850  -12.0900 N.2   432  GNP432     -0.3865
     25  C5        28.1660   70.0630  -11.9850 C.2   432  GNP432      0.2296
     26  C6        27.4650   70.8240  -10.9630 C.2   432  GNP432      0.2859
     27  O6        26.8370   70.4270   -9.9740 O.2   432  GNP432     -0.2668
     28  N1        27.5240   72.1790  -11.2630 N.am  432  GNP432     -0.2418
     29  C2        28.1670   72.6750  -12.3760 C.2   432  GNP432      0.2395
     30  N2        28.1370   73.9980  -12.5020 N.pl3 432  GNP432     -0.3206
     31  N3        28.8220   71.9980  -13.3410 N.2   432  GNP432     -0.3551
     32  C4        28.7690   70.7020  -13.0640 C.2   432  GNP432      0.2272
     33 H5'2       27.5790   67.4910  -16.2450 H     432  GNP432      0.0591
     34 H5'1       29.0400   67.4190  -15.2270 H     432  GNP432      0.0591
     35  H4'       28.7170   68.7810  -17.9140 H     432  GNP432      0.0647
     36  H3'       31.0000   67.6340  -17.1810 H     432  GNP432      0.0647
     37 HO3'       31.7090   70.1390  -17.7360 H     432  GNP432      0.2100
     38  H2'       30.9820   68.2020  -14.9140 H     432  GNP432      0.0663
     39 HO2'       32.4780   69.7660  -14.3600 H     432  GNP432      0.2101
     40  H1'       30.1860   71.0630  -15.1310 H     432  GNP432      0.0841
     41  H8        29.5030   67.6580  -13.4580 H     432  GNP432      0.1149
     42  HN1       27.0810   72.8470  -10.6500 H     432  GNP432      0.1589
     43 HN21       28.9730   74.5010  -12.5910 H     432  GNP432      0.1459
     44 HN22       27.2900   74.4930  -12.5220 H     432  GNP432      0.1459
@<TRIPOS>BOND
     1     2     1    2
     2     7     6    2
     3     1     3    1
     4     1     4    1
     5     1     5    1
     6    18    37    1
     7    18    17    1
     8    35    15    1
     9     6     5    1
    10     6     8    1
    11     6     9    1
    12    12    10    2
    13    36    17    1
    14    13    10    1
    15    13    14    1
    16    17    15    1
    17    17    19    1
    18    15    14    1
    19    15    16    1
    20     9    10    1
    21    10    11    1
    22    33    14    1
    23    14    34    1
    24    16    21    1
    25    19    20    1
    26    19    21    1
    27    19    38    1
    28    20    39    1
    29    40    21    1
    30    21    22    1
    31    22    23    1
    32    22    32    1
    33    41    23    1
    34    31    32    2
    35    31    29    2
    36    23    24    2
    37    32    25    1
    38    43    30    1
    39    44    30    1
    40    30    29    1
    41    29    28    1
    42    24    25    2
    43    25    26    1
    44    28    26   am
    45    28    42    1
    46    26    27    2
