@<TRIPOS>MOLECULE
1hoo_GNH_A_1.pdb
 42 44 0 0 0
SMALL
GASTEIGER

@<TRIPOS>ATOM
      1  N3B       31.1440   63.0840  -19.3270 N.3   432  GNH432     -0.2343
      2  PB        31.2840   63.0510  -17.6780 P.3   432  GNH432      0.4378
      3  O1B       30.4690   61.9870  -17.0020 O.3   432  GNH432     -0.1267
      4  O2B       32.6630   63.3070  -17.2300 O.2   432  GNH432     -0.2374
      5  O3A       30.6230   64.5010  -17.4830 O.3   432  GNH432     -0.2374
      6  PA        29.4350   64.7890  -16.4290 P.3   432  GNH432      0.2212
      7  O1A       28.2460   63.9820  -16.8400 O.2   432  GNH432     -0.5170
      8  O2A       29.9260   64.7760  -15.0200 O.3   432  GNH432     -0.4371
      9  O5'       29.2170   66.3170  -16.9230 O.3   432  GNH432     -0.3245
     10  C5'       28.6980   67.4050  -16.2290 C.3   432  GNH432      0.0836
     11  C4'       29.2030   68.6000  -16.9300 C.3   432  GNH432      0.1131
     12  O4'       28.8640   69.7000  -16.0910 O.3   432  GNH432     -0.3474
     13  C3'       30.7230   68.6140  -16.9640 C.3   432  GNH432      0.1133
     14  O3'       31.2370   69.3200  -18.0920 O.3   432  GNH432     -0.3864
     15  C2'       31.0730   69.1160  -15.5040 C.3   432  GNH432      0.1266
     16  O2'       32.3370   69.8160  -15.3330 O.3   432  GNH432     -0.3849
     17  C1'       29.8580   69.9610  -15.0970 C.3   432  GNH432      0.1617
     18  N9        29.3600   69.7150  -13.8190 N.pl3 432  GNH432     -0.2241
     19  C8        29.0640   68.5690  -13.1390 C.2   432  GNH432      0.1451
     20  N7        28.3900   68.6730  -12.0350 N.2   432  GNH432     -0.3865
     21  C5        28.2120   70.0500  -11.9510 C.2   432  GNH432      0.2296
     22  C6        27.5290   70.8320  -10.9420 C.2   432  GNH432      0.2859
     23  O6        26.9050   70.4650   -9.9420 O.2   432  GNH432     -0.2668
     24  N1        27.5890   72.1800  -11.2650 N.am  432  GNH432     -0.2418
     25  C2        28.2200   72.6560  -12.3950 C.2   432  GNH432      0.2395
     26  N2        28.1830   73.9740  -12.5550 N.pl3 432  GNH432     -0.3206
     27  N3        28.8640   71.9560  -13.3510 N.2   432  GNH432     -0.3551
     28  C4        28.8050   70.6670  -13.0460 C.2   432  GNH432      0.2272
     29 HN31       31.2350   62.1530  -19.8030 H     432  GNH432      0.1299
     30 HN32       30.8830   63.8730  -19.9390 H     432  GNH432      0.1299
     31 H5'2       27.6110   67.4150  -16.2810 H     432  GNH432      0.0591
     32 H5'1       29.0340   67.3720  -15.2030 H     432  GNH432      0.0591
     33  H4'       28.7610   68.7200  -17.9230 H     432  GNH432      0.0647
     34  H3'       31.0670   67.5860  -17.0850 H     432  GNH432      0.0647
     35 HO3'       31.6510   70.1540  -17.8590 H     432  GNH432      0.2100
     36  H2'       31.0720   68.2100  -14.8930 H     432  GNH432      0.0663
     37 HO2'       32.5610   69.7430  -14.3970 H     432  GNH432      0.2101
     38  H1'       30.1330   71.0140  -15.1350 H     432  GNH432      0.0841
     39  H8        29.4870   67.6060  -13.4190 H     432  GNH432      0.1149
     40  HN1       27.1540   72.8630  -10.6580 H     432  GNH432      0.1589
     41 HN21       29.0050   74.5030  -12.5900 H     432  GNH432      0.1459
     42 HN22       27.3320   74.4670  -12.5720 H     432  GNH432      0.1459
@<TRIPOS>BOND
     1    30     1    1
     2    29     1    1
     3     1     2    1
     4    14    35    1
     5    14    13    1
     6    33    11    1
     7     2     5    1
     8     2     4    2
     9     2     3    1
    10     5     6    1
    11    34    13    1
    12    13    11    1
    13    13    15    1
    14    11    10    1
    15    11    12    1
    16     9     6    1
    17     9    10    1
    18     7     6    2
    19     6     8    1
    20    31    10    1
    21    10    32    1
    22    12    17    1
    23    15    16    1
    24    15    17    1
    25    15    36    1
    26    16    37    1
    27    38    17    1
    28    17    18    1
    29    18    19    1
    30    18    28    1
    31    39    19    1
    32    27    28    2
    33    27    25    2
    34    19    20    2
    35    28    21    1
    36    41    26    1
    37    42    26    1
    38    26    25    1
    39    25    24    1
    40    20    21    2
    41    21    22    1
    42    24    22   am
    43    24    40    1
    44    22    23    2
