@<TRIPOS>MOLECULE
1hop_GCP_A_1.pdb
 44 46 0 0 0
SMALL
GASTEIGER

@<TRIPOS>ATOM
      1  PG        27.9370   62.0470  -20.3320 P.3   432  GCP432      0.1295
      2  O1G       27.4480   63.3950  -20.7700 O.3   432  GCP432     -0.3567
      3  O2G       29.0520   61.5330  -21.1960 O.2   432  GCP432     -0.4595
      4  O3G       26.8680   61.0380  -20.0690 O.3   432  GCP432     -0.3567
      5  C3B       28.4870   62.4000  -18.6310 C.3   432  GCP432      0.1768
      6  PB        27.9000   63.7910  -17.6440 P.3   432  GCP432      0.3815
      7  O1B       27.6710   64.9670  -18.4910 O.2   432  GCP432     -0.2547
      8  O2B       26.7240   63.3030  -16.9060 O.3   432  GCP432     -0.1391
      9  O3A       29.1040   64.3920  -16.7330 O.3   432  GCP432     -0.2483
     10  PA        30.0160   65.7450  -16.8520 P.3   432  GCP432      0.2201
     11  O1A       30.6340   66.1250  -15.5450 O.3   432  GCP432     -0.4371
     12  O2A       30.9040   65.6210  -18.0190 O.2   432  GCP432     -0.5170
     13  O5'       28.9570   66.8940  -17.1460 O.3   432  GCP432     -0.3245
     14  C5'       28.8350   68.0210  -16.3200 C.3   432  GCP432      0.0836
     15  C4'       29.6020   69.2250  -16.7660 C.3   432  GCP432      0.1131
     16  O4'       29.1510   70.2440  -15.8290 O.3   432  GCP432     -0.3474
     17  C3'       31.1400   69.0680  -16.5700 C.3   432  GCP432      0.1133
     18  O3'       31.7610   69.7280  -17.6810 O.3   432  GCP432     -0.3864
     19  C2'       31.4000   69.6620  -15.0860 C.3   432  GCP432      0.1266
     20  O2'       32.6250   70.4010  -14.8430 O.3   432  GCP432     -0.3849
     21  C1'       30.1750   70.5580  -14.8280 C.3   432  GCP432      0.1617
     22  N9        29.6460   70.4880  -13.5550 N.pl3 432  GCP432     -0.2241
     23  C8        29.3790   69.4270  -12.7270 C.2   432  GCP432      0.1451
     24  N7        28.6750   69.6130  -11.6300 N.2   432  GCP432     -0.3865
     25  C5        28.4570   70.9930  -11.7600 C.2   432  GCP432      0.2296
     26  C6        27.7520   71.8590  -10.8910 C.2   432  GCP432      0.2859
     27  O6        27.3000   71.5510   -9.7840 O.2   432  GCP432     -0.2668
     28  N1        27.7190   73.1690  -11.3770 N.am  432  GCP432     -0.2418
     29  C2        28.3650   73.5670  -12.5270 C.2   432  GCP432      0.2395
     30  N2        28.3840   74.8680  -12.7730 N.pl3 432  GCP432     -0.3206
     31  N3        29.0200   72.7730  -13.3390 N.2   432  GCP432     -0.3551
     32  C4        29.0310   71.5030  -12.9120 C.2   432  GCP432      0.2272
     33 H5'2       27.7820   68.3010  -16.3500 H     432  GCP432      0.0591
     34 H5'1       29.1010   67.7900  -15.2880 H     432  GCP432      0.0591
     35  H4'       29.3370   69.4820  -17.7940 H     432  GCP432      0.0647
     36  H3'       31.4500   68.0260  -16.6390 H     432  GCP432      0.0647
     37 HO3'       31.2660   70.5270  -17.8750 H     432  GCP432      0.2100
     38  H2'       31.3710   68.7930  -14.4280 H     432  GCP432      0.0663
     39 HO2'       32.8640   70.8680  -15.6440 H     432  GCP432      0.2101
     40  H1'       30.4940   71.5880  -14.9980 H     432  GCP432      0.0841
     41  H8        29.7470   68.4300  -12.9660 H     432  GCP432      0.1149
     42  HN1       27.2050   73.8780  -10.8760 H     432  GCP432      0.1589
     43 HN21       28.0250   75.2080  -13.6220 H     432  GCP432      0.1459
     44 HN22       28.7850   75.4980  -12.1430 H     432  GCP432      0.1459
@<TRIPOS>BOND
     1     3     1    2
     2     2     1    1
     3     1     4    1
     4     1     5    1
     5     5     6    1
     6     7     6    2
     7    12    10    2
     8    37    18    1
     9    35    15    1
    10    18    17    1
    11     6     8    1
    12     6     9    1
    13    13    10    1
    14    13    14    1
    15    10     9    1
    16    10    11    1
    17    15    17    1
    18    15    14    1
    19    15    16    1
    20    36    17    1
    21    17    19    1
    22    33    14    1
    23    14    34    1
    24    16    21    1
    25    39    20    1
    26    19    20    1
    27    19    21    1
    28    19    38    1
    29    40    21    1
    30    21    22    1
    31    43    30    1
    32    22    32    1
    33    22    23    1
    34    31    32    2
    35    31    29    2
    36    41    23    1
    37    32    25    1
    38    30    29    1
    39    30    44    1
    40    23    24    2
    41    29    28    1
    42    25    24    2
    43    25    26    1
    44    28    26   am
    45    28    42    1
    46    26    27    2
