@<TRIPOS>MOLECULE
1hor_AGP_A_1.pdb
 16 15 0 0 0
SMALL
GASTEIGER

@<TRIPOS>ATOM
      1  C1        22.4470   -7.2640   23.4900 C.3   268  AGP268      0.2036
      2  O1        23.2150   -7.0860   22.3210 O.3   268  AGP268     -0.2187
      3  C2        22.2800   -5.9430   24.2290 C.3   268  AGP268      0.1575
      4  N2        23.5720   -5.4820   24.6940 N.3   268  AGP268     -0.1273
      5  C3        21.2730   -6.0880   25.4090 C.3   268  AGP268      0.2048
      6  O3        19.9950   -6.4690   24.9010 O.3   268  AGP268     -0.2187
      7  C4        21.7540   -7.1470   26.4310 C.3   268  AGP268      0.2163
      8  O4        21.1560   -8.4180   26.1110 O.3   268  AGP268     -0.2175
      9  C5        21.3420   -6.7020   27.8590 C.3   268  AGP268      0.2147
     10  O5        22.0320   -5.4840   28.2030 O.3   268  AGP268     -0.2176
     11  C6        21.6750   -7.7920   28.8920 C.3   268  AGP268      0.1892
     12  O6        23.0640   -8.0400   28.8980 O.3   268  AGP268     -0.2674
     13  P         23.4680   -9.4770   29.3820 P.3   268  AGP268      0.5327
     14  O1P       24.9310   -9.2760   29.5200 O.3   268  AGP268     -0.1145
     15  O2P       22.6820   -9.7670   30.6200 O.3   268  AGP268     -0.1145
     16  O3P       23.0780  -10.3000   28.2240 O.2   268  AGP268     -0.2224
@<TRIPOS>BOND
     1     2     1    1
     2     1     3    1
     3     3     4    1
     4     3     5    1
     5     6     5    1
     6     5     7    1
     7     8     7    1
     8     7     9    1
     9     9    10    1
    10     9    11    1
    11    16    13    2
    12    11    12    1
    13    12    13    1
    14    13    14    1
    15    13    15    1
