@<TRIPOS>MOLECULE
1hot_16G_B_1.pdb
 19 19 0 0 0
SMALL
GASTEIGER

@<TRIPOS>ATOM
      1  C1         9.3400  -19.8000   61.5640 C.3   271  16G271      0.2917
      2  C2        10.2980  -19.3160   62.6140 C.3   271  16G271      0.1871
      3  C3         9.5240  -18.6940   63.7130 C.3   271  16G271      0.2095
      4  C4         8.7780  -17.4810   63.2040 C.3   271  16G271      0.2135
      5  C5         7.8670  -17.8660   62.0140 C.3   271  16G271      0.1807
      6  C6         7.4370  -16.6490   61.2170 C.3   271  16G271      0.1859
      7  C7        12.0140  -20.9720   62.4210 C.2   271  16G271      0.2421
      8  C8        12.7060  -22.1880   63.0390 C.3   271  16G271      0.0964
      9  N2        11.0220  -20.4500   63.1150 N.am  271  16G271     -0.1991
     10  O1         8.5840  -20.8380   62.0900 O.3   271  16G271     -0.1879
     11  O3        10.4410  -18.3190   64.7260 O.3   271  16G271     -0.2183
     12  O4         7.9840  -16.9560   64.2480 O.3   271  16G271     -0.2176
     13  O5         8.5620  -18.7090   61.0470 O.3   271  16G271     -0.3243
     14  O6         6.8920  -15.6730   62.0470 O.3   271  16G271     -0.2675
     15  O7        12.3750  -20.4910   61.3390 O.2   271  16G271     -0.2733
     16  P          7.3910  -14.2220   62.4030 P.3   271  16G271      0.5327
     17  O1P        6.1160  -13.5450   62.1300 O.3   271  16G271     -0.1145
     18  O2P        8.4180  -13.9200   61.4450 O.2   271  16G271     -0.2224
     19  O3P        7.7260  -14.3490   63.8290 O.3   271  16G271     -0.1145
@<TRIPOS>BOND
     1    13     1    1
     2    13     5    1
     3     6     5    1
     4     6    14    1
     5    15     7    2
     6    18    16    2
     7     1    10    1
     8     1     2    1
     9     5     4    1
    10    14    16    1
    11    17    16    1
    12    16    19    1
    13     7     8    1
    14     7     9   am
    15     2     9    1
    16     2     3    1
    17     4     3    1
    18     4    12    1
    19     3    11    1
