@<TRIPOS>MOLECULE
1hox_F6P_A_1.pdb
 16 16 0 0 0
SMALL
GASTEIGER

@<TRIPOS>ATOM
      1  O1        13.1220    9.4350   32.7760 O.3   1001  F6P1001    -0.2148
      2  C1        13.9790   10.3570   32.2500 C.3   1001  F6P1001     0.2434
      3  C2        15.2390    9.7760   31.5790 C.3   1001  F6P1001     0.2807
      4  O2        16.2580   10.7920   31.5570 O.3   1001  F6P1001    -0.1896
      5  C3        14.9350    9.2720   30.1660 C.3   1001  F6P1001     0.2409
      6  O3        14.5850   10.3140   29.2880 O.3   1001  F6P1001    -0.2149
      7  C4        16.1920    8.4480   29.7970 C.3   1001  F6P1001     0.2167
      8  O4        15.9690    7.4850   28.7710 O.3   1001  F6P1001    -0.2175
      9  C5        16.6380    7.9090   31.1970 C.3   1001  F6P1001     0.1808
     10  O5        15.6960    8.5460   32.1100 O.3   1001  F6P1001    -0.3254
     11  C6        18.0170    8.2390   31.6170 C.3   1001  F6P1001     0.1859
     12  O6        18.8050    8.3830   30.3970 O.3   1001  F6P1001    -0.2675
     13  P         20.3400    8.1420   30.0330 P.3   1001  F6P1001     0.5327
     14  O1P       20.4360    7.2940   28.7760 O.2   1001  F6P1001    -0.2224
     15  O2P       21.0250    9.4870   29.8100 O.3   1001  F6P1001    -0.1145
     16  O3P       21.0700    7.4110   31.1320 O.3   1001  F6P1001    -0.1145
@<TRIPOS>BOND
     1     8     7    1
     2    14    13    2
     3     6     5    1
     4     7     5    1
     5     7     9    1
     6    15    13    1
     7    13    12    1
     8    13    16    1
     9     5     3    1
    10    12    11    1
    11     9    11    1
    12     9    10    1
    13     4     3    1
    14     3    10    1
    15     3     2    1
    16     2     1    1
