@<TRIPOS>MOLECULE
1hp0_AD3_A_1.pdb
 19 21 0 0 0
SMALL
GASTEIGER

@<TRIPOS>ATOM
      1  O5'       15.6700   23.5980   10.0340 O.3   1315  AD31315    -0.2176
      2  C5'       16.2980   24.8650    9.8470 C.3   1315  AD31315     0.2142
      3  C4'       15.4040   26.0780   10.2040 C.3   1315  AD31315     0.1825
      4  O4'       15.2460   25.8080   11.6320 O.3   1315  AD31315    -0.3353
      5  C3'       16.5030   27.1360   10.0180 C.3   1315  AD31315     0.2156
      6  O3'       15.9340   28.1520    9.1910 O.3   1315  AD31315    -0.2176
      7  C2'       16.9130   27.5680   11.4550 C.3   1315  AD31315     0.2272
      8  O2'       16.8170   28.9510   11.8080 O.3   1315  AD31315    -0.2161
      9  C1'       16.0220   26.7420   12.3880 C.3   1315  AD31315     0.2115
     10  N9        16.6310   26.2200   13.6550 N.3   1315  AD31315    -0.2195
     11  C8        17.2020   26.9880   14.7000 C.3   1315  AD31315     0.2032
     12  N7        17.6920   26.2980   15.7120 N.2   1315  AD31315    -0.2473
     13  C5        17.4420   24.9680   15.3340 C.2   1315  AD31315     0.1645
     14  C6        17.7230   23.6890   15.9660 C.2   1315  AD31315     0.4302
     15  N6        18.3310   23.5710   17.1430 N.pl3 1315  AD31315     0.2177
     16  N1        17.3320   22.5450   15.2950 N.2   1315  AD31315    -0.0279
     17  C2        16.7060   22.6260   14.0880 C.2   1315  AD31315     0.2332
     18  C3        16.3840   23.7440   13.3880 C.2   1315  AD31315     0.0464
     19  C4        16.7870   24.9050   14.0730 C.3   1315  AD31315     0.1351
@<TRIPOS>BOND
     1     6     5    1
     2     2     1    1
     3     2     3    1
     4     5     3    1
     5     5     7    1
     6     3     4    1
     7     7     8    1
     8     7     9    1
     9     4     9    1
    10     9    10    1
    11    18    19    1
    12    18    17    2
    13    10    19    1
    14    10    11    1
    15    19    13    1
    16    17    16    1
    17    11    12    1
    18    16    14    2
    19    13    12    2
    20    13    14    1
    21    14    15    1
