@<TRIPOS>MOLECULE
1hp1_ATP_A_1.pdb
 31 33 0 0 0
SMALL
GASTEIGER

@<TRIPOS>ATOM
      1  PG       -16.5320   70.3210    6.5220 P.3   606  ATP606      0.5373
      2  O1G      -15.9650   69.9880    7.8600 O.3   606  ATP606     -0.1143
      3  O2G      -15.6060   70.1220    5.3750 O.2   606  ATP606     -0.2221
      4  O3G      -17.3270   71.6100    6.5200 O.3   606  ATP606     -0.1143
      5  PB       -17.4420   67.5080    6.1640 P.3   606  ATP606      0.2277
      6  O1B      -18.8090   66.9030    6.3340 O.3   606  ATP606     -0.4368
      7  O2B      -16.6400   67.1300    4.9720 O.2   606  ATP606     -0.5168
      8  O3B      -17.6170   69.1450    6.2320 O.3   606  ATP606     -0.2258
      9  PA       -16.6270   66.1630    8.6310 P.3   606  ATP606      0.2189
     10  O1A      -17.9170   66.1690    9.3110 O.3   606  ATP606     -0.4371
     11  O2A      -16.0530   64.8650    8.1480 O.2   606  ATP606     -0.5170
     12  O3A      -16.7010   67.2730    7.5080 O.3   606  ATP606     -0.2700
     13  O5'      -15.6140   66.8720    9.5720 O.3   606  ATP606     -0.3112
     14  C5'      -14.2240   67.0560    9.2720 C.3   606  ATP606      0.1813
     15  C4'      -13.5130   67.1380   10.5870 C.3   606  ATP606      0.1821
     16  O4'      -13.7210   65.8660   11.2230 O.3   606  ATP606     -0.3135
     17  C3'      -12.0380   67.3190   10.5110 C.3   606  ATP606      0.2184
     18  O3'      -11.7230   68.7110   10.5100 O.3   606  ATP606     -0.2174
     19  C2'      -11.5330   66.5700   11.7260 C.3   606  ATP606      0.2570
     20  O2'      -11.5540   67.3210   12.9400 O.3   606  ATP606     -0.2130
     21  C1'      -12.5510   65.4260   11.9150 C.3   606  ATP606      0.3186
     22  N9       -12.1000   64.1460   11.3280 N.pl3 606  ATP606     -0.1439
     23  C8       -12.4090   63.5880   10.1080 C.3   606  ATP606      0.3377
     24  N7       -11.8570   62.4390    9.8720 N.2   606  ATP606     -0.2095
     25  C5       -11.1290   62.2170   11.0270 C.2   606  ATP606      0.2526
     26  C6       -10.2930   61.1480   11.4410 C.2   606  ATP606      0.4393
     27  N6       -10.0880   60.1030   10.6490 N.pl3 606  ATP606      0.2180
     28  N1        -9.7040   61.2150   12.6600 N.2   606  ATP606      0.0021
     29  C2        -9.9270   62.2760   13.4430 C.3   606  ATP606      0.5254
     30  N3       -10.6910   63.3530   13.1740 N.2   606  ATP606     -0.0055
     31  C4       -11.2750   63.2480   11.9290 C.2   606  ATP606      0.3518
@<TRIPOS>BOND
     1     7     5    2
     2     3     1    2
     3     5     8    1
     4     5     6    1
     5     5    12    1
     6     8     1    1
     7     4     1    1
     8     1     2    1
     9    12     9    1
    10    11     9    2
    11     9    10    1
    12     9    13    1
    13    14    13    1
    14    14    15    1
    15    24    23    1
    16    24    25    2
    17    23    22    1
    18    18    17    1
    19    17    15    1
    20    17    19    1
    21    15    16    1
    22    27    26    1
    23    25    26    1
    24    25    31    1
    25    16    21    1
    26    22    21    1
    27    22    31    1
    28    26    28    2
    29    19    21    1
    30    19    20    1
    31    31    30    2
    32    28    29    1
    33    30    29    1
