@<TRIPOS>MOLECULE
1hp5_NGT_A_1.pdb
 14 15 0 0 0
SMALL
GASTEIGER

@<TRIPOS>ATOM
      1  C1        -5.8060   65.5590    9.9600 C.3   511  NGT511      0.1925
      2  C2        -6.5790   66.4760    8.9660 C.3   511  NGT511      0.1740
      3  C3        -5.6020   67.2660    8.0300 C.3   511  NGT511      0.2101
      4  C4        -4.3700   67.8090    8.7750 C.3   511  NGT511      0.2137
      5  C5        -3.6630   66.6680    9.5380 C.3   511  NGT511      0.1820
      6  C6        -2.4400   67.1200   10.3320 C.3   511  NGT511      0.2142
      7  C7        -7.0380   64.4310    8.0570 C.2   511  NGT511      0.0815
      8  C8        -7.6950   63.3350    7.2510 C.3   511  NGT511      0.0587
      9  N2        -7.4390   65.6240    8.1550 N.2   511  NGT511     -0.2643
     10  S1        -5.5870   64.0020    8.9670 S.3   511  NGT511     -0.0689
     11  O3        -6.3010   68.3240    7.3920 O.3   511  NGT511     -0.2181
     12  O4        -3.4830   68.3940    7.8380 O.3   511  NGT511     -0.2176
     13  O5        -4.6030   66.0340   10.4880 O.3   511  NGT511     -0.3400
     14  O6        -1.7400   65.9970   10.8690 O.3   511  NGT511     -0.2176
@<TRIPOS>BOND
     1     8     7    1
     2    11     3    1
     3    12     4    1
     4     3     4    1
     5     3     2    1
     6     7     9    2
     7     7    10    1
     8     9     2    1
     9     4     5    1
    10     2     1    1
    11    10     1    1
    12     5     6    1
    13     5    13    1
    14     1    13    1
    15     6    14    1
