@<TRIPOS>MOLECULE
1hpb_HIS_P_1.pdb
 11 11 0 0 0
SMALL
GASTEIGER

@<TRIPOS>ATOM
      1  N         19.8170   31.6560   85.5100 N.3   240  HIS240     -0.1204
      2  CA        18.6890   31.5750   86.3730 C.3   240  HIS240      0.2002
      3  C         18.1290   30.1600   86.2690 C.2   240  HIS240      0.3823
      4  O         18.8190   29.2630   85.8280 O.co2 240  HIS240     -0.2440
      5  CB        17.7080   32.7090   85.9540 C.3   240  HIS240      0.0776
      6  CG        16.8400   32.5640   84.7040 C.2   240  HIS240      0.0767
      7  ND1       15.7520   33.2850   84.4640 N.2   240  HIS240     -0.2470
      8  CD2       16.9470   31.6020   83.7200 C.2   240  HIS240      0.1098
      9  CE1       15.1970   32.7620   83.3870 C.3   240  HIS240      0.2505
     10  NE2       15.9240   31.7590   82.9520 N.2   240  HIS240     -0.2415
     11  OXT       17.0120   29.9440   86.6610 O.co2 240  HIS240     -0.2440
@<TRIPOS>BOND
     1    10     9    1
     2    10     8    2
     3     9     7    1
     4     8     6    1
     5     7     6    2
     6     6     5    1
     7     1     2    1
     8     4     3   ar
     9     5     2    1
    10     3     2    1
    11     3    11   ar
