@<TRIPOS>MOLECULE
1hpc_LPA_A_1.pdb
 11 11 0 0 0
SMALL
GASTEIGER

@<TRIPOS>ATOM
      1  O1        23.0070   -8.1150    9.8120 O.2   132  LPA132     -0.2883
      2  C1        22.6730   -9.2510    9.5690 C.2   132  LPA132      0.2074
      3  C2        23.5380  -10.4390    9.8840 C.3   132  LPA132      0.0722
      4  C3        23.8130  -10.7590   11.3720 C.3   132  LPA132      0.0082
      5  C4        25.2730  -11.2230   11.5500 C.3   132  LPA132      0.0014
      6  C5        25.3520  -12.7430   11.3250 C.3   132  LPA132      0.0117
      7  C6        26.0400  -13.1950   10.0020 C.3   132  LPA132      0.0588
      8  C7        26.9670  -14.4320   10.0700 C.3   132  LPA132      0.0242
      9  C8        26.4470  -15.5390    9.1690 C.3   132  LPA132      0.0696
     10  S8        24.6680  -15.3960    9.0100 S.3   132  LPA132     -0.0821
     11  S6        24.8870  -13.3940    8.5740 S.3   132  LPA132     -0.0830
@<TRIPOS>BOND
     1    11    10    1
     2    11     7    1
     3    10     9    1
     4     9     8    1
     5     2     1    2
     6     2     3    1
     7     3     4    1
     8     7     8    1
     9     7     6    1
    10     6     5    1
    11     4     5    1
