@<TRIPOS>MOLECULE
1hpg_III_B_1.pdb
 34 34 0 0 0
SMALL
GASTEIGER

@<TRIPOS>ATOM
      1  O1        35.1300    5.2440   -4.3990 O.2   300  BOC300     -0.2246
      2  C         34.1990    5.0650   -3.5880 C.2   300  BOC300      0.4213
      3  O2        33.3950    3.9270   -3.8590 O.3   300  BOC300     -0.4408
      4  CT        32.7330    3.7100   -5.0740 C.3   300  BOC300      0.1379
      5  C1        32.4000    4.9690   -5.8930 C.3   300  BOC300      0.0437
      6  C2        33.6370    2.9590   -6.0640 C.3   300  BOC300      0.0437
      7  C3        31.5340    2.9300   -4.6270 C.3   300  BOC300      0.0437
      8  N         34.4810    5.2380   -2.3130 N.am  301  ALA301     -0.1611
      9  CA        33.5320    5.0260   -1.2070 C.3   301  ALA301      0.1762
     10  C         32.2260    5.7970   -1.3960 C.2   301  ALA301      0.2617
     11  O         32.2210    6.9640   -1.8430 O.2   301  ALA301     -0.2715
     12  CB        34.1250    5.4430    0.1280 C.3   301  ALA301      0.0335
     13  N         31.1210    5.1350   -1.0900 N.am  302  ALA302     -0.1964
     14  CA        29.7980    5.7300   -1.2100 C.3   302  ALA302      0.1713
     15  C         28.9510    5.3220   -0.0130 C.2   302  ALA302      0.2458
     16  O         29.1250    4.2080    0.4830 O.2   302  ALA302     -0.2730
     17  CB        29.1360    5.2150   -2.4630 C.3   302  ALA302      0.0333
     18  N         28.0480    6.1660    0.5170 N.am  303  PRO303     -0.2716
     19  CA        27.0720    5.7780    1.5290 C.3   303  PRO303      0.1536
     20  C         26.1650    4.6780    0.9800 C.2   303  PRO303      0.2599
     21  O         25.7750    4.7250   -0.1990 O.2   303  PRO303     -0.2715
     22  CB        26.3060    7.0450    1.8400 C.3   303  PRO303      0.0310
     23  CG        27.1460    8.1560    1.2730 C.3   303  PRO303      0.0237
     24  CD        27.7610    7.5120    0.0390 C.3   303  PRO303      0.0939
     25  N         25.7490    3.7260    1.8020 N.am  304  GLU304     -0.1942
     26  CA        24.9030    2.6530    1.3480 C.3   304  GLU304      0.1984
     27  C         23.5380    2.6730    2.0400 C.2   304  GLU304      0.3842
     28  O         23.0210    3.7570    2.2730 O.co2 304  GLU304     -0.2437
     29  CB        25.6380    1.3400    1.5780 C.3   304  GLU304      0.0451
     30  CG        26.7710    1.2100    0.5560 C.3   304  GLU304      0.1164
     31  CD        27.6280   -0.0370    0.6890 C.2   304  GLU304      0.3649
     32  OE1       27.7600   -0.5930    1.7740 O.co2 304  GLU304     -0.2457
     33  OE2       28.1970   -0.4420   -0.3310 O.co2 304  GLU304     -0.2457
     34  OXT       22.9680    1.6410    2.3350 O.co2 304  GLU304     -0.2437
@<TRIPOS>BOND
     1     6     4    1
     2     5     4    1
     3     4     7    1
     4     4     3    1
     5     1     2    2
     6     3     2    1
     7     2     8   am
     8    17    14    1
     9     8     9    1
    10    11    10    2
    11    10     9    1
    12    10    13   am
    13    14    13    1
    14    14    15    1
    15     9    12    1
    16    33    31   ar
    17    21    20    2
    18    15    16    2
    19    15    18   am
    20    24    18    1
    21    24    23    1
    22    18    19    1
    23    30    31    1
    24    30    29    1
    25    31    32   ar
    26    20    19    1
    27    20    25   am
    28    23    22    1
    29    26    29    1
    30    26    25    1
    31    26    27    1
    32    19    22    1
    33    27    28   ar
    34    27    34   ar
