@<TRIPOS>MOLECULE
1hpk_ACA_A_1.pdb
 22 21 0 0 0
SMALL
GASTEIGER

@<TRIPOS>ATOM
      1  C1         6.8040   -2.1080    5.7500 C.2    80  ACA80       0.3560
      2  O1         7.8830   -1.9140    5.2150 O.co2  80  ACA80      -0.2464
      3  O2         6.5240   -1.9550    6.9260 O.co2  80  ACA80      -0.2464
      4  C2         5.6740   -2.5970    4.8410 C.3    80  ACA80       0.0492
      5  C3         4.4750   -3.0130    5.6930 C.3    80  ACA80      -0.0429
      6  C4         4.8400   -4.2590    6.5050 C.3    80  ACA80      -0.0543
      7  C5         4.5240   -4.0110    7.9850 C.3    80  ACA80      -0.0689
      8  C6         3.0340   -3.6930    8.1410 C.3    80  ACA80      -0.0963
      9  N6         2.4240   -4.5500    9.1960 N.4    80  ACA80       0.3781
     10  H21        6.0220   -3.4400    4.2630 H      80  ACA80       0.0379
     11  H22        5.3850   -1.8020    4.1730 H      80  ACA80       0.0379
     12  H31        3.6340   -3.2330    5.0500 H      80  ACA80       0.0270
     13  H32        4.2100   -2.2100    6.3610 H      80  ACA80       0.0270
     14  H41        5.8920   -4.4710    6.3900 H      80  ACA80       0.0265
     15  H42        4.2690   -5.1020    6.1490 H      80  ACA80       0.0265
     16  H51        5.1110   -3.1810    8.3480 H      80  ACA80       0.0247
     17  H52        4.7680   -4.8930    8.5600 H      80  ACA80       0.0247
     18  H61        2.5260   -3.8690    7.2050 H      80  ACA80       0.0049
     19  H62        2.9130   -2.6560    8.4170 H      80  ACA80       0.0049
     20 HN61        2.3210   -4.0000   10.0720 H      80  ACA80      -0.0901
     21 HN62        3.0370   -5.3710    9.3730 H      80  ACA80      -0.0901
     22 HN63        1.4900   -4.8780    8.8800 H      80  ACA80      -0.0901
@<TRIPOS>BOND
     1    11     4    1
     2    10     4    1
     3     4     5    1
     4     4     1    1
     5    12     5    1
     6     2     1   ar
     7     5    13    1
     8     5     6    1
     9     1     3   ar
    10    15     6    1
    11    14     6    1
    12     6     7    1
    13    18     8    1
    14     7     8    1
    15     7    16    1
    16     7    17    1
    17     8    19    1
    18     8     9    1
    19    22     9    1
    20     9    21    1
    21     9    20    1
