@<TRIPOS>MOLECULE
1hpm_ADP_A_1.pdb
 27 29 0 0 0
SMALL
GASTEIGER

@<TRIPOS>ATOM
      1  PB        17.6410   28.9280   16.4510 P.3   486  ADP486      0.5373
      2  O1B       17.4860   29.6290   17.7400 O.3   486  ADP486     -0.1143
      3  O2B       18.6110   27.8440   16.4510 O.3   486  ADP486     -0.1143
      4  O3B       16.3120   28.5110   15.9020 O.2   486  ADP486     -0.2221
      5  PA        19.4820   30.8930   15.1460 P.3   486  ADP486      0.2231
      6  O1A       20.6790   30.0100   15.2300 O.3   486  ADP486     -0.4370
      7  O2A       19.2660   31.7230   13.9460 O.2   486  ADP486     -0.5169
      8  O3A       18.1340   30.0290   15.4440 O.3   486  ADP486     -0.2261
      9  O5'       19.6300   31.8800   16.3790 O.3   486  ADP486     -0.3111
     10  C5'       18.7380   32.9780   16.5820 C.3   486  ADP486      0.1813
     11  C4'       19.3070   33.9280   17.5890 C.3   486  ADP486      0.1821
     12  O4'       20.5050   34.4800   17.0190 O.3   486  ADP486     -0.3135
     13  C3'       18.3490   35.1100   17.9130 C.3   486  ADP486      0.2184
     14  O3'       18.3750   35.3210   19.3330 O.3   486  ADP486     -0.2174
     15  C2'       19.0110   36.2470   17.1670 C.3   486  ADP486      0.2570
     16  O2'       18.7650   37.5150   17.8100 O.3   486  ADP486     -0.2130
     17  C1'       20.4840   35.8690   17.2870 C.3   486  ADP486      0.3186
     18  N9        21.3220   36.5350   16.2890 N.pl3 486  ADP486     -0.1439
     19  C8        21.2580   36.5090   14.8930 C.3   486  ADP486      0.3377
     20  N7        22.1710   37.2670   14.3220 N.2   486  ADP486     -0.2095
     21  C5        22.8700   37.8130   15.4070 C.2   486  ADP486      0.2526
     22  C6        23.9660   38.6980   15.4920 C.2   486  ADP486      0.4393
     23  N6        24.4930   39.2490   14.4130 N.pl3 486  ADP486      0.2180
     24  N1        24.4230   39.0260   16.7200 N.2   486  ADP486      0.0021
     25  C2        23.8320   38.5170   17.7890 C.3   486  ADP486      0.5254
     26  N3        22.7980   37.6880   17.8540 N.2   486  ADP486     -0.0055
     27  C4        22.3570   37.3690   16.6040 C.2   486  ADP486      0.3518
@<TRIPOS>BOND
     1     7     5    2
     2    20    19    1
     3    20    21    2
     4    23    22    1
     5    19    18    1
     6     5     6    1
     7     5     8    1
     8     5     9    1
     9    21    22    1
    10    21    27    1
    11     8     1    1
    12    22    24    2
    13     4     1    2
    14    18    27    1
    15    18    17    1
    16     9    10    1
    17     1     3    1
    18     1     2    1
    19    10    11    1
    20    27    26    2
    21    24    25    1
    22    12    17    1
    23    12    11    1
    24    15    17    1
    25    15    16    1
    26    15    13    1
    27    11    13    1
    28    25    26    1
    29    13    14    1
