@<TRIPOS>MOLECULE
1hpo_UNI_B_1.pdb
 36 40 0 0 0
SMALL
GASTEIGER

@<TRIPOS>ATOM
      1  CA        13.6440   23.0550    5.7580 C.ar  100  UNI100      0.0960
      2  CA2       12.4620   22.4300    6.2330 C.ar  100  UNI100      0.3451
      3  OA2       12.5220   21.3710    6.7520 O.2   100  UNI100     -0.2447
      4  OA3       11.2320   22.9530    6.0750 O.2   100  UNI100     -0.4214
      5  CA4       11.1730   24.1780    5.3710 C.ar  100  UNI100      0.1478
      6  CA5       12.2830   24.8340    4.8700 C.ar  100  UNI100      0.0515
      7  CA6       13.5440   24.2550    5.0790 C.ar  100  UNI100      0.1971
      8  OA6       14.7200   24.8210    4.7030 O.3   100  UNI100     -0.2869
      9  CB1       15.3970   21.2880    5.0660 C.ar  100  UNI100     -0.0168
     10  CB2       15.1540   21.3690    3.6670 C.ar  100  UNI100     -0.0039
     11  CB3       15.5220   20.2830    2.8340 C.ar  100  UNI100      0.0011
     12  CB4       16.1290   19.1410    3.3570 C.ar  100  UNI100      0.0180
     13  CB5       16.3510   19.0480    4.7530 C.ar  100  UNI100      0.0907
     14  CB6       15.9960   20.1240    5.5870 C.ar  100  UNI100      0.0141
     15  CG1       15.0550   22.4530    5.9880 C.3   100  UNI100      0.0541
     16  CG2       15.5140   22.2140    7.4440 C.3   100  UNI100      0.0084
     17  CG3       15.4090   23.3410    8.4740 C.3   100  UNI100      0.0007
     18  CG4       16.7720   22.9310    7.9340 C.3   100  UNI100      0.0007
     19  CD1        9.7560   24.7210    5.2000 C.2   100  UNI100      0.0374
     20  CD2        9.0920   24.5760    3.8190 C.2   100  UNI100      0.0028
     21  CD3        9.8770   23.8900    2.7510 C.2   100  UNI100     -0.0045
     22  CD4       11.0450   24.6630    2.1980 C.2   100  UNI100     -0.0258
     23  CD5       11.2850   26.0690    2.7980 C.3   100  UNI100      0.0309
     24  CD6       12.1320   26.1330    4.1020 C.3   100  UNI100      0.0374
     25  N         16.9830   17.9420    5.3080 N.pl3 100  UNI100     -0.0966
     26  S         18.5350   18.0980    5.4930 S.O2  100  UNI100      0.0928
     27  O1        18.8700   16.6830    5.5030 O.2   100  UNI100     -0.1483
     28  O2        18.9170   18.8390    4.2920 O.2   100  UNI100     -0.1483
     29  CZ1       19.1800   18.9950    6.8380 C.ar  100  UNI100      0.1271
     30  CZ2       19.1190   18.5400    8.1890 C.ar  100  UNI100      0.0209
     31  CZ3       19.6730   19.3400    9.2240 C.ar  100  UNI100      0.0117
     32  CZ4       20.2810   20.5780    8.8980 C.ar  100  UNI100      0.0685
     33  CZ5       20.3310   21.0200    7.5600 C.ar  100  UNI100      0.0117
     34  CZ6       19.7850   20.2350    6.5360 C.ar  100  UNI100      0.0209
     35  CZ7       20.8740   21.3540    9.8890 C.1   100  UNI100      0.1004
     36  NZ7       21.3780   22.0050   10.7220 N.1   100  UNI100     -0.1908
@<TRIPOS>BOND
     1    22    21    2
     2    22    23    1
     3    21    20    1
     4    23    24    1
     5    11    12   ar
     6    11    10   ar
     7    12    13   ar
     8    10     9   ar
     9    20    19    2
    10    24     6    1
    11    28    26    2
    12     8     7    1
    13    13    25    1
    14    13    14   ar
    15     6     7   ar
    16     6     5   ar
    17     9    14   ar
    18     9    15    1
    19     7     1   ar
    20    19     5    1
    21    25    26    1
    22     5     4   ar
    23    26    27    2
    24    26    29    1
    25     1    15    1
    26     1     2   ar
    27    15    16    1
    28     4     2   ar
    29     2     3    2
    30    34    29   ar
    31    34    33   ar
    32    29    30   ar
    33    16    18    1
    34    16    17    1
    35    33    32   ar
    36    18    17    1
    37    30    31   ar
    38    32    31   ar
    39    32    35    1
    40    35    36    3
