@<TRIPOS>MOLECULE
1hps_RUN_B_1.pdb
 47 50 0 0 0
SMALL
GASTEIGER

@<TRIPOS>ATOM
      1  C1'       -7.7930   17.1890   22.4770 C.2   400  RUN400      0.2006
      2  O1'       -7.8030   18.3960   22.1770 O.2   400  RUN400     -0.2889
      3  C2D       -7.6940   16.1280   21.3860 C.3   400  RUN400      0.0644
      4  C3'       -6.5780   16.4880   20.4110 C.3   400  RUN400      0.0082
      5  C4D       -9.0400   16.1410   20.6690 C.3   400  RUN400      0.0082
      6  N1'       -7.9670   17.8950   24.6830 N.2   400  RUN400     -0.3545
      7  C2'       -8.0280   17.2320   25.8340 C.1   400  RUN400      0.0586
      8  N3'       -7.9880   15.9030   25.7660 N.2   400  RUN400     -0.2060
      9  C4'       -7.8960   15.6560   24.4730 C.3   400  RUN400      0.1993
     10  C5'       -7.8820   16.8800   23.8270 C.2   400  RUN400      0.1796
     11  C1        -8.1210   18.0950   27.1080 C.3   400  RUN400      0.1039
     12  C2        -8.9090   17.4250   28.1990 C.3   400  RUN400      0.0509
     13  C3       -10.4200   17.3680   28.0950 C.3   400  RUN400      0.1732
     14  O3       -10.9520   18.3750   28.9430 O.3   400  RUN400     -0.2213
     15  C4       -10.9490   15.9810   28.5710 C.3   400  RUN400      0.1299
     16  N5       -11.0340   16.0070   30.0190 N.am  400  RUN400     -0.2028
     17  C6       -10.2110   15.2730   30.7500 C.2   400  RUN400      0.2614
     18  O6        -9.3790   14.5270   30.2240 O.2   400  RUN400     -0.2715
     19  C7       -10.4230   15.4430   32.2530 C.3   400  RUN400      0.1760
     20  N8       -11.3190   14.3780   32.6270 N.am  400  RUN400     -0.1611
     21  C9       -12.4970   14.6570   33.1870 C.2   400  RUN400      0.4218
     22  O9       -12.7940   15.8340   33.3850 O.2   400  RUN400     -0.2245
     23  C10       -9.0690   15.3820   33.0050 C.3   400  RUN400      0.0291
     24  C11       -9.2320   15.4490   34.5170 C.3   400  RUN400      0.0023
     25  C12       -8.2850   16.6300   32.6380 C.3   400  RUN400      0.0023
     26  CA        -6.7480   18.4180   27.7230 C.3   400  RUN400      0.0423
     27  C1A       -5.6400   18.6420   26.7080 C.ar  400  RUN400     -0.0211
     28  C2A       -4.6230   17.6810   26.5980 C.ar  400  RUN400     -0.0042
     29  C3A       -3.6490   17.8310   25.6130 C.ar  400  RUN400     -0.0003
     30  C4A       -3.6930   18.9330   24.7510 C.ar  400  RUN400     -0.0000
     31  C5A       -4.7040   19.8920   24.8720 C.ar  400  RUN400     -0.0003
     32  C6A       -5.6780   19.7480   25.8530 C.ar  400  RUN400     -0.0042
     33  CB       -12.3350   15.6500   28.0040 C.3   400  RUN400      0.0506
     34  C1B      -12.8270   14.2790   28.4010 C.ar  400  RUN400     -0.0204
     35  C2B      -12.2480   13.1460   27.8290 C.ar  400  RUN400     -0.0042
     36  C3B      -12.6870   11.8780   28.2140 C.ar  400  RUN400     -0.0003
     37  C4B      -13.6990   11.7460   29.1660 C.ar  400  RUN400     -0.0000
     38  C5B      -14.2750   12.8770   29.7340 C.ar  400  RUN400     -0.0003
     39  C6B      -13.8460   14.1510   29.3580 C.ar  400  RUN400     -0.0042
     40  OC       -13.4230   13.6870   33.5640 O.3   400  RUN400     -0.4285
     41  CC       -12.8350   12.4060   33.8000 C.3   400  RUN400      0.2368
     42  C1C      -13.7670   11.2300   33.8450 C.ar  400  RUN400      0.0213
     43  C2C      -14.7550   11.1890   34.8220 C.ar  400  RUN400     -0.0007
     44  C3C      -15.5890   10.0820   34.8940 C.ar  400  RUN400     -0.0002
     45  C4C      -15.4310    9.0330   33.9910 C.ar  400  RUN400     -0.0000
     46  C5C      -14.4460    9.0860   33.0160 C.ar  400  RUN400     -0.0002
     47  C6C      -13.6060   10.1860   32.9380 C.ar  400  RUN400     -0.0007
@<TRIPOS>BOND
     1     4     3    1
     2     5     3    1
     3     3     1    1
     4     2     1    2
     5     1    10    1
     6    10     9    1
     7    10     6    2
     8     9     8    1
     9     6     7    2
    10    30    31   ar
    11    30    29   ar
    12    31    32   ar
    13    29    28   ar
    14     8     7    2
    15     7    11    1
    16    32    27   ar
    17    28    27   ar
    18    27    26    1
    19    11    26    1
    20    11    12    1
    21    35    36   ar
    22    35    34   ar
    23    33    34    1
    24    33    15    1
    25    13    12    1
    26    13    15    1
    27    13    14    1
    28    36    37   ar
    29    34    39   ar
    30    15    16    1
    31    37    38   ar
    32    39    38   ar
    33    16    17   am
    34    18    17    2
    35    17    19    1
    36    19    20    1
    37    19    23    1
    38    20    21   am
    39    25    23    1
    40    47    46   ar
    41    47    42   ar
    42    23    24    1
    43    46    45   ar
    44    21    22    2
    45    21    40    1
    46    40    41    1
    47    41    42    1
    48    42    43   ar
    49    45    44   ar
    50    43    44   ar
