@<TRIPOS>MOLECULE
1hpu_A12_A_1.pdb
 27 29 0 0 0
SMALL
GASTEIGER

@<TRIPOS>ATOM
      1  PB        -2.9040   -0.4200   -1.8380 P.3   1602  A121602     0.1295
      2  O1B       -1.6010   -0.8300   -2.4600 O.2   1602  A121602    -0.4595
      3  O2B       -2.8800   -0.6540   -0.3630 O.3   1602  A121602    -0.3567
      4  O3B       -3.1720    1.0220   -2.0740 O.3   1602  A121602    -0.3567
      5  PA        -5.8500   -0.8760   -1.9480 P.3   1602  A121602     0.3770
      6  O1A       -5.8730   -0.8620   -0.4610 O.3   1602  A121602    -0.1394
      7  O2A       -6.8600   -1.8190   -2.4900 O.2   1602  A121602    -0.2550
      8  C3A       -4.2360   -1.3560   -2.5110 C.3   1602  A121602     0.1765
      9  O5'       -6.1600    0.5990   -2.4620 O.3   1602  A121602    -0.2897
     10  C5'       -6.1360    0.8370   -3.8540 C.3   1602  A121602     0.1836
     11  C4'       -7.0180    2.0090   -4.1970 C.3   1602  A121602     0.1822
     12  O4'       -6.4280    3.2420   -3.6920 O.3   1602  A121602    -0.3135
     13  C3'       -7.1470    2.2220   -5.6930 C.3   1602  A121602     0.2184
     14  O3'       -8.2030    1.3860   -6.1730 O.3   1602  A121602    -0.2174
     15  C2'       -7.4570    3.7120   -5.7830 C.3   1602  A121602     0.2570
     16  O2'       -8.7980    3.9780   -5.4710 O.3   1602  A121602    -0.2130
     17  C1'       -6.5820    4.2770   -4.6530 C.3   1602  A121602     0.3186
     18  N9        -5.2520    4.6980   -5.0960 N.pl3 1602  A121602    -0.1439
     19  C8        -4.0690    4.0250   -4.9190 C.3   1602  A121602     0.3377
     20  N7        -3.0240    4.6420   -5.4280 N.2   1602  A121602    -0.2095
     21  C5        -3.5570    5.8010   -5.9700 C.2   1602  A121602     0.2526
     22  C6        -2.9650    6.8820   -6.6340 C.2   1602  A121602     0.4393
     23  N6        -1.6550    6.9790   -6.8570 N.pl3 1602  A121602     0.2180
     24  N1        -3.7710    7.8770   -7.0620 N.2   1602  A121602     0.0021
     25  C2        -5.0820    7.7900   -6.8070 C.3   1602  A121602     0.5254
     26  N3        -5.7600    6.8280   -6.1740 N.2   1602  A121602    -0.0055
     27  C4        -4.9280    5.8490   -5.7780 C.2   1602  A121602     0.3518
@<TRIPOS>BOND
     1    24    25    1
     2    24    22    2
     3    23    22    1
     4    25    26    1
     5    22    21    1
     6    26    27    2
     7    14    13    1
     8    21    27    1
     9    21    20    2
    10    15    13    1
    11    15    16    1
    12    15    17    1
    13    27    18    1
    14    13    11    1
    15    20    19    1
    16    18    19    1
    17    18    17    1
    18    17    12    1
    19    11    10    1
    20    11    12    1
    21    10     9    1
    22     8     5    1
    23     8     1    1
    24     7     5    2
    25     9     5    1
    26     2     1    2
    27     4     1    1
    28     5     6    1
    29     1     3    1
