@<TRIPOS>MOLECULE
1hpv_478_B_1.pdb
 35 37 0 0 0
SMALL
GASTEIGER

@<TRIPOS>ATOM
      1  C1        11.1690   14.9770    2.4450 C.3   200  478200      0.1856
      2  C2         9.1760   16.2240    2.9970 C.3   200  478200      0.0784
      3  C3        10.1490   15.7020    5.9990 C.2   200  478200      0.4211
      4  C4        10.1130   15.1490    3.5480 C.3   200  478200      0.2024
      5  C5        10.9600   16.6620    8.1450 C.3   200  478200      0.1347
      6  C6        10.3870   18.1190    8.4840 C.3   200  478200      0.1898
      7  C7        12.4160   16.2780    8.6520 C.3   200  478200      0.0508
      8  C8        12.8310   14.9140    8.1700 C.ar  200  478200     -0.0204
      9  C9        13.6360   14.8250    6.9780 C.ar  200  478200     -0.0042
     10  C10       12.2990   13.7060    8.7650 C.ar  200  478200     -0.0042
     11  C11       13.8910   13.5660    6.3310 C.ar  200  478200     -0.0003
     12  C12       12.5740   12.4340    8.1160 C.ar  200  478200     -0.0003
     13  C13       13.3710   12.3570    6.8870 C.ar  200  478200     -0.0000
     14  C14        9.6950   18.4110    9.8910 C.3   200  478200      0.1304
     15  C15        7.3810   17.6970    9.1700 C.3   200  478200      0.0958
     16  C16        6.1860   18.4060    9.7900 C.3   200  478200      0.0178
     17  C17        8.8320   16.3810   12.8860 C.ar  200  478200      0.1223
     18  C18       10.0730   16.3630   13.6040 C.ar  200  478200      0.0213
     19  C19       10.0920   16.6920   14.9920 C.ar  200  478200      0.0194
     20  C20        8.8650   17.0540   15.6200 C.ar  200  478200      0.0892
     21  C21        7.6520   17.0060   14.9260 C.ar  200  478200      0.0194
     22  C22        7.6390   16.6690   13.5550 C.ar  200  478200      0.0213
     23  C23        6.1460   19.9370    9.6140 C.3   200  478200      0.0015
     24  C24        4.8220   17.6950    9.7310 C.3   200  478200      0.0015
     25  C25        9.7510   16.6260    1.6330 C.3   200  478200      0.1461
     26  N1        10.9400   16.4720    6.7130 N.am  200  478200     -0.1675
     27  N2         8.5160   17.5800   10.2280 N.3   200  478200     -0.1529
     28  N3         8.8400   17.3220   16.8980 N.pl3 200  478200     -0.1281
     29  O1        10.7260   15.6620    4.7310 O.3   200  478200     -0.4346
     30  O2         9.0810   15.3130    6.2870 O.2   200  478200     -0.2246
     31  O3        11.4320   19.0300    8.4660 O.3   200  478200     -0.2197
     32  O4        10.0510   15.5110   10.8470 O.2   200  478200     -0.1528
     33  O5         7.7070   15.1600   11.0710 O.2   200  478200     -0.1528
     34  O6        11.0530   16.0820    1.5150 O.3   200  478200     -0.3498
     35  S1         8.7650   16.1120   11.2000 S.O2  200  478200      0.0634
@<TRIPOS>BOND
     1    34    25    1
     2    34     1    1
     3    25     2    1
     4     1     4    1
     5     2     4    1
     6     4    29    1
     7    29     3    1
     8     3    30    2
     9     3    26   am
    10    11    13   ar
    11    11     9   ar
    12    26     5    1
    13    13    12   ar
    14     9     8   ar
    15    12    10   ar
    16     5     6    1
    17     5     7    1
    18     8     7    1
    19     8    10   ar
    20    31     6    1
    21     6    14    1
    22    15    16    1
    23    15    27    1
    24    23    16    1
    25    24    16    1
    26    14    27    1
    27    27    35    1
    28    32    35    2
    29    33    35    2
    30    35    17    1
    31    17    22   ar
    32    17    18   ar
    33    22    21   ar
    34    18    19   ar
    35    21    20   ar
    36    19    20   ar
    37    20    28    1
