@<TRIPOS>MOLECULE
1hpz_AAP_A_1.pdb
 23 24 0 0 0
SMALL
GASTEIGER

@<TRIPOS>ATOM
      1  C        144.5320  -28.0030   71.3710 C.2   561  AAP561      0.2848
      2  CA       143.7540  -27.6290   72.6510 C.3   561  AAP561      0.1953
      3  O        143.9190  -27.9870   70.2870 O.2   561  AAP561     -0.2694
      4  N        145.8410  -28.3440   71.4090 N.am  561  AAP561     -0.0860
      5  C1       142.5160  -28.5840   72.8940 C.ar  561  AAP561      0.0273
      6  C2       141.3630  -28.7060   71.9730 C.ar  561  AAP561      0.0566
      7  C3       140.2890  -29.5690   72.2530 C.ar  561  AAP561      0.0112
      8  C4       140.2810  -30.3520   73.4250 C.ar  561  AAP561      0.0017
      9  C5       141.3720  -30.2560   74.3190 C.ar  561  AAP561      0.0112
     10  C6       142.4670  -29.3870   74.0470 C.ar  561  AAP561      0.0566
     11 CL2       141.2380  -27.7300   70.3930 Cl    561  AAP561     -0.0825
     12 CL6       143.8670  -29.3270   75.2920 Cl    561  AAP561     -0.0825
     13  N'       143.3250  -26.2600   72.6530 N.pl3 561  AAP561     -0.2257
     14  C1'      143.0740  -25.4090   73.8050 C.ar  561  AAP561      0.0642
     15  C2'      142.6000  -24.0530   73.6080 C.ar  561  AAP561      0.0225
     16  C3'      142.3420  -23.2150   74.7830 C.ar  561  AAP561     -0.0009
     17  C4'      142.5230  -23.6570   76.1020 C.ar  561  AAP561     -0.0044
     18  C5'      142.9820  -24.9750   76.3460 C.ar  561  AAP561     -0.0206
     19  C6'      143.2540  -25.8510   75.2190 C.ar  561  AAP561      0.0116
     20  C'       142.3650  -23.4820   72.2150 C.3   561  AAP561      0.1756
     21  O'       142.5660  -24.1600   71.1150 O.3   561  AAP561     -0.2183
     22  CM'      141.8620  -22.0400   72.0720 C.3   561  AAP561      0.0405
     23  CM5      143.1720  -25.4550   77.7520 C.3   561  AAP561      0.0311
@<TRIPOS>BOND
     1     3     1    2
     2    11     6    1
     3    21    20    1
     4     1     4   am
     5     1     2    1
     6     6     7   ar
     7     6     5   ar
     8    22    20    1
     9    20    15    1
    10     7     8   ar
    11     2    13    1
    12     2     5    1
    13    13    14    1
    14     5    10   ar
    15     8     9   ar
    16    15    14   ar
    17    15    16   ar
    18    14    19   ar
    19    10     9   ar
    20    10    12    1
    21    16    17   ar
    22    19    18   ar
    23    17    18   ar
    24    18    23    1
