@<TRIPOS>MOLECULE
1hq2_APC_A_1.pdb
 31 33 0 0 0
SMALL
GASTEIGER

@<TRIPOS>ATOM
      1  PG        -7.0790    2.7500   21.8700 P.3   171  APC171      0.5389
      2  O1G       -6.6160    1.3440   22.1520 O.3   171  APC171     -0.1143
      3  O2G       -8.2260    3.1920   22.7150 O.3   171  APC171     -0.1143
      4  O3G       -7.2940    3.0420   20.4000 O.2   171  APC171     -0.2220
      5  PB        -4.3700    3.7640   21.8540 P.3   171  APC171      0.3895
      6  O1B       -4.3340    3.1080   20.5080 O.2   171  APC171     -0.2544
      7  O2B       -3.7970    5.1940   21.9410 O.3   171  APC171     -0.1388
      8  O3B       -5.8590    3.7290   22.3780 O.3   171  APC171     -0.2026
      9  PA        -1.7630    2.6050   22.7060 P.3   171  APC171      0.3820
     10  O1A       -1.5700    2.6270   21.2180 O.2   171  APC171     -0.2548
     11  O2A       -1.0200    3.6440   23.4950 O.3   171  APC171     -0.1392
     12  C3A       -3.5060    2.6890   22.9800 C.3   171  APC171      0.2357
     13  O5'       -1.2820    1.1380   23.1870 O.3   171  APC171     -0.2896
     14  C5'       -1.3160    0.8380   24.5620 C.3   171  APC171      0.1836
     15  C4'       -1.3150   -0.6610   24.7370 C.3   171  APC171      0.1822
     16  O4'       -2.4280   -1.2360   24.2480 O.3   171  APC171     -0.3135
     17  C3'       -0.1440   -1.4060   24.0350 C.3   171  APC171      0.2184
     18  O3'        1.1120   -1.2940   24.6730 O.3   171  APC171     -0.2174
     19  C2'       -0.5890   -2.7900   23.9680 C.3   171  APC171      0.2570
     20  O2'       -0.0300   -3.7020   24.8400 O.3   171  APC171     -0.2130
     21  C1'       -2.0560   -2.6890   24.2710 C.3   171  APC171      0.3186
     22  N9        -3.0250   -3.3470   23.4260 N.pl3 171  APC171     -0.1439
     23  C8        -4.1090   -4.2500   23.8600 C.3   171  APC171      0.3377
     24  N7        -4.8340   -4.7070   22.9640 N.2   171  APC171     -0.2095
     25  C5        -4.2630   -4.1100   21.7500 C.2   171  APC171      0.2526
     26  C6        -4.7110   -4.2980   20.4330 C.2   171  APC171      0.4393
     27  N6        -5.6940   -5.0220   20.0650 N.pl3 171  APC171      0.2180
     28  N1        -3.9670   -3.5990   19.4830 N.2   171  APC171      0.0021
     29  C2        -2.9850   -2.8760   19.8520 C.3   171  APC171      0.5254
     30  N3        -2.4750   -2.6310   21.1100 N.2   171  APC171     -0.0055
     31  C4        -3.2270   -3.3430   22.1050 C.2   171  APC171      0.3518
@<TRIPOS>BOND
     1    28    29    1
     2    28    26    2
     3    29    30    1
     4    27    26    1
     5     4     1    2
     6    26    25    1
     7     6     5    2
     8    30    31    2
     9    10     9    2
    10    25    31    1
    11    25    24    2
    12     5     7    1
    13     5     8    1
    14     5    12    1
    15     1     2    1
    16     1     8    1
    17     1     3    1
    18    31    22    1
    19     9    12    1
    20     9    13    1
    21     9    11    1
    22    24    23    1
    23    13    14    1
    24    22    23    1
    25    22    21    1
    26    19    17    1
    27    19    21    1
    28    19    20    1
    29    17    18    1
    30    17    15    1
    31    16    21    1
    32    16    15    1
    33    14    15    1
