@<TRIPOS>MOLECULE
1hq2_PH2_A_1.pdb
 14 15 0 0 0
SMALL
GASTEIGER

@<TRIPOS>ATOM
      1  N1        -7.6100    6.9510   18.0030 N.2   181  PH2181     -0.3830
      2  C2        -7.4910    7.1060   19.2760 C.2   181  PH2181      0.1470
      3  C3        -8.3500    8.3090   19.9180 C.3   181  PH2181      0.1940
      4  N4        -9.1070    9.0370   19.0730 N.2   181  PH2181     -0.1992
      5  N5        -9.9130    9.5310   16.9810 N.2   181  PH2181     -0.2672
      6  C6       -10.0420    9.3670   15.6090 C.1   181  PH2181      0.2609
      7  N6       -10.7600   10.0850   14.9250 N.pl3 181  PH2181     -0.0220
      8  N7        -9.2940    8.3350   15.1160 N.2   181  PH2181     -0.2466
      9  C8        -8.5060    7.5200   15.7530 C.1   181  PH2181      0.2569
     10  O8        -7.8600    6.6070   15.2360 O.2   181  PH2181     -0.2052
     11  C9        -8.4450    7.7730   17.1430 C.2   181  PH2181      0.2989
     12  C10       -9.1830    8.8080   17.7070 C.1   181  PH2181      0.1401
     13  C11       -6.6900    6.3440   20.2100 C.3   181  PH2181      0.2380
     14  O4        -5.7980    5.4760   19.5280 O.3   181  PH2181     -0.2126
@<TRIPOS>BOND
     1     7     6    1
     2     8     6    2
     3     8     9    2
     4    10     9    2
     5     6     5    2
     6     9    11    1
     7     5    12    2
     8    11    12    1
     9    11     1    2
    10    12     4    2
    11     1     2    2
    12     4     3    1
    13     2     3    1
    14     2    13    1
    15    14    13    1
