@<TRIPOS>MOLECULE
1hq5_S2C_A_1.pdb
 13 12 0 0 0
SMALL
GASTEIGER

@<TRIPOS>ATOM
      1  OXT       24.1900   12.9070   -6.6340 O.co2 551  S2C551      0.0000
      2  N         23.2770   10.5560   -3.9420 N.3   551  S2C551      0.0000
      3  CA        23.0380   11.4710   -5.0910 C.3   551  S2C551      0.0000
      4  C         24.3470   12.2210   -5.4990 C.2   551  S2C551      0.0000
      5  O         25.4030   12.2060   -4.9030 O.co2 551  S2C551      0.0000
      6  CB        21.9170   12.3870   -4.6300 C.3   551  S2C551      0.0000
      7  SG        20.5470   12.3180   -5.7750 S.3   551  S2C551      0.0000
      8  CD        19.4250   13.3270   -4.8170 C.3   551  S2C551      0.0000
      9  CE        18.4440   14.0030   -5.7530 C.3   551  S2C551      0.0000
     10  B         17.3200   14.8040   -5.0520 B     551  S2C551      0.0000
     11  O1        17.6150   16.2060   -4.9290 O.3   551  S2C551      0.0000
     12  O2        16.1130   14.6930   -5.8120 O.3   551  S2C551      0.0000
     13  O3        17.0360   14.2940   -3.7100 O.3   551  S2C551      0.0000
@<TRIPOS>BOND
     1     1     4   ar
     2    12    10    1
     3     7     8    1
     4     7     6    1
     5     9    10    1
     6     9     8    1
     7     4     3    1
     8     4     5   ar
     9     3     6    1
    10     3     2    1
    11    10    11    1
    12    10    13    1
