@<TRIPOS>MOLECULE
1hqc_ADE_A_1.pdb
 10 11 0 0 0
SMALL
GASTEIGER

@<TRIPOS>ATOM
      1  N9        53.3740   79.2730  185.8880 N.2   501  ADE501     -0.1914
      2  C8        54.5370   79.9490  185.9900 C.3   501  ADE501      0.2618
      3  N7        54.4020   81.1400  186.4720 N.2   501  ADE501     -0.2267
      4  C5        53.0390   81.2790  186.7140 C.2   501  ADE501      0.2303
      5  C6        52.1930   82.3440  187.2460 C.2   501  ADE501      0.4393
      6  N6        52.6930   83.5330  187.6360 N.pl3 501  ADE501      0.2185
      7  N1        50.8270   82.1230  187.3490 N.2   501  ADE501     -0.0265
      8  C2        50.2920   80.9310  186.9620 C.3   501  ADE501      0.4008
      9  N3        51.0010   79.8710  186.4510 N.2   501  ADE501     -0.1640
     10  C4        52.3740   80.1090  186.3530 C.1   501  ADE501      0.0579
@<TRIPOS>BOND
     1     1     2    1
     2     1    10    2
     3     2     3    1
     4    10     9    2
     5    10     4    1
     6     9     8    1
     7     3     4    2
     8     4     5    1
     9     8     7    1
    10     5     7    2
    11     5     6    1
