@<TRIPOS>MOLECULE
1hqd_INK_A_1.pdb
 15 15 0 0 0
SMALL
GASTEIGER

@<TRIPOS>ATOM
      1  P         10.1620   27.3110   21.4970 P.3   612  INK612      0.2206
      2  C1         9.1670   28.6990   21.3070 C.3   612  INK612      0.0904
      3  O1        11.6740   27.6000   21.1080 O.3   612  INK612     -0.1774
      4  O2         9.9690   26.8770   23.0330 O.3   612  INK612     -0.3160
      5  C2        10.9390   26.9340   24.1000 C.3   612  INK612      0.1647
      6  C3        11.1110   25.5740   24.7680 C.3   612  INK612      0.0339
      7  C4        11.8240   24.6780   23.7990 C.3   612  INK612      0.0027
      8  C5        10.4990   27.9420   25.1500 C.3   612  INK612      0.2350
      9  O3         9.6250   28.9640   24.5760 O.3   612  INK612     -0.4728
     10  C6         8.0110   30.7220   27.4660 C.ar  612  INK612      0.0031
     11  C7         7.9900   32.0620   26.9870 C.ar  612  INK612      0.0002
     12  C8         8.5130   32.3740   25.7080 C.ar  612  INK612      0.0031
     13  C9         9.0570   31.3520   24.9120 C.ar  612  INK612      0.0369
     14  C10        9.0930   29.9940   25.3690 C.ar  612  INK612      0.1387
     15  C11        8.5590   29.6900   26.6600 C.ar  612  INK612      0.0369
@<TRIPOS>BOND
     1     3     1    1
     2     2     1    1
     3     1     4    1
     4     4     5    1
     5     7     6    1
     6     5     6    1
     7     5     8    1
     8     9     8    1
     9     9    14    1
    10    13    14   ar
    11    13    12   ar
    12    14    15   ar
    13    12    11   ar
    14    15    10   ar
    15    11    10   ar
