@<TRIPOS>MOLECULE
1hqf_HAR_A_1.pdb
 13 12 0 0 0
SMALL
GASTEIGER

@<TRIPOS>ATOM
      1  N         -4.2480   48.0810    7.9230 N.3   906  HAR906     -0.1208
      2  CA        -5.1970   48.0230    9.1120 C.3   906  HAR906      0.1944
      3  C         -4.6180   48.8270   10.4040 C.2   906  HAR906      0.3819
      4  O         -5.3280   48.8050   11.5130 O.co2 906  HAR906     -0.2441
      5  CB        -5.4730   46.5470    9.5030 C.3   906  HAR906      0.0343
      6  CG        -4.3290   45.9790   10.2730 C.3   906  HAR906      0.0490
      7  CD        -3.9270   44.6480    9.7560 C.3   906  HAR906      0.2205
      8  NE        -2.7760   44.1750   10.5100 N.pl3 906  HAR906     -0.0871
      9  CZ        -2.1420   43.0370   10.2990 C.2   906  HAR906      0.5283
     10  NH1       -2.5270   42.1930    9.3310 N.4   906  HAR906      0.1134
     11  NH2       -1.0920   42.7350   11.0480 N.pl3 906  HAR906      0.1348
     12  OH1       -1.8020   41.0730    9.1570 O.3   906  HAR906      0.0294
     13  OXT       -3.4570   49.4330   10.2930 O.co2 906  HAR906     -0.2441
@<TRIPOS>BOND
     1     1     2    1
     2     2     5    1
     3     2     3    1
     4    12    10    1
     5    10     9    1
     6     5     6    1
     7     7     6    1
     8     7     8    1
     9    13     3   ar
    10     9     8    1
    11     9    11    2
    12     3     4   ar
