@<TRIPOS>MOLECULE
1hqh_NNH_A_1.pdb
 12 11 0 0 0
SMALL
GASTEIGER

@<TRIPOS>ATOM
      1  N         39.5370   22.0430   -8.5130 N.3   901  NNH901     -0.1207
      2  CA        39.1960   22.0230   -9.9270 C.3   901  NNH901      0.1979
      3  C         40.2570   22.7020  -10.7920 C.2   901  NNH901      0.3820
      4  O         41.2790   23.2280  -10.4010 O.co2 901  NNH901     -0.2440
      5  CB        37.8010   22.6840  -10.0910 C.3   901  NNH901      0.0775
      6  CG        37.5870   24.1490   -9.6050 C.3   901  NNH901      0.2225
      7  ND        36.5210   24.7740  -10.4350 N.pl3 901  NNH901     -0.0870
      8  CE        35.9520   26.0240  -10.3390 C.2   901  NNH901      0.5283
      9  NH1       36.3810   26.9340   -9.3140 N.4   901  NNH901      0.1134
     10  NH2       34.9900   26.4680  -11.1660 N.pl3 901  NNH901      0.1348
     11  OH1       35.8620   28.1180   -9.2130 O.3   901  NNH901      0.0294
     12  OXT       39.9310   22.6390  -12.0910 O.co2 901  NNH901     -0.2440
@<TRIPOS>BOND
     1    12     3   ar
     2    10     8    2
     3     3     4   ar
     4     3     2    1
     5     7     8    1
     6     7     6    1
     7     8     9    1
     8     5     2    1
     9     5     6    1
    10     2     1    1
    11     9    11    1
