@<TRIPOS>MOLECULE
1hql_GLA_A_1.pdb
 11 11 0 0 0
SMALL
GASTEIGER

@<TRIPOS>ATOM
      1  C1        37.4600   26.8910   54.8780 C.3   401  GLA401      0.1777
      2  C2        37.4760   25.4390   55.3820 C.3   401  GLA401      0.2141
      3  C3        38.8900   24.8570   55.3170 C.3   401  GLA401      0.2173
      4  C4        39.4540   25.0130   53.9000 C.3   401  GLA401      0.2142
      5  C5        39.3870   26.4750   53.4640 C.3   401  GLA401      0.1810
      6  C6        39.8580   26.6940   52.0280 C.3   401  GLA401      0.2141
      7  O2        36.9830   25.3630   56.7110 O.3   401  GLA401     -0.2176
      8  O3        38.8550   23.4800   55.6610 O.3   401  GLA401     -0.2175
      9  O4        38.6950   24.2220   53.0030 O.3   401  GLA401     -0.2176
     10  O5        38.0220   26.9560   53.5600 O.3   401  GLA401     -0.3481
     11  O6        38.9880   26.0650   51.0970 O.3   401  GLA401     -0.2176
@<TRIPOS>BOND
     1    11     6    1
     2     6     5    1
     3     9     4    1
     4     5    10    1
     5     5     4    1
     6    10     1    1
     7     4     3    1
     8     1     2    1
     9     3     2    1
    10     3     8    1
    11     2     7    1
