@<TRIPOS>MOLECULE
1hql_MBG_B_1.pdb
 13 13 0 0 0
SMALL
GASTEIGER

@<TRIPOS>ATOM
      1  C1        21.2130    7.6680   10.2670 C.3   402  MBG402      0.2695
      2  C2        22.6890    7.7230   10.1200 C.3   402  MBG402      0.2406
      3  C3        23.1960    9.1240   10.5220 C.3   402  MBG402      0.2198
      4  C4        22.5100   10.2270    9.6030 C.3   402  MBG402      0.2144
      5  C5        20.9920   10.1220    9.8010 C.3   402  MBG402      0.1835
      6  C6        20.0350   11.0430    9.1030 C.3   402  MBG402      0.2142
      7  C7        19.7210    5.8120   10.6590 C.3   402  MBG402      0.1769
      8  O1        20.8010    6.3400    9.8740 O.3   402  MBG402     -0.3259
      9  O2        23.2020    6.6870   10.9460 O.3   402  MBG402     -0.2149
     10  O3        24.6090    9.1310   10.3790 O.3   402  MBG402     -0.2174
     11  O4        22.8490    9.9620    8.2720 O.3   402  MBG402     -0.2176
     12  O5        20.6330    8.7290    9.4530 O.3   402  MBG402     -0.3256
     13  O6        18.7300   10.6760    9.5100 O.3   402  MBG402     -0.2176
@<TRIPOS>BOND
     1    11     4    1
     2     6    13    1
     3     6     5    1
     4    12     5    1
     5    12     1    1
     6     4     5    1
     7     4     3    1
     8     8     1    1
     9     8     7    1
    10     2     1    1
    11     2     3    1
    12     2     9    1
    13    10     3    1
