@<TRIPOS>MOLECULE
1hqp_PRZ_A_1.pdb
 12 12 0 0 0
SMALL
GASTEIGER

@<TRIPOS>ATOM
      1  N1        14.8620    2.8370    5.1710 N.ar  160  PRZ160     -0.2418
      2  C2        14.0340    3.4330    6.0220 C.ar  160  PRZ160      0.1119
      3  C3        14.2900    4.7780    6.4250 C.ar  160  PRZ160      0.2389
      4  N4        15.3620    5.4060    5.9400 N.ar  160  PRZ160     -0.2075
      5  C5        16.1800    4.7980    5.0990 C.ar  160  PRZ160      0.1227
      6  C6        15.9220    3.4730    4.7030 C.ar  160  PRZ160      0.1193
      7  C21       12.8070    2.6440    6.5270 C.3   160  PRZ160      0.0506
      8  C22       12.9070    2.0990    7.9760 C.3   160  PRZ160      0.0061
      9  C23       11.5380    1.5780    8.4410 C.3   160  PRZ160      0.0004
     10  C24       13.9420    0.9680    8.1100 C.3   160  PRZ160      0.0004
     11  O31       13.3820    5.3860    7.3030 O.3   160  PRZ160     -0.4553
     12  C31       13.5760    6.7060    7.8710 C.3   160  PRZ160      0.2543
@<TRIPOS>BOND
     1     6     5   ar
     2     6     1   ar
     3     5     4   ar
     4     1     2   ar
     5     4     3   ar
     6     2     3   ar
     7     2     7    1
     8     3    11    1
     9     7     8    1
    10    11    12    1
    11     8    10    1
    12     8     9    1
