@<TRIPOS>MOLECULE
1hqt_NAP_A_1.pdb
 48 52 0 0 0
SMALL
GASTEIGER

@<TRIPOS>ATOM
      1  PA        39.3330   19.2550   76.9380 P.3   350  NAP350      0.2189
      2  O1A       39.0870   20.3870   77.7920 O.3   350  NAP350     -0.4371
      3  O2A       40.7470   18.8650   76.6320 O.2   350  NAP350     -0.5170
      4  O5B       38.6300   17.8900   77.4870 O.3   350  NAP350     -0.3112
      5  C5B       37.2580   17.8520   77.9020 C.3   350  NAP350      0.1813
      6  C4B       36.9420   16.4340   78.3190 C.3   350  NAP350      0.1820
      7  O4B       37.8210   16.0980   79.3970 O.3   350  NAP350     -0.3136
      8  C3B       35.5450   16.2570   78.7940 C.3   350  NAP350      0.2157
      9  O3B       34.9980   14.9800   78.3690 O.3   350  NAP350     -0.2175
     10  C2B       35.6710   16.3080   80.2990 C.3   350  NAP350      0.2314
     11  O2B       34.7230   15.4920   80.9980 O.3   350  NAP350     -0.2630
     12  C1B       37.0640   15.7360   80.5570 C.3   350  NAP350      0.3158
     13  N9A       37.8100   16.3370   81.7140 N.pl3 350  NAP350     -0.1439
     14  C8A       37.7660   17.6390   82.2050 C.3   350  NAP350      0.3377
     15  N7A       38.5500   17.8340   83.2240 N.2   350  NAP350     -0.2095
     16  C5A       39.1490   16.6220   83.4360 C.2   350  NAP350      0.2526
     17  C6A       40.0930   16.1890   84.3850 C.2   350  NAP350      0.4393
     18  N6A       40.5740   17.0070   85.2980 N.pl3 350  NAP350      0.2180
     19  N1A       40.5090   14.8850   84.3400 N.2   350  NAP350      0.0021
     20  C2A       40.0170   14.0410   83.4000 C.3   350  NAP350      0.5254
     21  N3A       39.1180   14.3660   82.4590 N.2   350  NAP350     -0.0055
     22  C4A       38.7170   15.6890   82.5320 C.2   350  NAP350      0.3518
     23  O3        38.5400   19.3580   75.5370 O.3   350  NAP350     -0.2703
     24  PN        37.6050   20.3940   74.7560 P.3   350  NAP350      0.2189
     25  O1N       37.5040   19.8680   73.3930 O.2   350  NAP350     -0.5170
     26  O2N       36.3360   20.4450   75.5710 O.3   350  NAP350     -0.4371
     27  O5D       38.2310   21.8720   74.8450 O.3   350  NAP350     -0.3112
     28  C5D       37.9300   22.7570   75.9340 C.3   350  NAP350      0.1813
     29  C4D       37.2050   24.0440   75.4990 C.3   350  NAP350      0.1799
     30  O4D       37.8130   24.5570   74.3130 O.3   350  NAP350     -0.3327
     31  C3D       35.7580   23.8470   75.0770 C.3   350  NAP350      0.2158
     32  O3D       34.8270   23.6290   76.1420 O.3   350  NAP350     -0.2175
     33  C2D       35.4670   25.1200   74.3190 C.3   350  NAP350      0.2309
     34  O2D       35.1890   26.2430   75.1400 O.3   350  NAP350     -0.2158
     35  C1D       36.8310   25.2760   73.5450 C.3   350  NAP350      0.2263
     36  N1N       36.7560   24.7720   72.1460 N.pl3 350  NAP350     -0.2787
     37  C2N       37.0670   25.7500   71.1770 C.3   350  NAP350      0.1244
     38  C3N       37.0210   25.3500   69.7950 C.2   350  NAP350      0.0544
     39  C7N       37.3350   26.3000   68.7220 C.2   350  NAP350      0.2818
     40  O7N       37.3060   25.9820   67.5230 O.2   350  NAP350     -0.2670
     41  N7N       37.6760   27.5680   69.0070 N.am  350  NAP350     -0.0839
     42  C4N       36.6680   24.0170   69.4840 C.2   350  NAP350      0.0033
     43  C5N       36.3720   23.0870   70.4260 C.2   350  NAP350      0.0157
     44  C6N       36.4130   23.4540   71.7600 C.2   350  NAP350      0.0633
     45  P2B       33.5990   16.1270   81.9410 P.3   350  NAP350      0.5328
     46  O1X       33.0220   17.3460   81.3180 O.2   350  NAP350     -0.2224
     47  O2X       32.6960   14.9760   82.0070 O.3   350  NAP350     -0.1145
     48  O3X       34.3280   16.3630   83.1990 O.3   350  NAP350     -0.1145
@<TRIPOS>BOND
     1    40    39    2
     2    39    41   am
     3    39    38    1
     4    42    38    2
     5    42    43    1
     6    38    37    1
     7    43    44    2
     8    37    36    1
     9    44    36    1
    10    36    35    1
    11    25    24    2
    12    35    30    1
    13    35    33    1
    14    30    29    1
    15    33    31    1
    16    33    34    1
    17    24    27    1
    18    24    23    1
    19    24    26    1
    20    27    28    1
    21    31    29    1
    22    31    32    1
    23    29    28    1
    24    23     1    1
    25     3     1    2
    26     1     4    1
    27     1     2    1
    28     4     5    1
    29     5     6    1
    30     6     8    1
    31     6     7    1
    32     9     8    1
    33     8    10    1
    34     7    12    1
    35    10    12    1
    36    10    11    1
    37    12    13    1
    38    11    45    1
    39    46    45    2
    40    13    14    1
    41    13    22    1
    42    45    47    1
    43    45    48    1
    44    14    15    1
    45    21    22    2
    46    21    20    1
    47    22    16    1
    48    15    16    2
    49    20    19    1
    50    16    17    1
    51    19    17    2
    52    17    18    1
