@<TRIPOS>MOLECULE
1hqu_HBY_A_1.pdb
 22 23 0 0 0
SMALL
GASTEIGER

@<TRIPOS>ATOM
      1  C1       142.8970  -26.9020   70.1340 C.3   561  HBY561      0.1795
      2  C2       141.4730  -27.2320   69.4640 C.1   561  HBY561      0.0357
      3  C3       141.1910  -28.8810   71.2900 C.2   561  HBY561      0.1371
      4  C4       142.3480  -28.2060   72.1140 C.2   561  HBY561      0.0874
      5  C5       142.9710  -28.8630   73.2550 C.2   561  HBY561      0.0539
      6  C6       142.5200  -30.1880   73.6850 C.2   561  HBY561      0.1362
      7  C7       141.3670  -30.9140   72.9390 C.2   561  HBY561      0.0183
      8  C8       140.7000  -30.2470   71.7370 C.3   561  HBY561      0.0903
      9  C9       143.7820  -25.7580   72.4240 C.2   561  HBY561      0.4094
     10  C10      143.7210  -25.4750   75.0620 C.3   561  HBY561      0.1707
     11  C12      143.7910  -23.8950   75.1250 C.3   561  HBY561      0.0474
     12  C11      142.2230  -25.9490   75.0200 C.3   561  HBY561      0.0474
     13  C13      144.0180  -27.9250   69.7050 C.3   561  HBY561      0.0932
     14  C14      145.9580  -26.0630   69.4580 C.3   561  HBY561      0.0693
     15  C15      142.8840  -32.2550   75.4010 C.3   561  HBY561      0.2525
     16  N1       142.8160  -26.8630   71.6870 N.am  561  HBY561     -0.2104
     17  N2       140.6380  -28.2060   70.1140 N.2   561  HBY561     -0.3668
     18  O1       143.9310  -24.5160   71.8560 O.2   561  HBY561     -0.2258
     19  O2       144.4880  -26.0540   73.7180 O.3   561  HBY561     -0.4381
     20  O3       143.2730  -30.8230   74.9210 O.2   561  HBY561     -0.4717
     21  S1       141.0800  -26.3250   67.9380 S.2   561  HBY561      0.0210
     22  S2       145.5500  -27.4110   70.7000 S.3   561  HBY561     -0.1364
@<TRIPOS>BOND
     1    21     2    2
     2    14    22    1
     3     2    17    2
     4     2     1    1
     5    13     1    1
     6    13    22    1
     7    17     3    2
     8     1    16    1
     9     3     8    1
    10     3     4    1
    11    16     4    1
    12    16     9   am
    13     8     7    1
    14    18     9    2
    15     4     5    2
    16     9    19    1
    17     7     6    2
    18     5     6    1
    19     6    20    1
    20    19    10    1
    21    20    15    1
    22    12    10    1
    23    10    11    1
