@<TRIPOS>MOLECULE
1hqw_III_B_1.pdb
 32 34 0 0 0
SMALL
GASTEIGER

@<TRIPOS>ATOM
      1  N         17.7580   34.2650   26.6020 N.3   3001  TYR3001    -0.1228
      2  CA        16.5790   35.1110   26.9540 C.3   3001  TYR3001     0.1721
      3  C         15.5390   34.1120   27.4630 C.2   3001  TYR3001     0.2437
      4  O         14.4700   33.9560   26.8710 O.2   3001  TYR3001    -0.2733
      5  CB        16.0750   35.8550   25.7000 C.3   3001  TYR3001     0.0547
      6  CG        17.1640   36.1320   24.6730 C.ar  3001  TYR3001    -0.0200
      7  CD1       16.9400   35.9130   23.3110 C.ar  3001  TYR3001    -0.0009
      8  CD2       18.4390   36.5500   25.0660 C.ar  3001  TYR3001    -0.0009
      9  CE1       17.9710   36.0940   22.3600 C.ar  3001  TYR3001     0.0417
     10  CE2       19.4730   36.7350   24.1290 C.ar  3001  TYR3001     0.0417
     11  CZ        19.2340   36.5020   22.7790 C.ar  3001  TYR3001     0.1957
     12  OH        20.2580   36.6540   21.8660 O.3   3001  TYR3001    -0.2866
     13  N         15.8430   33.4490   28.6010 N.am  3002  PRO3002    -0.2718
     14  CA        15.0570   32.4290   29.3100 C.3   3002  PRO3002     0.1535
     15  C         13.5990   32.6880   29.6570 C.2   3002  PRO3002     0.2599
     16  O         13.2940   33.2660   30.7120 O.2   3002  PRO3002    -0.2715
     17  CB        15.8780   32.1810   30.5760 C.3   3002  PRO3002     0.0310
     18  CG        16.4790   33.5050   30.8340 C.3   3002  PRO3002     0.0237
     19  CD        16.9630   33.8880   29.4540 C.3   3002  PRO3002     0.0939
     20  N         12.7210   32.1870   28.7870 N.am  3003  TYR3003    -0.1938
     21  CA        11.2710   32.2670   28.9420 C.3   3003  TYR3003     0.2021
     22  C         10.7260   33.6810   29.0710 C.2   3003  TYR3003     0.3845
     23  O         11.5310   34.6190   29.2600 O.co2 3003  TYR3003    -0.2437
     24  CB        10.8280   31.4070   30.1310 C.3   3003  TYR3003     0.0596
     25  CG         9.3370   31.1770   30.2240 C.ar  3003  TYR3003    -0.0197
     26  CD1        8.6940   31.1610   31.4630 C.ar  3003  TYR3003    -0.0009
     27  CD2        8.5630   30.9790   29.0740 C.ar  3003  TYR3003    -0.0009
     28  CE1        7.3210   30.9550   31.5620 C.ar  3003  TYR3003     0.0417
     29  CE2        7.1860   30.7740   29.1630 C.ar  3003  TYR3003     0.0417
     30  CZ         6.5750   30.7610   30.4130 C.ar  3003  TYR3003     0.1957
     31  OH         5.2180   30.5310   30.5180 O.3   3003  TYR3003    -0.2866
     32  OXT        9.4950   33.8410   28.9470 O.co2 3003  TYR3003    -0.2437
@<TRIPOS>BOND
     1    12    11    1
     2     9    11   ar
     3     9     7   ar
     4    11    10   ar
     5     7     6   ar
     6    10     8   ar
     7     6     8   ar
     8     6     5    1
     9     5     2    1
    10     1     2    1
    11     4     3    2
    12     2     3    1
    13     3    13   am
    14    13    14    1
    15    13    19    1
    16    20    21    1
    17    20    15   am
    18    21    22    1
    19    21    24    1
    20    32    22   ar
    21    22    23   ar
    22    27    29   ar
    23    27    25   ar
    24    29    30   ar
    25    14    15    1
    26    14    17    1
    27    19    18    1
    28    15    16    2
    29    24    25    1
    30    25    26   ar
    31    30    31    1
    32    30    28   ar
    33    17    18    1
    34    26    28   ar
