@<TRIPOS>MOLECULE
1hqy_ADP_E_1.pdb
 27 29 0 0 0
SMALL
GASTEIGER

@<TRIPOS>ATOM
      1  PB       -15.2500  128.7600  -37.4500 P.3   450  ADP450      0.5373
      2  O1B      -13.7810  128.6540  -37.6930 O.3   450  ADP450     -0.1143
      3  O2B      -15.7410  127.5930  -36.5680 O.3   450  ADP450     -0.1143
      4  O3B      -16.0090  128.8150  -38.7050 O.2   450  ADP450     -0.2221
      5  PA       -14.8650  130.6040  -35.2350 P.3   450  ADP450      0.2231
      6  O1A      -15.5540  131.7820  -34.8230 O.2   450  ADP450     -0.5169
      7  O2A      -14.7340  129.4360  -34.3800 O.3   450  ADP450     -0.4370
      8  O3A      -15.5290  130.0150  -36.5820 O.3   450  ADP450     -0.2261
      9  O5'      -13.3760  130.9990  -35.4820 O.3   450  ADP450     -0.3111
     10  C5'      -13.0180  132.1660  -36.2140 C.3   450  ADP450      0.1813
     11  C4'      -12.5310  133.3150  -35.2830 C.3   450  ADP450      0.1821
     12  O4'      -13.0750  134.5340  -35.8860 O.3   450  ADP450     -0.3135
     13  C3'      -13.0660  133.3690  -33.8300 C.3   450  ADP450      0.2184
     14  O3'      -11.9940  133.4640  -32.8970 O.3   450  ADP450     -0.2174
     15  C2'      -13.9250  134.6440  -33.6620 C.3   450  ADP450      0.2570
     16  O2'      -13.4330  135.4960  -32.5920 O.3   450  ADP450     -0.2130
     17  C1'      -13.8850  135.3650  -35.0480 C.3   450  ADP450      0.3186
     18  N9       -15.3290  135.3860  -35.6130 N.pl3 450  ADP450     -0.1439
     19  C8       -15.7900  134.7120  -36.6690 C.3   450  ADP450      0.3377
     20  N7       -17.0160  134.9140  -36.9090 N.2   450  ADP450     -0.2095
     21  C5       -17.4350  135.7980  -35.9480 C.2   450  ADP450      0.2526
     22  C6       -18.6950  136.4400  -35.6460 C.2   450  ADP450      0.4393
     23  N6       -19.8050  136.2130  -36.3960 N.pl3 450  ADP450      0.2180
     24  N1       -18.7590  137.3070  -34.5630 N.2   450  ADP450      0.0021
     25  C2       -17.6570  137.5330  -33.8160 C.3   450  ADP450      0.5254
     26  N3       -16.4400  136.9740  -34.0290 N.2   450  ADP450     -0.0055
     27  C4       -16.3910  136.1120  -35.1120 C.2   450  ADP450      0.3518
@<TRIPOS>BOND
     1     4     1    2
     2     2     1    1
     3     1     8    1
     4     1     3    1
     5    20    19    1
     6    20    21    2
     7    19    18    1
     8     8     5    1
     9    23    22    1
    10    10     9    1
    11    10    11    1
    12    21    22    1
    13    21    27    1
    14    12    11    1
    15    12    17    1
    16    22    24    2
    17    18    27    1
    18    18    17    1
    19     9     5    1
    20    11    13    1
    21     5     6    2
    22     5     7    1
    23    27    26    2
    24    17    15    1
    25    24    25    1
    26    26    25    1
    27    13    15    1
    28    13    14    1
    29    15    16    1
