@<TRIPOS>MOLECULE
1hrc_HEM_A_1.pdb
 43 50 0 0 0
SMALL
GASTEIGER

@<TRIPOS>ATOM
      1 FE         44.6300   28.1270    5.9110 Fe    105  HEM105      0.0000
      2  CHA       43.6030   27.2590    9.1220 C.2   105  HEM105      0.0000
      3  CHB       46.1500   25.1840    5.6020 C.2   105  HEM105      0.0000
      4  CHC       44.9070   28.7350    2.5670 C.2   105  HEM105      0.0000
      5  CHD       43.8280   31.3520    6.4700 C.2   105  HEM105      0.0000
      6  NA        44.8540   26.5750    7.1690 N.ar  105  HEM105      0.0000
      7  C1A       44.3310   26.3330    8.4120 C.ar  105  HEM105      0.0000
      8  C2A       44.6040   24.9360    8.7430 C.ar  105  HEM105      0.0000
      9  C3A       45.2740   24.3800    7.7850 C.ar  105  HEM105      0.0000
     10  C4A       45.4550   25.3820    6.7510 C.ar  105  HEM105      0.0000
     11  CMA       45.9220   22.9890    7.4410 C.3   105  HEM105      0.0000
     12  CAA       44.1370   24.3090   10.0980 C.3   105  HEM105      0.0000
     13  CBA       45.3900   24.2900   11.0680 C.3   105  HEM105      0.0000
     14  CGA       45.1650   23.6300   12.3920 C.2   105  HEM105      0.0000
     15  O1A       45.9410   24.0230   13.3290 O.co2 105  HEM105      0.0000
     16  O2A       44.2600   22.7630   12.4810 O.co2 105  HEM105      0.0000
     17  NB        45.3800   27.1460    4.4040 N.2   105  HEM105      0.0000
     18  C1B       46.0450   25.9290    4.4540 C.2   105  HEM105      0.0000
     19  C2B       46.5480   25.5810    3.1680 C.2   105  HEM105      0.0000
     20  C3B       46.1940   26.5430    2.3150 C.2   105  HEM105      0.0000
     21  C4B       45.4750   27.5820    3.0750 C.2   105  HEM105      0.0000
     22  CMB       47.3500   24.2780    2.8360 C.3   105  HEM105      0.0000
     23  CAB       46.4600   26.6590    0.8110 C.3   105  HEM105      0.0000
     24  CBB       45.6510   25.8170   -0.1770 C.3   105  HEM105      0.0000
     25  NC        44.3780   29.7570    4.7190 N.ar  105  HEM105      0.0000
     26  C1C       44.5450   29.8250    3.3420 C.ar  105  HEM105      0.0000
     27  C2C       44.3690   31.1760    2.9190 C.ar  105  HEM105      0.0000
     28  C3C       44.0420   31.9350    4.0000 C.ar  105  HEM105      0.0000
     29  C4C       44.1000   31.0410    5.1510 C.ar  105  HEM105      0.0000
     30  CMC       44.4990   31.6800    1.4560 C.3   105  HEM105      0.0000
     31  CAC       43.8610   33.4640    4.0890 C.3   105  HEM105      0.0000
     32  CBC       43.0180   34.1680    3.0030 C.3   105  HEM105      0.0000
     33  ND        43.9020   29.1280    7.4590 N.2   105  HEM105      0.0000
     34  C1D       43.6340   30.4690    7.5050 C.2   105  HEM105      0.0000
     35  C2D       43.0590   30.7730    8.8080 C.2   105  HEM105      0.0000
     36  C3D       42.9960   29.6690    9.5050 C.2   105  HEM105      0.0000
     37  C4D       43.4970   28.5780    8.6930 C.2   105  HEM105      0.0000
     38  CMD       42.6400   32.2080    9.2190 C.3   105  HEM105      0.0000
     39  CAD       42.4650   29.4760   10.9590 C.3   105  HEM105      0.0000
     40  CBD       40.9400   29.3070   10.8860 C.3   105  HEM105      0.0000
     41  CGD       40.1970   29.1790   12.1810 C.2   105  HEM105      0.0000
     42  O1D       40.7690   29.1210   13.2700 O.co2 105  HEM105      0.0000
     43  O2D       38.9630   29.1080   11.9800 O.co2 105  HEM105      0.0000
@<TRIPOS>BOND
     1    24    23    1
     2    23    20    1
     3    30    27    1
     4    20    21    1
     5    20    19    2
     6     4    21    2
     7     4    26    1
     8    22    19    1
     9    27    26   ar
    10    27    28   ar
    11    32    31    1
    12    21    17    1
    13    19    18    1
    14    26    25   ar
    15    28    31    1
    16    28    29   ar
    17    17    18    2
    18    17     1    1
    19    18     3    1
    20    25    29   ar
    21    25     1    1
    22    29     5    1
    23     3    10    2
    24     1     6    1
    25     1    33    1
    26     5    34    2
    27    10     6   ar
    28    10     9   ar
    29     6     7   ar
    30    11     9    1
    31    33    34    1
    32    33    37    2
    33    34    35    1
    34     9     8   ar
    35     7     8   ar
    36     7     2    2
    37    37     2    1
    38    37    36    1
    39     8    12    1
    40    35    38    1
    41    35    36    2
    42    36    39    1
    43    12    13    1
    44    40    39    1
    45    40    41    1
    46    13    14    1
    47    43    41   ar
    48    41    42   ar
    49    14    16   ar
    50    14    15   ar
