@<TRIPOS>MOLECULE
1hri_S57_1_1.pdb
 21 22 0 0 0
SMALL
GASTEIGER

@<TRIPOS>ATOM
      1  C1        49.5700   -4.1310  122.9800 C.3   290  S57290      0.2525
      2  O4        48.6570   -4.7190  122.1600 O.3   290  S57290     -0.4714
      3  C4A       47.3150   -4.3170  122.2040 C.ar  290  S57290      0.1398
      4  C3A       46.9570   -3.1400  122.8830 C.ar  290  S57290      0.0513
      5  C2A       45.6210   -2.7200  122.8960 C.ar  290  S57290      0.0945
      6 CL         45.1730   -1.2550  123.7440 Cl    290  S57290     -0.0790
      7  C1A       44.6840   -3.4370  122.1900 C.ar  290  S57290      0.1492
      8  C6A       45.0080   -4.5820  121.4930 C.ar  290  S57290      0.0409
      9  C5A       46.3400   -5.0250  121.4860 C.ar  290  S57290      0.0401
     10  O1        43.4830   -2.8400  122.1200 O.3   290  S57290     -0.4746
     11  C6B       43.1330   -1.7570  122.8800 C.3   290  S57290      0.2054
     12  C5B       41.6870   -1.2810  122.7160 C.3   290  S57290      0.0473
     13  C4B       41.3520   -0.1240  123.6730 C.3   290  S57290      0.0039
     14  C3B       40.7090    1.1030  122.9970 C.3   290  S57290      0.0021
     15  C2B       40.4830    2.2530  123.9960 C.3   290  S57290      0.0245
     16  C1B       39.7520    3.4910  123.4310 C.3   290  S57290      0.1076
     17  N1        39.0200    4.1830  124.4590 N.ar  290  S57290     -0.3078
     18  C2C       38.3120    5.3040  124.3120 C.ar  290  S57290      0.1786
     19  N3        37.6990    5.5430  125.4130 N.ar  290  S57290     -0.2223
     20  C4C       37.9430    4.6570  126.3360 C.ar  290  S57290      0.1193
     21  C5C       38.7910    3.8570  125.7730 C.ar  290  S57290      0.0980
@<TRIPOS>BOND
     1     9     8   ar
     2     9     3   ar
     3     8     7   ar
     4    10     7    1
     5    10    11    1
     6     2     3    1
     7     2     1    1
     8     7     5   ar
     9     3     4   ar
    10    12    11    1
    11    12    13    1
    12     4     5   ar
    13     5     6    1
    14    14    13    1
    15    14    15    1
    16    16    15    1
    17    16    17    1
    18    18    17   ar
    19    18    19   ar
    20    17    21   ar
    21    19    20   ar
    22    21    20   ar
