@<TRIPOS>MOLECULE
1hrm_HEM_A_1.pdb
 43 50 0 0 0
SMALL
GASTEIGER

@<TRIPOS>ATOM
      1 FE         14.3990   29.6630    5.1110 Fe    154  HEM154      0.0000
      2  CHA       16.0890   32.7250    5.3610 C.2   154  HEM154      0.0000
      3  CHB       14.0630   29.6550    8.5330 C.2   154  HEM154      0.0000
      4  CHC       13.6110   26.3490    5.0340 C.2   154  HEM154      0.0000
      5  CHD       15.3800   29.4240    1.8140 C.2   154  HEM154      0.0000
      6  NA        15.0620   30.8670    6.6380 N.2   154  HEM154      0.0000
      7  C1A       15.6420   32.1050    6.5100 C.2   154  HEM154      0.0000
      8  C2A       15.6920   32.7400    7.8300 C.2   154  HEM154      0.0000
      9  C3A       15.1610   31.8980    8.7070 C.2   154  HEM154      0.0000
     10  C4A       14.7170   30.7280    7.9780 C.2   154  HEM154      0.0000
     11  CMA       14.9400   32.0310   10.2420 C.3   154  HEM154      0.0000
     12  CAA       16.3100   34.1560    8.0250 C.3   154  HEM154      0.0000
     13  CBA       15.3050   35.3040    7.8260 C.3   154  HEM154      0.0000
     14  CGA       15.8070   36.6300    7.3110 C.2   154  HEM154      0.0000
     15  O1A       16.9010   36.7140    6.7130 O.co2 154  HEM154      0.0000
     16  O2A       15.0410   37.6370    7.5070 O.co2 154  HEM154      0.0000
     17  NB        13.9820   28.2770    6.4950 N.ar  154  HEM154      0.0000
     18  C1B       13.7370   28.5050    7.8510 C.ar  154  HEM154      0.0000
     19  C2B       13.1690   27.3370    8.4450 C.ar  154  HEM154      0.0000
     20  C3B       13.0810   26.3880    7.4800 C.ar  154  HEM154      0.0000
     21  C4B       13.6330   26.9530    6.3020 C.ar  154  HEM154      0.0000
     22  CMB       12.7270   27.2160    9.9390 C.3   154  HEM154      0.0000
     23  CAB       12.4790   24.9930    7.6050 C.2   154  HEM154      0.0000
     24  CBB       12.9340   24.0420    8.4350 C.2   154  HEM154      0.0000
     25  NC        14.4700   28.1760    3.6780 N.2   154  HEM154      0.0000
     26  C1C       14.0980   26.8580    3.8580 C.2   154  HEM154      0.0000
     27  C2C       14.2450   26.1190    2.6090 C.2   154  HEM154      0.0000
     28  C3C       14.7760   26.9730    1.7050 C.2   154  HEM154      0.0000
     29  C4C       14.9340   28.2590    2.3880 C.2   154  HEM154      0.0000
     30  CMC       13.8880   24.6230    2.4430 C.3   154  HEM154      0.0000
     31  CAC       15.1740   26.5770    0.2810 C.2   154  HEM154      0.0000
     32  CBC       15.3860   27.1500   -0.8370 C.2   154  HEM154      0.0000
     33  ND        15.5340   30.7970    3.8940 N.ar  154  HEM154      0.0000
     34  C1D       15.6780   30.5980    2.5150 C.ar  154  HEM154      0.0000
     35  C2D       16.2280   31.7880    1.9070 C.ar  154  HEM154      0.0000
     36  C3D       16.4270   32.6670    2.8840 C.ar  154  HEM154      0.0000
     37  C4D       16.0240   32.0680    4.1360 C.ar  154  HEM154      0.0000
     38  CMD       16.5400   31.9000    0.3990 C.3   154  HEM154      0.0000
     39  CAD       17.0090   34.1030    2.7790 C.3   154  HEM154      0.0000
     40  CBD       18.5330   34.1310    3.0150 C.3   154  HEM154      0.0000
     41  CGD       19.2370   35.4070    2.6320 C.2   154  HEM154      0.0000
     42  O1D       18.6380   36.2870    1.9100 O.co2 154  HEM154      0.0000
     43  O2D       20.4220   35.5040    3.0510 O.co2 154  HEM154      0.0000
@<TRIPOS>BOND
     1    32    31    2
     2    31    28    1
     3    38    35    1
     4    28    29    1
     5    28    27    2
     6     5    29    1
     7     5    34    2
     8    35    34   ar
     9    35    36   ar
    10    42    41   ar
    11    29    25    2
    12    30    27    1
    13    34    33   ar
    14    27    26    1
    15    41    40    1
    16    41    43   ar
    17    39    36    1
    18    39    40    1
    19    36    37   ar
    20    25    26    1
    21    25     1    1
    22    26     4    2
    23    33    37   ar
    24    33     1    1
    25    37     2    2
    26     4    21    1
    27     1    17    1
    28     1     6    1
    29     2     7    1
    30    21    17   ar
    31    21    20   ar
    32    17    18   ar
    33     7     6    2
    34     7     8    1
    35     6    10    1
    36    15    14   ar
    37    14    16   ar
    38    14    13    1
    39    20    23    1
    40    20    19   ar
    41    23    24    2
    42    13    12    1
    43     8    12    1
    44     8     9    2
    45    18    19   ar
    46    18     3    1
    47    10     3    2
    48    10     9    1
    49    19    22    1
    50     9    11    1
