@<TRIPOS>MOLECULE
1hrn_03D_A_1.pdb
 36 38 0 0 0
SMALL
GASTEIGER

@<TRIPOS>ATOM
      1  C1        37.2660   60.5560   45.4540 C.3   391  03D391      0.1829
      2  C2        38.0350   59.4050   46.1530 C.3   391  03D391      0.1864
      3  C3        37.2880   58.9560   47.4240 C.3   391  03D391      0.0619
      4  C4        37.8250   57.5240   47.8780 C.ar  391  03D391     -0.0196
      5  C5        38.5940   57.4120   48.9840 C.ar  391  03D391     -0.0042
      6  C6        39.0220   56.1740   49.4070 C.ar  391  03D391     -0.0003
      7  C7        38.6480   55.0620   48.7560 C.ar  391  03D391     -0.0000
      8  C8        37.8760   55.1620   47.6640 C.ar  391  03D391     -0.0003
      9  C9        37.4370   56.3670   47.2250 C.ar  391  03D391     -0.0042
     10  O10       37.0550   61.5190   46.4760 O.3   391  03D391     -0.2204
     11  O11       39.2980   59.9210   46.5790 O.3   391  03D391     -0.2201
     12  C12       36.0200   60.9110   42.6980 C.2   391  03D391      0.2410
     13  C13       37.1200   61.8600   43.1630 C.3   391  03D391      0.0808
     14  C14       38.0270   61.2020   44.2660 C.3   391  03D391      0.0447
     15  C15       37.0240   62.8800   40.7610 C.3   391  03D391      0.0005
     16  C16       37.7670   63.8800   39.9700 C.3   391  03D391      0.0000
     17  C17       36.7350   64.3200   40.9160 C.3   391  03D391      0.0000
     18  C18       37.9350   62.3300   41.8910 C.3   391  03D391      0.0092
     19  O19       36.2790   59.8820   42.1120 O.2   391  03D391     -0.2734
     20  C20       32.7120   61.3470   41.5830 C.3   391  03D391      0.2018
     21  C21       33.6300   60.4170   42.5220 C.3   391  03D391      0.1281
     22  C22       32.7450   59.9440   43.7480 C.3   391  03D391      0.0244
     23  C23       33.4850   58.9200   44.6630 C.3   391  03D391      0.0018
     24  C24       32.6170   58.5890   45.9230 C.3   391  03D391      0.0001
     25  C25       33.3850   57.5170   46.7800 C.3   391  03D391      0.0000
     26  C26       33.5630   56.1970   45.9630 C.3   391  03D391      0.0000
     27  C27       34.4440   56.5230   44.7310 C.3   391  03D391      0.0000
     28  C28       33.6900   57.5680   43.8820 C.3   391  03D391      0.0001
     29  N29       34.7450   61.2400   43.0080 N.am  391  03D391     -0.2045
     30  O30       32.5050   62.6400   42.1880 O.3   391  03D391     -0.2186
     31  C31       33.3300   61.5620   40.1730 C.3   391  03D391      0.1839
     32  C32       32.4600   62.5550   39.3510 C.3   391  03D391      0.0356
     33  C33       33.1100   62.8460   37.9900 C.3   391  03D391      0.0026
     34  C34       32.0620   63.4880   37.0740 C.3   391  03D391      0.0001
     35  C35       34.3270   63.7670   38.1090 C.3   391  03D391      0.0001
     36  O36       33.5700   60.3000   39.5330 O.3   391  03D391     -0.2204
@<TRIPOS>BOND
     1    34    33    1
     2    33    35    1
     3    33    32    1
     4    32    31    1
     5    36    31    1
     6    16    15    1
     7    16    17    1
     8    31    20    1
     9    15    17    1
    10    15    18    1
    11    20    30    1
    12    20    21    1
    13    18    13    1
    14    19    12    2
    15    21    29    1
    16    21    22    1
    17    12    29   am
    18    12    13    1
    19    13    14    1
    20    22    23    1
    21    28    23    1
    22    28    27    1
    23    14     1    1
    24    23    24    1
    25    27    26    1
    26     1     2    1
    27     1    10    1
    28    24    25    1
    29    26    25    1
    30     2    11    1
    31     2     3    1
    32     9     8   ar
    33     9     4   ar
    34     3     4    1
    35     8     7   ar
    36     4     5   ar
    37     7     6   ar
    38     5     6   ar
