@<TRIPOS>MOLECULE
1hro_HEM_A_1.pdb
 43 50 0 0 0
SMALL
GASTEIGER

@<TRIPOS>ATOM
      1 FE         -2.7980   56.5540   10.9360 Fe    107  HEM107      0.0000
      2  CHA        0.1680   55.4220    9.9710 C.2   107  HEM107      0.0000
      3  CHB       -3.9460   56.3690    7.7910 C.2   107  HEM107      0.0000
      4  CHC       -5.8590   57.7550   11.9470 C.2   107  HEM107      0.0000
      5  CHD       -1.5480   57.0810   14.1110 C.2   107  HEM107      0.0000
      6  NA        -2.0540   55.9500    9.2090 N.ar  107  HEM107      0.0000
      7  C1A       -0.7730   55.4510    9.0100 C.ar  107  HEM107      0.0000
      8  C2A       -0.6240   55.0730    7.6230 C.ar  107  HEM107      0.0000
      9  C3A       -1.7920   55.3570    6.9970 C.ar  107  HEM107      0.0000
     10  C4A       -2.6590   55.9030    7.9750 C.ar  107  HEM107      0.0000
     11  CMA       -2.1560   55.1100    5.5300 C.3   107  HEM107      0.0000
     12  CAA        0.6520   54.5250    7.0010 C.3   107  HEM107      0.0000
     13  CBA        1.3430   55.6240    6.1020 C.3   107  HEM107      0.0000
     14  CGA        2.7870   55.2960    5.6900 C.2   107  HEM107      0.0000
     15  O1A        3.4930   56.2670    5.4870 O.co2 107  HEM107      0.0000
     16  O2A        3.2010   54.1880    5.5760 O.co2 107  HEM107      0.0000
     17  NB        -4.5620   56.9910   10.0880 N.2   107  HEM107      0.0000
     18  C1B       -4.7770   56.8870    8.7300 C.2   107  HEM107      0.0000
     19  C2B       -6.1070   57.3950    8.4280 C.2   107  HEM107      0.0000
     20  C3B       -6.6090   57.7940    9.5740 C.2   107  HEM107      0.0000
     21  C4B       -5.6700   57.5480   10.6010 C.2   107  HEM107      0.0000
     22  CMB       -6.7010   57.5450    7.0090 C.3   107  HEM107      0.0000
     23  CAB       -7.9580   58.3470    9.8290 C.3   107  HEM107      0.0000
     24  CBB       -9.2390   57.6270    9.7250 C.3   107  HEM107      0.0000
     25  NC        -3.5210   57.2620   12.6140 N.ar  107  HEM107      0.0000
     26  C1C       -4.8380   57.6790   12.8430 C.ar  107  HEM107      0.0000
     27  C2C       -4.9880   58.0760   14.2230 C.ar  107  HEM107      0.0000
     28  C3C       -3.7650   57.8560   14.8210 C.ar  107  HEM107      0.0000
     29  C4C       -2.8540   57.3700   13.8490 C.ar  107  HEM107      0.0000
     30  CMC       -6.2610   58.6270   14.8530 C.3   107  HEM107      0.0000
     31  CAC       -3.4120   58.1140   16.2670 C.3   107  HEM107      0.0000
     32  CBC       -4.2330   57.6880   17.4500 C.3   107  HEM107      0.0000
     33  ND        -1.0540   56.3070   11.8730 N.2   107  HEM107      0.0000
     34  C1D       -0.7170   56.5880   13.1810 C.2   107  HEM107      0.0000
     35  C2D        0.6800   56.2420   13.3960 C.2   107  HEM107      0.0000
     36  C3D        1.1600   55.7870   12.1800 C.2   107  HEM107      0.0000
     37  C4D        0.0630   55.8610   11.2580 C.2   107  HEM107      0.0000
     38  CMD        1.3840   56.4030   14.7330 C.3   107  HEM107      0.0000
     39  CAD        2.5090   55.1710   11.8770 C.3   107  HEM107      0.0000
     40  CBD        2.4590   53.5970   12.1070 C.3   107  HEM107      0.0000
     41  CGD        3.7330   52.7710   12.2280 C.2   107  HEM107      0.0000
     42  O1D        4.8600   53.1120   12.0360 O.co2 107  HEM107      0.0000
     43  O2D        3.5550   51.5890   12.5770 O.co2 107  HEM107      0.0000
@<TRIPOS>BOND
     1    15    14   ar
     2    11     9    1
     3    16    14   ar
     4    14    13    1
     5    13    12    1
     6     9     8   ar
     7     9    10   ar
     8    12     8    1
     9    22    19    1
    10     8     7   ar
    11     3    10    2
    12     3    18    1
    13    10     6   ar
    14    19    18    1
    15    19    20    2
    16    18    17    2
    17     7     6   ar
    18     7     2    2
    19     6     1    1
    20    20    23    1
    21    20    21    1
    22    24    23    1
    23     2    37    1
    24    17    21    1
    25    17     1    1
    26    21     4    2
    27     1    33    1
    28     1    25    1
    29    37    33    2
    30    37    36    1
    31    33    34    1
    32    39    40    1
    33    39    36    1
    34     4    26    1
    35    42    41   ar
    36    40    41    1
    37    36    35    2
    38    41    43   ar
    39    25    26   ar
    40    25    29   ar
    41    26    27   ar
    42    34    35    1
    43    34     5    2
    44    35    38    1
    45    29     5    1
    46    29    28   ar
    47    27    28   ar
    48    27    30    1
    49    28    31    1
    50    31    32    1
