@<TRIPOS>MOLECULE
1hrs_PP9_A_1.pdb
 42 46 0 0 0
SMALL
GASTEIGER

@<TRIPOS>ATOM
      1  CHA       31.0650    0.0020   31.1430 C.2   200  PP9200      0.0985
      2  CHB       35.8260    0.1800   31.0240 C.2   200  PP9200      0.0981
      3  CHC       35.8480    0.1940   35.7740 C.2   200  PP9200      0.1301
      4  CHD       31.1540   -0.4050   35.8950 C.2   200  PP9200      0.1301
      5  NA        33.4460    0.0610   31.4690 N.2   200  PP9200     -0.3335
      6  C1A       32.3530    0.1220   30.6480 C.1   200  PP9200      0.0153
      7  C2A       32.7580    0.3130   29.2380 C.2   200  PP9200      0.0623
      8  C3A       34.1030    0.3200   29.2410 C.2   200  PP9200      0.0442
      9  C4A       34.5210    0.1740   30.6160 C.1   200  PP9200      0.0116
     10  CMA       35.0020    0.4500   28.0140 C.3   200  PP9200      0.0421
     11  CAA       31.9150    0.4810   27.9700 C.2   200  PP9200      0.0167
     12  CBA       32.0920    1.7680   27.1770 C.2   200  PP9200      0.0868
     13  CGA       31.2820    1.9430   25.9040 C.2   200  PP9200      0.3880
     14  O1A       30.6620    2.9970   25.7620 O.co2 200  PP9200     -0.2405
     15  O2A       31.2920    1.0580   25.0490 O.co2 200  PP9200     -0.2405
     16  NB        35.3910   -0.0310   33.4020 N.2   200  PP9200     -0.3673
     17  C1B       36.2290    0.0850   32.3240 C.2   200  PP9200      0.1469
     18  C2B       37.5820    0.2300   32.7580 C.2   200  PP9200      0.0141
     19  C3B       37.5960    0.1430   34.0810 C.2   200  PP9200      0.0333
     20  C4B       36.2400    0.0140   34.4830 C.1   200  PP9200      0.0084
     21  CMB       38.7740    0.6240   31.9380 C.3   200  PP9200      0.0341
     22  CAB       38.6870    0.2940   34.8940 C.3   200  PP9200      0.0358
     23  CBB       38.9620    1.6100   35.3830 C.3   200  PP9200      0.0057
     24  NC        33.4740    0.0050   35.3570 N.2   200  PP9200     -0.3327
     25  C1C       34.5490    0.2680   36.1580 C.1   200  PP9200      0.0183
     26  C2C       34.1950    0.2760   37.5190 C.2   200  PP9200      0.0407
     27  C3C       32.9550   -0.2210   37.6060 C.2   200  PP9200      0.0404
     28  C4C       32.4580   -0.2290   36.2510 C.1   200  PP9200      0.0183
     29  CMC       35.0520    0.8570   38.6150 C.3   200  PP9200      0.0418
     30  CAC       32.5170   -1.0010   38.6460 C.3   200  PP9200      0.0364
     31  CBC       33.2940   -2.1940   38.9540 C.3   200  PP9200      0.0058
     32  ND        31.5030   -0.2270   33.5010 N.2   200  PP9200     -0.3673
     33  C1D       30.6970   -0.3940   34.6070 C.1   200  PP9200      0.0084
     34  C2D       29.3040   -0.4780   34.2450 C.2   200  PP9200      0.0336
     35  C3D       29.2470   -0.3300   32.9140 C.2   200  PP9200      0.0143
     36  C4D       30.6340   -0.1680   32.4490 C.2   200  PP9200      0.1469
     37  CMD       28.1100   -0.6880   35.1720 C.3   200  PP9200      0.0412
     38  CAD       27.9360   -0.2400   32.1480 C.3   200  PP9200      0.0411
     39  CBD       27.0550   -1.4710   32.0050 C.3   200  PP9200      0.1188
     40  CGD       25.7250   -1.1280   31.3560 C.2   200  PP9200      0.3652
     41  O1D       24.7030   -1.1300   32.0450 O.co2 200  PP9200     -0.2456
     42  O2D       25.7180   -0.8480   30.1560 O.co2 200  PP9200     -0.2456
@<TRIPOS>BOND
     1    15    13   ar
     2    14    13   ar
     3    13    12    1
     4    12    11    2
     5    11     7    1
     6    10     8    1
     7     7     8    2
     8     7     6    1
     9     8     9    1
    10    42    40   ar
    11     9     2    2
    12     9     5    2
    13     6     1    2
    14     6     5    2
    15     2    17    1
    16     1    36    1
    17    40    39    1
    18    40    41   ar
    19    21    18    1
    20    39    38    1
    21    38    35    1
    22    17    18    1
    23    17    16    2
    24    36    35    1
    25    36    32    2
    26    18    19    2
    27    35    34    2
    28    16    20    2
    29    32    33    2
    30    19    20    1
    31    19    22    1
    32    34    33    1
    33    34    37    1
    34    20     3    2
    35    33     4    2
    36    22    23    1
    37    24    25    2
    38    24    28    2
    39     3    25    1
    40     4    28    1
    41    25    26    2
    42    28    27    2
    43    26    27    1
    44    26    29    1
    45    27    30    1
    46    30    31    1
