@<TRIPOS>MOLECULE
1hrv_SDZ_1_1.pdb
 29 32 0 0 0
SMALL
GASTEIGER

@<TRIPOS>ATOM
      1  N1        37.7080    6.8220  126.8080 N.ar  682  SDZ682     -0.2292
      2  C2        37.0270    7.7900  127.4830 C.ar  682  SDZ682      0.1003
      3  C3        35.8980    8.3550  127.0010 C.ar  682  SDZ682      0.0208
      4  C4        35.4690    7.9970  125.7190 C.ar  682  SDZ682      0.0045
      5  C5        36.1600    7.0270  125.0190 C.ar  682  SDZ682      0.0343
      6  C6        37.2760    6.4270  125.6380 C.ar  682  SDZ682      0.1318
      7  N2        37.9620    5.3680  125.0460 N.pl3 682  SDZ682     -0.2904
      8  C7        38.6420    5.5840  123.7720 C.3   682  SDZ682      0.1095
      9  C8        38.9570    4.2480  123.1280 C.3   682  SDZ682      0.0939
     10  N3        39.8020    3.4200  124.0020 N.3   682  SDZ682     -0.2675
     11  C9        38.8010    4.5600  125.9460 C.3   682  SDZ682      0.1095
     12  C10       39.1020    3.2310  125.2900 C.3   682  SDZ682      0.0939
     13  C11       40.0340    2.0620  123.3160 C.3   682  SDZ682      0.1094
     14  C12       41.5470    1.8020  123.1890 C.3   682  SDZ682      0.2112
     15  O1        42.1360    2.8130  122.3660 O.3   682  SDZ682     -0.2176
     16  C13       41.7790    0.4190  122.5520 C.3   682  SDZ682      0.2394
     17  O2        41.7060   -0.5900  123.5620 O.3   682  SDZ682     -0.4727
     18  C14       42.8320   -1.4610  123.4470 C.ar  682  SDZ682      0.1387
     19  C15       44.0380   -1.0580  123.9380 C.ar  682  SDZ682      0.0366
     20  C16       45.1780   -1.8820  123.8190 C.ar  682  SDZ682     -0.0012
     21  C17       45.0670   -3.1250  123.1510 C.ar  682  SDZ682     -0.0223
     22  C18       43.8260   -3.5090  122.6830 C.ar  682  SDZ682     -0.0012
     23  C19       42.6720   -2.6910  122.8420 C.ar  682  SDZ682      0.0366
     24  C20       46.2960   -4.0240  122.9480 C.3   682  SDZ682      0.0223
     25  C21       47.5710   -3.2560  123.3580 C.3   682  SDZ682      0.0044
     26  C22       48.8070   -4.1550  123.1560 C.3   682  SDZ682      0.0003
     27  C23       48.9060   -4.5590  121.6730 C.3   682  SDZ682      0.0000
     28  C24       47.6380   -5.3300  121.2630 C.3   682  SDZ682      0.0003
     29  C25       46.3990   -4.4290  121.4660 C.3   682  SDZ682      0.0044
@<TRIPOS>BOND
     1    28    29    1
     2    28    27    1
     3    29    24    1
     4    27    26    1
     5    15    14    1
     6    16    14    1
     7    16    17    1
     8    22    23   ar
     9    22    21   ar
    10    23    18   ar
    11    24    21    1
    12    24    25    1
    13     9     8    1
    14     9    10    1
    15    21    20   ar
    16    26    25    1
    17    14    13    1
    18    13    10    1
    19    18    17    1
    20    18    19   ar
    21     8     7    1
    22    20    19   ar
    23    10    12    1
    24     5     6   ar
    25     5     4   ar
    26     7     6    1
    27     7    11    1
    28    12    11    1
    29     6     1   ar
    30     4     3   ar
    31     1     2   ar
    32     3     2   ar
