@<TRIPOS>MOLECULE
1hs6_BES_A_1.pdb
 22 22 0 0 0
SMALL
GASTEIGER

@<TRIPOS>ATOM
      1  N2        13.7120   41.1860   63.1450 N.3   901  BES901     -0.1293
      2  C1        14.4500   41.7330   64.2550 C.3   901  BES901      0.1355
      3  C6        13.7490   42.9390   64.8800 C.3   901  BES901      0.0485
      4  C7        12.3000   42.7270   65.2830 C.ar  901  BES901     -0.0206
      5  C8        11.2970   43.5710   64.7990 C.ar  901  BES901     -0.0042
      6  C12       11.9340   41.7170   66.1700 C.ar  901  BES901     -0.0042
      7  C9         9.9900   43.4540   65.2270 C.ar  901  BES901     -0.0003
      8  C11       10.6140   41.5800   66.6000 C.ar  901  BES901     -0.0003
      9  C10        9.6390   42.4510   66.1350 C.ar  901  BES901     -0.0000
     10  C2        15.8810   42.0650   63.7950 C.3   901  BES901      0.2467
     11  O2        16.3690   41.0040   62.9990 O.3   901  BES901     -0.2116
     12  C3        16.7410   42.1560   65.0630 C.2   901  BES901      0.2738
     13  O3        16.9320   41.1850   65.8030 O.2   901  BES901     -0.2705
     14  N1        17.2800   43.3760   65.2500 N.am  901  BES901     -0.1934
     15  C4        18.1570   43.6130   66.3900 C.3   901  BES901      0.1978
     16  C13       19.5680   43.5950   65.8550 C.3   901  BES901      0.0333
     17  C14       20.6690   42.8120   66.5760 C.3   901  BES901      0.0023
     18  C15       20.2100   41.7700   67.5770 C.3   901  BES901      0.0001
     19  C16       21.6920   42.2870   65.5900 C.3   901  BES901      0.0001
     20  C5        17.8400   45.0000   67.0530 C.2   901  BES901      0.3842
     21  O1        17.1600   45.8480   66.3480 O.co2 901  BES901     -0.2437
     22  O4        18.2060   45.2260   68.1920 O.co2 901  BES901     -0.2437
@<TRIPOS>BOND
     1    11    10    1
     2     1     2    1
     3    10     2    1
     4    10    12    1
     5     2     3    1
     6     5     7   ar
     7     5     4   ar
     8     3     4    1
     9    12    14   am
    10    12    13    2
    11     7     9   ar
    12    14    15    1
    13     4     6   ar
    14    19    17    1
    15    16    15    1
    16    16    17    1
    17     9     8   ar
    18     6     8   ar
    19    21    20   ar
    20    15    20    1
    21    17    18    1
    22    20    22   ar
