@<TRIPOS>MOLECULE
1hsb_ARG_A_1.pdb
 12 11 0 0 0
SMALL
GASTEIGER

@<TRIPOS>ATOM
      1  N         48.5330   14.9740  101.9290 N.3   1002  ARG1002    -0.1208
      2  CA        47.1010   14.8600  101.7590 C.3   1002  ARG1002     0.1944
      3  C         46.5410   13.4450  101.9610 C.2   1002  ARG1002     0.3819
      4  O         47.2940   12.4540  101.9670 O.co2 1002  ARG1002    -0.2441
      5  CB        46.7700   15.4370  100.3660 C.3   1002  ARG1002     0.0343
      6  CG        47.1180   16.9630  100.2140 C.3   1002  ARG1002     0.0490
      7  CD        46.9640   17.4630   98.7530 C.3   1002  ARG1002     0.2205
      8  NE        47.1840   18.8880   98.5480 N.pl3 1002  ARG1002    -0.0865
      9  CZ        48.3570   19.3870   98.0970 C.cat 1002  ARG1002     0.5346
     10  NH1       49.4520   18.5960   97.8000 N.pl3 1002  ARG1002     0.1354
     11  NH2       48.4380   20.7380   97.9250 N.pl3 1002  ARG1002     0.1354
     12  OXT       45.3400   13.3510  102.2460 O.co2 1002  ARG1002    -0.2441
@<TRIPOS>BOND
     1    10     9    1
     2    11     9    1
     3     9     8    2
     4     8     7    1
     5     7     6    1
     6     6     5    1
     7     5     2    1
     8     2     1    1
     9     2     3    1
    10     3     4   ar
    11     3    12   ar
