@<TRIPOS>MOLECULE
1hsb_III_C_1.pdb
 17 16 0 0 0
SMALL
GASTEIGER

@<TRIPOS>ATOM
      1  N         59.9510   34.4950  101.6470 N.3     1  ALA1       -0.1231
      2  CA        60.5640   33.2320  102.0270 C.3     1  ALA1        0.1694
      3  C         59.4170   32.2170  102.1140 C.2     1  ALA1        0.2592
      4  O         58.3770   32.5570  102.6840 O.2     1  ALA1       -0.2718
      5  CB        61.2210   33.3360  103.4040 C.3     1  ALA1        0.0304
      6  N         59.5690   31.0880  101.4470 N.am    2  VAL2       -0.1966
      7  CA        58.5920   30.0100  101.3770 C.3     2  VAL2        0.1727
      8  C         58.2350   29.2970  102.6780 C.2     2  VAL2        0.2616
      9  O         59.0500   29.2870  103.5900 O.2     2  VAL2       -0.2715
     10  CB        59.0730   28.9440  100.3920 C.3     2  VAL2        0.0290
     11  CG1       59.1260   29.4650   98.9820 C.3     2  VAL2        0.0023
     12  CG2       60.4470   28.4880  100.8330 C.3     2  VAL2        0.0023
     13  N         57.0530   28.6990  102.7750 N.am    3  ALA3       -0.1977
     14  CA        56.6010   27.9530  103.9410 C.3     3  ALA3        0.1597
     15  C         57.4510   26.7210  104.2210 C.2     3  ALA3        0.2287
     16  O         57.9450   26.0780  103.2890 O.2     3  ALA3       -0.2864
     17  CB        55.1810   27.4560  103.7610 C.3     3  ALA3        0.0319
@<TRIPOS>BOND
     1    11    10    1
     2    10    12    1
     3    10     7    1
     4     7     6    1
     5     7     8    1
     6     6     3   am
     7     1     2    1
     8     2     3    1
     9     2     5    1
    10     3     4    2
    11     8    13   am
    12     8     9    2
    13    13    14    1
    14    16    15    2
    15    17    14    1
    16    14    15    1
