@<TRIPOS>MOLECULE
1hsg_MK1_B_1.pdb
 45 49 0 0 0
SMALL
GASTEIGER

@<TRIPOS>ATOM
      1  N1         9.2800   23.7630    3.0040 N.3   902  MK1902     -0.2661
      2  C1         9.4980   23.9830    4.4590 C.3   902  MK1902      0.0980
      3  C2        10.5910   24.9050    4.9620 C.3   902  MK1902      0.1527
      4  C3        10.5910   24.8640    6.4660 C.2   902  MK1902      0.2572
      5  O1        10.9370   23.8490    7.0570 O.2   902  MK1902     -0.2718
      6  N2        10.1930   25.9530    7.0940 N.am  902  MK1902     -0.2077
      7  C4        10.1450   26.2500    8.4900 C.3   902  MK1902      0.0788
      8  C5         9.3790   27.5770    8.6410 C.3   902  MK1902      0.0217
      9  C6        11.3980   26.3470    9.0740 C.3   902  MK1902      0.0217
     10  C7         9.3640   25.2830    9.2680 C.3   902  MK1902      0.0217
     11  N3        11.8190   24.2820    4.3550 N.3   902  MK1902     -0.2619
     12  C8        11.7530   23.7760    2.9610 C.3   902  MK1902      0.0901
     13  C9        10.4400   23.1820    2.4930 C.3   902  MK1902      0.0899
     14  C10       13.0830   24.9630    4.5520 C.3   902  MK1902      0.1057
     15  C11       14.2030   24.0640    5.0780 C.3   902  MK1902      0.1684
     16  O2        15.2420   24.8840    4.6340 O.3   902  MK1902     -0.2216
     17  C12       14.4400   23.7610    6.5690 C.3   902  MK1902      0.0438
     18  C13       15.5730   22.8210    7.0050 C.3   902  MK1902      0.0851
     19  C14       15.6440   22.6640    8.5340 C.3   902  MK1902      0.0356
     20  C15       16.7330   21.7500    8.9610 C.ar  902  MK1902     -0.0217
     21  C16       18.0580   21.9160    8.5530 C.ar  902  MK1902     -0.0043
     22  C17       19.0370   21.0160    8.9470 C.ar  902  MK1902     -0.0003
     23  C18       18.6730   19.9390    9.7580 C.ar  902  MK1902     -0.0000
     24  C19       17.3470   19.7730   10.1760 C.ar  902  MK1902     -0.0003
     25  C20       16.3740   20.6870    9.7720 C.ar  902  MK1902     -0.0043
     26  C21       15.4470   21.4400    6.3730 C.2   902  MK1902      0.2416
     27  O3        14.3670   20.8310    6.3970 O.2   902  MK1902     -0.2733
     28  N4        16.5830   20.9130    5.9240 N.am  902  MK1902     -0.2001
     29  C22       16.6920   19.5000    5.6040 C.3   902  MK1902      0.1477
     30  C23       18.0670   18.9450    5.9360 C.3   902  MK1902      0.1802
     31  O4        19.0610   19.9380    5.7290 O.3   902  MK1902     -0.2206
     32  C24       18.2260   17.7260    5.0570 C.3   902  MK1902      0.0611
     33  C25       17.4760   17.9040    3.7600 C.ar  902  MK1902     -0.0218
     34  C26       17.5000   17.3630    2.4960 C.ar  902  MK1902     -0.0044
     35  C27       16.6130   17.8720    1.5410 C.ar  902  MK1902     -0.0003
     36  C28       15.7220   18.9060    1.8650 C.ar  902  MK1902     -0.0003
     37  C29       15.6830   19.4790    3.1290 C.ar  902  MK1902     -0.0029
     38  C30       16.5040   19.0610    4.1280 C.ar  902  MK1902     -0.0040
     39  C31        8.0330   23.1000    2.6040 C.3   902  MK1902      0.1008
     40  C32        6.6660   23.7390    2.8760 C.ar  902  MK1902      0.0130
     41  C33        6.1580   24.8080    2.1240 C.ar  902  MK1902      0.0959
     42  N5         4.9110   25.4300    2.3000 N.ar  902  MK1902     -0.2426
     43  C34        4.2070   24.8390    3.3480 C.ar  902  MK1902      0.0989
     44  C35        4.6540   23.7740    4.1360 C.ar  902  MK1902      0.0204
     45  C36        5.9050   23.2110    3.8970 C.ar  902  MK1902      0.0002
@<TRIPOS>BOND
     1    35    36   ar
     2    35    34   ar
     3    36    37   ar
     4    41    42   ar
     5    41    40   ar
     6    42    43   ar
     7    13    12    1
     8    13     1    1
     9    34    33   ar
    10    39    40    1
    11    39     1    1
    12    40    45   ar
    13    12    11    1
    14     1     2    1
    15    37    38   ar
    16    43    44   ar
    17    33    38   ar
    18    33    32    1
    19    45    44   ar
    20    38    29    1
    21    11    14    1
    22    11     3    1
    23     2     3    1
    24    14    15    1
    25    16    15    1
    26     3     4    1
    27    32    30    1
    28    15    17    1
    29    29    28    1
    30    29    30    1
    31    31    30    1
    32    28    26   am
    33    26    27    2
    34    26    18    1
    35     4     5    2
    36     4     6   am
    37    17    18    1
    38    18    19    1
    39     6     7    1
    40     7     8    1
    41     7     9    1
    42     7    10    1
    43    19    20    1
    44    21    22   ar
    45    21    20   ar
    46    22    23   ar
    47    20    25   ar
    48    23    24   ar
    49    25    24   ar
