@<TRIPOS>MOLECULE
1hsh_MK1_A_1.pdb
 45 49 0 0 0
SMALL
GASTEIGER

@<TRIPOS>ATOM
      1  N1        11.8340    4.3590    9.9060 N.3   401  MK1401     -0.2661
      2  C1        12.7330    3.1970    9.9370 C.3   401  MK1401      0.0980
      3  C2        13.3080    2.6910    8.6070 C.3   401  MK1401      0.1527
      4  C3        14.1000    1.4240    8.8820 C.2   401  MK1401      0.2572
      5  O1        13.5090    0.3830    9.1850 O.2   401  MK1401     -0.2718
      6  N2        15.4300    1.5170    8.8220 N.am  401  MK1401     -0.2077
      7  C4        16.4300    0.3730    9.1140 C.3   401  MK1401      0.0788
      8  C5        17.9040    0.8640    9.0220 C.3   401  MK1401      0.0217
      9  C6        16.4940   -0.6600    7.9530 C.3   401  MK1401      0.0217
     10  C7        16.1200   -0.3140   10.5490 C.3   401  MK1401      0.0217
     11  N3        12.2600    2.5380    7.5910 N.3   401  MK1401     -0.2619
     12  C8        11.2470    3.6340    7.5410 C.3   401  MK1401      0.0901
     13  C9        10.7520    4.1370    8.9100 C.3   401  MK1401      0.0899
     14  C10       12.7070    2.0400    6.3020 C.3   401  MK1401      0.1057
     15  C11       11.7170    1.0420    5.6970 C.3   401  MK1401      0.1684
     16  O2        11.8160    1.0600    4.2690 O.3   401  MK1401     -0.2216
     17  C12       11.8960   -0.4230    6.0910 C.3   401  MK1401      0.0438
     18  C13       11.0140   -1.4400    5.3650 C.3   401  MK1401      0.0851
     19  C14       11.6830   -2.7690    5.7160 C.3   401  MK1401      0.0356
     20  C15       10.8330   -3.9550    5.4080 C.ar  401  MK1401     -0.0217
     21  C16       10.4000   -4.2230    4.1150 C.ar  401  MK1401     -0.0043
     22  C17        9.4470   -5.2180    3.8990 C.ar  401  MK1401     -0.0003
     23  C18        8.9360   -5.9430    4.9810 C.ar  401  MK1401     -0.0000
     24  C19        9.3790   -5.6790    6.2700 C.ar  401  MK1401     -0.0003
     25  C20       10.3260   -4.6920    6.4830 C.ar  401  MK1401     -0.0043
     26  C21        9.5570   -1.3850    5.8630 C.2   401  MK1401      0.2416
     27  O3         9.2740   -0.9040    6.9590 O.2   401  MK1401     -0.2733
     28  N4         8.6380   -1.9010    5.0490 N.am  401  MK1401     -0.2001
     29  C22        7.2200   -2.0180    5.3980 C.3   401  MK1401      0.1477
     30  C23        6.4390   -2.8300    4.3370 C.3   401  MK1401      0.1802
     31  O4         7.1820   -2.9470    3.1220 O.3   401  MK1401     -0.2206
     32  C24        5.0390   -2.2750    4.3350 C.3   401  MK1401      0.0611
     33  C25        5.0260   -0.8500    4.8220 C.ar  401  MK1401     -0.0218
     34  C26        4.1270    0.2010    4.7200 C.ar  401  MK1401     -0.0044
     35  C27        4.5010    1.4360    5.2500 C.ar  401  MK1401     -0.0003
     36  C28        5.7400    1.6180    5.8890 C.ar  401  MK1401     -0.0003
     37  C29        6.6740    0.5710    6.0220 C.ar  401  MK1401     -0.0029
     38  C30        6.4170   -0.7040    5.5100 C.ar  401  MK1401     -0.0040
     39  C31       11.4660    4.9870   11.2060 C.3   401  MK1401      0.1008
     40  C32       12.5180    5.3700   12.3280 C.ar  401  MK1401      0.0130
     41  C33       13.6040    6.2000   12.0930 C.ar  401  MK1401      0.0959
     42  N5        14.5190    6.6560   13.1340 N.ar  401  MK1401     -0.2426
     43  C34       14.1940    6.1760   14.4180 C.ar  401  MK1401      0.0989
     44  C35       13.1230    5.3490   14.6790 C.ar  401  MK1401      0.0204
     45  C36       12.2840    4.9420   13.6370 C.ar  401  MK1401      0.0002
@<TRIPOS>BOND
     1    31    30    1
     2    22    21   ar
     3    22    23   ar
     4    21    20   ar
     5    16    15    1
     6    32    30    1
     7    32    33    1
     8    30    29    1
     9    34    33   ar
    10    34    35   ar
    11    33    38   ar
    12    23    24   ar
    13    28    29    1
    14    28    26   am
    15    35    36   ar
    16    18    19    1
    17    18    26    1
    18    18    17    1
    19    29    38    1
    20    20    19    1
    21    20    25   ar
    22    38    37   ar
    23    15    17    1
    24    15    14    1
    25    26    27    2
    26    36    37   ar
    27    24    25   ar
    28    14    11    1
    29    12    11    1
    30    12    13    1
    31    11     3    1
    32     9     7    1
    33     3     4    1
    34     3     2    1
    35     6     4   am
    36     6     7    1
    37     4     5    2
    38    13     1    1
    39     8     7    1
    40     7    10    1
    41     1     2    1
    42     1    39    1
    43    39    40    1
    44    41    40   ar
    45    41    42   ar
    46    40    45   ar
    47    42    43   ar
    48    45    44   ar
    49    43    44   ar
