@<TRIPOS>MOLECULE
1hsj_GLC_A_1.pdb
 12 12 0 0 0
SMALL
GASTEIGER

@<TRIPOS>ATOM
      1  C1        84.8720   57.2080   47.5410 C.3   671  GLC671      0.3024
      2  C2        84.7290   55.6770   47.4650 C.3   671  GLC671      0.2434
      3  C3        84.5480   55.1190   48.8600 C.3   671  GLC671      0.2199
      4  C4        85.7670   55.5110   49.6890 C.3   671  GLC671      0.2144
      5  C5        85.8420   57.0450   49.7320 C.3   671  GLC671      0.1836
      6  C6        87.0320   57.5580   50.5230 C.3   671  GLC671      0.2142
      7  O1        83.7410   57.7600   48.0970 O.3   671  GLC671     -0.1869
      8  O2        83.6230   55.3090   46.6610 O.3   671  GLC671     -0.2148
      9  O3        84.4230   53.7120   48.7850 O.3   671  GLC671     -0.2174
     10  O4        85.6730   54.9740   51.0010 O.3   671  GLC671     -0.2176
     11  O5        85.9720   57.5680   48.3870 O.3   671  GLC671     -0.3236
     12  O6        87.2060   58.9590   50.3490 O.3   671  GLC671     -0.2176
@<TRIPOS>BOND
     1     8     2    1
     2     2     1    1
     3     2     3    1
     4     1     7    1
     5     1    11    1
     6    11     5    1
     7     9     3    1
     8     3     4    1
     9     4     5    1
    10     4    10    1
    11     5     6    1
    12    12     6    1
