@<TRIPOS>MOLECULE
1hsl_HIS_A_1.pdb
 11 11 0 0 0
SMALL
GASTEIGER

@<TRIPOS>ATOM
      1  N        -22.6800  -32.9020   -2.9590 N.3   239  HIS239     -0.1204
      2  CA       -21.6600  -33.5270   -3.7890 C.3   239  HIS239      0.1999
      3  C        -21.2250  -34.7910   -3.1160 C.2   239  HIS239      0.3822
      4  O        -20.5050  -35.5460   -3.7350 O.co2 239  HIS239     -0.2440
      5  CB       -20.3710  -32.6840   -4.0380 C.3   239  HIS239      0.0740
      6  CG       -19.3770  -32.2070   -2.9570 C.2   239  HIS239      0.0651
      7  ND1      -18.1320  -31.7750   -3.2100 N.2   239  HIS239     -0.2310
      8  CD2      -19.5990  -32.0440   -1.6040 C.3   239  HIS239      0.1683
      9  CE1      -17.6020  -31.3600   -2.0850 C.2   239  HIS239      0.1939
     10  NE2      -18.4900  -31.5260   -1.1520 N.2   239  HIS239     -0.2440
     11  OXT      -21.6770  -35.0490   -1.9960 O.co2 239  HIS239     -0.2440
@<TRIPOS>BOND
     1     5     2    1
     2     5     6    1
     3     2     3    1
     4     2     1    1
     5     4     3   ar
     6     7     6    2
     7     7     9    1
     8     3    11   ar
     9     6     8    1
    10     9    10    2
    11     8    10    1
