@<TRIPOS>MOLECULE
1hso_NAD_A_1.pdb
 44 48 0 0 0
SMALL
GASTEIGER

@<TRIPOS>ATOM
      1  PA        -2.6620    3.3750    4.2390 P.3   1377  NAD1377     0.2189
      2  O1A       -2.7500    4.7810    4.7630 O.3   1377  NAD1377    -0.4371
      3  O2A       -3.3780    3.2310    2.9250 O.2   1377  NAD1377    -0.5170
      4  O5B       -3.5020    2.5800    5.3110 O.3   1377  NAD1377    -0.3112
      5  C5B       -3.2570    2.7470    6.7140 C.3   1377  NAD1377     0.1813
      6  C4B       -4.4870    1.9580    7.1560 C.3   1377  NAD1377     0.1821
      7  O4B       -4.4040    1.7690    8.5560 O.3   1377  NAD1377    -0.3135
      8  C3B       -5.7890    2.6970    6.7610 C.3   1377  NAD1377     0.2184
      9  O3B       -6.8100    1.7460    6.4260 O.3   1377  NAD1377    -0.2174
     10  C2B       -6.1030    3.3190    8.1320 C.3   1377  NAD1377     0.2570
     11  O2B       -7.5210    3.4520    8.2690 O.3   1377  NAD1377    -0.2130
     12  C1B       -5.6060    2.2350    9.1030 C.3   1377  NAD1377     0.3186
     13  N9A       -5.3420    2.8080   10.3920 N.pl3 1377  NAD1377    -0.1439
     14  C8A       -4.7110    4.0130   10.7060 C.3   1377  NAD1377     0.3377
     15  N7A       -4.6320    4.2070   12.0760 N.2   1377  NAD1377    -0.2095
     16  C5A       -5.2320    3.0750   12.5810 C.2   1377  NAD1377     0.2526
     17  C6A       -5.3690    2.6940   13.9090 C.2   1377  NAD1377     0.4393
     18  N6A       -4.9990    3.5340   14.9170 N.pl3 1377  NAD1377     0.2180
     19  N1A       -5.9320    1.4350   14.1520 N.2   1377  NAD1377     0.0021
     20  C2A       -6.3550    0.6230   13.1070 C.3   1377  NAD1377     0.5254
     21  N3A       -6.2190    1.0220   11.7800 N.2   1377  NAD1377    -0.0055
     22  C4A       -5.6610    2.2610   11.5800 C.2   1377  NAD1377     0.3518
     23  O3        -1.1240    2.8750    4.1590 O.3   1377  NAD1377    -0.2703
     24  PN        -0.4010    1.7420    3.2290 P.3   1377  NAD1377     0.2189
     25  O1N        0.0500    2.2150    1.9150 O.2   1377  NAD1377    -0.5170
     26  O2N       -1.1640    0.4760    3.0150 O.3   1377  NAD1377    -0.4371
     27  O5D        0.8950    1.4490    4.0770 O.3   1377  NAD1377    -0.3112
     28  C5D        0.7100    0.8170    5.3840 C.3   1377  NAD1377     0.1813
     29  C4D        2.0090    0.8690    6.1790 C.3   1377  NAD1377     0.1799
     30  O4D        2.9780   -0.0440    5.6490 O.3   1377  NAD1377    -0.3327
     31  C3D        2.6320    2.2820    6.1040 C.3   1377  NAD1377     0.2158
     32  O3D        3.3970    2.5190    7.2850 O.3   1377  NAD1377    -0.2175
     33  C2D        3.5950    2.1440    4.9200 C.3   1377  NAD1377     0.2309
     34  O2D        4.6480    3.1170    5.0560 O.3   1377  NAD1377    -0.2158
     35  C1D        4.1250    0.7270    5.2570 C.3   1377  NAD1377     0.2263
     36  N1N        4.7820    0.0060    4.1520 N.pl3 1377  NAD1377    -0.2787
     37  C2N        5.7610   -0.8400    4.4600 C.3   1377  NAD1377     0.1244
     38  C3N        6.4560   -1.4870    3.4970 C.2   1377  NAD1377     0.0544
     39  C7N        7.4550   -2.3350    3.7860 C.2   1377  NAD1377     0.2818
     40  O7N        8.2070   -2.6600    2.8460 O.2   1377  NAD1377    -0.2670
     41  N7N        7.6850   -2.8980    4.9760 N.am  1377  NAD1377    -0.0839
     42  C4N        6.1570   -1.2950    2.2060 C.2   1377  NAD1377     0.0033
     43  C5N        5.1720   -0.4560    1.8570 C.2   1377  NAD1377     0.0157
     44  C6N        4.4780    0.2010    2.8840 C.2   1377  NAD1377     0.0633
@<TRIPOS>BOND
     1    43    42    1
     2    43    44    2
     3    25    24    2
     4    42    38    2
     5    40    39    2
     6    44    36    1
     7     3     1    2
     8    26    24    1
     9    24    27    1
    10    24    23    1
    11    38    39    1
    12    38    37    1
    13    39    41   am
    14    27    28    1
    15    36    37    1
    16    36    35    1
    17    23     1    1
    18     1     2    1
    19     1     4    1
    20    33    34    1
    21    33    35    1
    22    33    31    1
    23    35    30    1
    24     4     5    1
    25    28    29    1
    26    30    29    1
    27    31    29    1
    28    31    32    1
    29     9     8    1
    30     5     6    1
    31     8     6    1
    32     8    10    1
    33     6     7    1
    34    10    11    1
    35    10    12    1
    36     7    12    1
    37    12    13    1
    38    13    14    1
    39    13    22    1
    40    14    15    1
    41    22    21    2
    42    22    16    1
    43    21    20    1
    44    15    16    2
    45    16    17    1
    46    20    19    1
    47    17    19    2
    48    17    18    1
