@<TRIPOS>MOLECULE
1hsr_BHO_A_1.pdb
 10 10 0 0 0
SMALL
GASTEIGER

@<TRIPOS>ATOM
      1  C1        12.3600   21.9880   31.4330 C.ar  800  BHO800      0.0227
      2  C2        12.2810   20.6580   30.9490 C.ar  800  BHO800      0.0019
      3  C3        11.0490   20.1190   30.5360 C.ar  800  BHO800      0.0001
      4  C4         9.8920   20.8950   30.6020 C.ar  800  BHO800      0.0000
      5  C5         9.9620   22.2150   31.0890 C.ar  800  BHO800      0.0001
      6  C6        11.1830   22.7640   31.5010 C.ar  800  BHO800      0.0019
      7  C         13.6200   22.4860   31.8210 C.2   800  BHO800      0.1101
      8  O1        14.5890   21.7170   32.0210 O.2   800  BHO800     -0.5359
      9  N         13.7630   23.8220   31.9680 N.am  800  BHO800     -0.1984
     10  O2        15.0470   24.1880   32.3430 O.3   800  BHO800     -0.4024
@<TRIPOS>BOND
     1     3     4   ar
     2     3     2   ar
     3     4     5   ar
     4     2     1   ar
     5     5     6   ar
     6     1     6   ar
     7     1     7    1
     8     7     9   am
     9     7     8    2
    10     9    10    1
