@<TRIPOS>MOLECULE
1hsr_HEM_A_1.pdb
 43 50 0 0 0
SMALL
GASTEIGER

@<TRIPOS>ATOM
      1  CHA       18.6920   20.1790   29.1650 C.2   345  HEM345      0.0000
      2  CHB       15.3550   23.6440   28.8150 C.2   345  HEM345      0.0000
      3  CHC       18.5370   26.8020   30.5650 C.2   345  HEM345      0.0000
      4  CHD       21.4890   23.2110   31.6500 C.2   345  HEM345      0.0000
      5  C1A       17.5060   20.8480   28.9090 C.ar  345  HEM345      0.0000
      6  C2A       16.2880   20.2040   28.4910 C.ar  345  HEM345      0.0000
      7  C3A       15.3320   21.1820   28.4230 C.ar  345  HEM345      0.0000
      8  C4A       15.9720   22.4030   28.8230 C.ar  345  HEM345      0.0000
      9  CMA       13.8840   21.0530   27.9780 C.3   345  HEM345      0.0000
     10  CAA       16.1600   18.7100   28.2670 C.3   345  HEM345      0.0000
     11  CBA       15.7420   17.9700   29.5290 C.3   345  HEM345      0.0000
     12  CGA       15.4390   16.5200   29.2290 C.2   345  HEM345      0.0000
     13  O1A       16.2400   15.6660   29.5690 O.co2 345  HEM345      0.0000
     14  O2A       14.4130   16.2280   28.6120 O.co2 345  HEM345      0.0000
     15  C1B       15.9750   24.8390   29.1470 C.2   345  HEM345      0.0000
     16  C2B       15.3430   26.1480   29.0530 C.2   345  HEM345      0.0000
     17  C3B       16.2480   27.0460   29.5500 C.2   345  HEM345      0.0000
     18  C4B       17.4390   26.2770   29.8880 C.2   345  HEM345      0.0000
     19  CMB       13.9730   26.4270   28.4500 C.3   345  HEM345      0.0000
     20  CAB       16.0550   28.3960   29.8480 C.3   345  HEM345      0.0000
     21  CBB       15.9410   29.4260   28.8610 C.3   345  HEM345      0.0000
     22  C1C       19.5930   26.0870   31.0810 C.ar  345  HEM345      0.0000
     23  C2C       20.5910   26.6490   31.9700 C.ar  345  HEM345      0.0000
     24  C3C       21.3940   25.6240   32.3610 C.ar  345  HEM345      0.0000
     25  C4C       20.8750   24.4480   31.6610 C.ar  345  HEM345      0.0000
     26  CMC       20.6440   28.1250   32.3840 C.3   345  HEM345      0.0000
     27  CAC       22.4130   25.5940   33.3240 C.3   345  HEM345      0.0000
     28  CBC       23.3810   26.6480   33.5940 C.3   345  HEM345      0.0000
     29  C1D       21.0430   22.0940   30.9440 C.2   345  HEM345      0.0000
     30  C2D       21.8280   20.8740   30.7580 C.2   345  HEM345      0.0000
     31  C3D       21.0060   20.0340   30.0940 C.2   345  HEM345      0.0000
     32  C4D       19.7900   20.7350   29.8010 C.2   345  HEM345      0.0000
     33  CMD       23.3080   20.6870   31.0860 C.3   345  HEM345      0.0000
     34  CAD       21.3100   18.6110   29.6900 C.3   345  HEM345      0.0000
     35  CBD       20.8110   17.5470   30.6750 C.3   345  HEM345      0.0000
     36  CGD       21.1420   16.1330   30.2150 C.2   345  HEM345      0.0000
     37  O1D       20.6940   15.2010   30.8770 O.co2 345  HEM345      0.0000
     38  O2D       21.8690   15.9430   29.2380 O.co2 345  HEM345      0.0000
     39  NA        17.3010   22.1930   29.1450 N.ar  345  HEM345      0.0000
     40  NB        17.2700   24.9380   29.6170 N.2   345  HEM345      0.0000
     41  NC        19.7640   24.7450   30.9150 N.ar  345  HEM345      0.0000
     42  ND        19.8360   22.0210   30.2690 N.2   345  HEM345      0.0000
     43 FE         18.5940   23.4960   29.8820 Fe    345  HEM345      0.0000
@<TRIPOS>BOND
     1     9     7    1
     2    10     6    1
     3    10    11    1
     4     7     6   ar
     5     7     8   ar
     6    19    16    1
     7     6     5   ar
     8    14    12   ar
     9     2     8    2
    10     2    15    1
    11     8    39   ar
    12    21    20    1
    13     5    39   ar
    14     5     1    2
    15    16    15    1
    16    16    17    2
    17    39    43    1
    18    15    40    2
    19     1    32    1
    20    12    11    1
    21    12    13   ar
    22    38    36   ar
    23    17    20    1
    24    17    18    1
    25    40    43    1
    26    40    18    1
    27    34    31    1
    28    34    35    1
    29    32    31    1
    30    32    42    2
    31    43    42    1
    32    43    41    1
    33    18     3    2
    34    31    30    2
    35    36    35    1
    36    36    37   ar
    37    42    29    1
    38     3    22    1
    39    30    29    1
    40    30    33    1
    41    41    22   ar
    42    41    25   ar
    43    29     4    2
    44    22    23   ar
    45     4    25    1
    46    25    24   ar
    47    23    24   ar
    48    23    26    1
    49    24    27    1
    50    27    28    1
