@<TRIPOS>MOLECULE
1hsy_HEM_A_1.pdb
 43 50 0 0 0
SMALL
GASTEIGER

@<TRIPOS>ATOM
      1 FE         14.1440   29.5450    5.0840 Fe    154  HEM154      0.0000
      2  CHA       15.5040   32.6450    5.2600 C.2   154  HEM154      0.0000
      3  CHB       13.6760   29.5090    8.4270 C.2   154  HEM154      0.0000
      4  CHC       13.1730   26.2450    4.9160 C.2   154  HEM154      0.0000
      5  CHD       15.3230   29.2860    1.7870 C.2   154  HEM154      0.0000
      6  NA        14.5260   30.8110    6.5740 N.2   154  HEM154      0.0000
      7  C1A       15.0830   32.0970    6.4460 C.2   154  HEM154      0.0000
      8  C2A       15.0090   32.7600    7.7310 C.2   154  HEM154      0.0000
      9  C3A       14.4900   31.9160    8.6290 C.2   154  HEM154      0.0000
     10  C4A       14.2180   30.6760    7.9110 C.2   154  HEM154      0.0000
     11  CMA       14.2580   32.1580   10.1250 C.3   154  HEM154      0.0000
     12  CAA       15.3920   34.2620    7.9100 C.3   154  HEM154      0.0000
     13  CBA       14.1830   35.2080    8.1520 C.3   154  HEM154      0.0000
     14  CGA       13.2440   35.2440    6.9450 C.2   154  HEM154      0.0000
     15  O1A       13.7450   35.5400    5.8170 O.co2 154  HEM154      0.0000
     16  O2A       12.0360   34.9050    7.1460 O.co2 154  HEM154      0.0000
     17  NB        13.5760   28.1600    6.4130 N.ar  154  HEM154      0.0000
     18  C1B       13.3330   28.3700    7.7420 C.ar  154  HEM154      0.0000
     19  C2B       12.6790   27.2170    8.3150 C.ar  154  HEM154      0.0000
     20  C3B       12.5870   26.2900    7.3700 C.ar  154  HEM154      0.0000
     21  C4B       13.1350   26.8620    6.1630 C.ar  154  HEM154      0.0000
     22  CMB       12.2390   27.1950    9.8100 C.3   154  HEM154      0.0000
     23  CAB       11.9250   24.8980    7.3790 C.2   154  HEM154      0.0000
     24  CBB       12.3790   23.8050    8.0080 C.2   154  HEM154      0.0000
     25  NC        14.2970   28.0860    3.6680 N.2   154  HEM154      0.0000
     26  C1C       13.7860   26.7970    3.7910 C.2   154  HEM154      0.0000
     27  C2C       14.0130   26.0670    2.5630 C.2   154  HEM154      0.0000
     28  C3C       14.5740   26.9120    1.6730 C.2   154  HEM154      0.0000
     29  C4C       14.7890   28.1840    2.3960 C.2   154  HEM154      0.0000
     30  CMC       13.5330   24.6180    2.3350 C.3   154  HEM154      0.0000
     31  CAC       15.0600   26.7320    0.2300 C.2   154  HEM154      0.0000
     32  CBC       15.4540   25.5580   -0.2590 C.2   154  HEM154      0.0000
     33  ND        15.1620   30.7080    3.8040 N.ar  154  HEM154      0.0000
     34  C1D       15.5030   30.4540    2.4810 C.ar  154  HEM154      0.0000
     35  C2D       16.1880   31.5950    1.9050 C.ar  154  HEM154      0.0000
     36  C3D       16.2390   32.5160    2.8840 C.ar  154  HEM154      0.0000
     37  C4D       15.6260   31.9880    4.0700 C.ar  154  HEM154      0.0000
     38  CMD       16.7530   31.7210    0.4730 C.3   154  HEM154      0.0000
     39  CAD       16.9890   33.8780    2.8140 C.3   154  HEM154      0.0000
     40  CBD       18.4850   33.5020    3.0450 C.3   154  HEM154      0.0000
     41  CGD       19.4130   34.5950    3.3750 C.2   154  HEM154      0.0000
     42  O1D       19.8750   35.3090    2.4520 O.co2 154  HEM154      0.0000
     43  O2D       19.6870   34.7820    4.5750 O.co2 154  HEM154      0.0000
@<TRIPOS>BOND
     1    32    31    2
     2    31    28    1
     3    38    35    1
     4    28    29    1
     5    28    27    2
     6     5    29    1
     7     5    34    2
     8    35    34   ar
     9    35    36   ar
    10    30    27    1
    11    29    25    2
    12    42    41   ar
    13    34    33   ar
    14    27    26    1
    15    39    36    1
    16    39    40    1
    17    36    37   ar
    18    40    41    1
    19    41    43   ar
    20    25    26    1
    21    25     1    1
    22    26     4    2
    23    33    37   ar
    24    33     1    1
    25    37     2    2
    26     4    21    1
    27     1    17    1
    28     1     6    1
    29     2     7    1
    30    15    14   ar
    31    21    17   ar
    32    21    20   ar
    33    17    18   ar
    34     7     6    2
    35     7     8    1
    36     6    10    1
    37    14    16   ar
    38    14    13    1
    39    20    23    1
    40    20    19   ar
    41    23    24    2
    42     8    12    1
    43     8     9    2
    44    18    19   ar
    45    18     3    1
    46    12    13    1
    47    10     3    2
    48    10     9    1
    49    19    22    1
    50     9    11    1
