@<TRIPOS>MOLECULE
1hsz_NAD_A_1.pdb
 44 48 0 0 0
SMALL
GASTEIGER

@<TRIPOS>ATOM
      1  PA         4.3360  -13.3940  -19.2220 P.3   1377  NAD1377     0.2189
      2  O1A        3.0870  -14.0170  -19.7520 O.3   1377  NAD1377    -0.4371
      3  O2A        5.3830  -13.5110  -20.2360 O.2   1377  NAD1377    -0.5170
      4  O5B        4.8630  -14.1870  -17.8980 O.3   1377  NAD1377    -0.3112
      5  C5B        3.9850  -14.2950  -16.6890 C.3   1377  NAD1377     0.1813
      6  C4B        4.3370  -15.5600  -15.9050 C.3   1377  NAD1377     0.1821
      7  O4B        3.2910  -15.8170  -14.9510 O.3   1377  NAD1377    -0.3135
      8  C3B        4.5210  -16.7550  -16.8780 C.3   1377  NAD1377     0.2184
      9  O3B        5.7900  -17.3680  -16.6450 O.3   1377  NAD1377    -0.2174
     10  C2B        3.4070  -17.6600  -16.3730 C.3   1377  NAD1377     0.2570
     11  O2B        3.8270  -19.0320  -16.4350 O.3   1377  NAD1377    -0.2130
     12  C1B        3.2050  -17.2250  -14.8870 C.3   1377  NAD1377     0.3186
     13  N9A        1.8770  -17.5800  -14.5060 N.pl3 1377  NAD1377    -0.1439
     14  C8A        0.7040  -17.4350  -15.2410 C.3   1377  NAD1377     0.3377
     15  N7A       -0.4210  -17.8510  -14.5320 N.2   1377  NAD1377    -0.2095
     16  C5A        0.1110  -18.2550  -13.3240 C.2   1377  NAD1377     0.2526
     17  C6A       -0.5540  -18.6510  -12.1840 C.2   1377  NAD1377     0.4393
     18  N6A       -1.8700  -18.8620  -12.1430 N.pl3 1377  NAD1377     0.2180
     19  N1A        0.2050  -18.8660  -11.0560 N.2   1377  NAD1377     0.0021
     20  C2A        1.5850  -18.7080  -11.0740 C.3   1377  NAD1377     0.5254
     21  N3A        2.2660  -18.3150  -12.2070 N.2   1377  NAD1377    -0.0055
     22  C4A        1.4650  -18.1070  -13.3130 C.2   1377  NAD1377     0.3518
     23  O3         4.0450  -11.8320  -18.8420 O.3   1377  NAD1377    -0.2703
     24  PN         5.0780  -10.6150  -18.8010 P.3   1377  NAD1377     0.2189
     25  O1N        5.2360   -9.8820  -20.1040 O.2   1377  NAD1377    -0.5170
     26  O2N        6.3990  -10.6760  -18.0970 O.3   1377  NAD1377    -0.4371
     27  O5D        4.1610   -9.5420  -17.9550 O.3   1377  NAD1377    -0.3112
     28  C5D        3.4160   -9.9690  -16.7820 C.3   1377  NAD1377     0.1813
     29  C4D        2.4700   -8.8460  -16.3730 C.3   1377  NAD1377     0.1799
     30  O4D        3.1680   -7.6040  -16.2890 O.3   1377  NAD1377    -0.3327
     31  C3D        1.3590   -8.6950  -17.4260 C.3   1377  NAD1377     0.2158
     32  O3D        0.1010   -8.6930  -16.7590 O.3   1377  NAD1377    -0.2175
     33  C2D        1.6540   -7.2890  -17.9760 C.3   1377  NAD1377     0.2309
     34  O2D        0.4070   -6.6660  -18.3150 O.3   1377  NAD1377    -0.2158
     35  C1D        2.3030   -6.5530  -16.7590 C.3   1377  NAD1377     0.2263
     36  N1N        3.1840   -5.3800  -17.0110 N.pl3 1377  NAD1377    -0.2787
     37  C2N        3.0640   -4.3070  -16.2580 C.3   1377  NAD1377     0.1244
     38  C3N        3.7980   -3.2190  -16.4730 C.2   1377  NAD1377     0.0544
     39  C7N        3.7070   -2.0820  -15.6570 C.2   1377  NAD1377     0.2818
     40  O7N        4.2000   -0.9960  -16.0310 O.2   1377  NAD1377    -0.2670
     41  N7N        3.2260   -2.0550  -14.4230 N.am  1377  NAD1377    -0.0839
     42  C4N        4.6980   -3.1970  -17.5020 C.2   1377  NAD1377     0.0033
     43  C5N        4.8660   -4.2300  -18.2890 C.2   1377  NAD1377     0.0157
     44  C6N        4.0760   -5.3460  -18.0250 C.2   1377  NAD1377     0.0633
@<TRIPOS>BOND
     1     3     1    2
     2    25    24    2
     3     2     1    1
     4     1    23    1
     5     1     4    1
     6    23    24    1
     7    24    26    1
     8    24    27    1
     9    34    33    1
    10    43    44    2
    11    43    42    1
    12    44    36    1
    13    33    31    1
    14    33    35    1
    15    27    28    1
    16     4     5    1
    17    42    38    2
    18    31    32    1
    19    31    29    1
    20    36    35    1
    21    36    37    1
    22     8     9    1
    23     8    10    1
    24     8     6    1
    25    28    29    1
    26    35    30    1
    27     5     6    1
    28    38    37    1
    29    38    39    1
    30    11    10    1
    31    10    12    1
    32    29    30    1
    33    40    39    2
    34     6     7    1
    35    39    41   am
    36    14    15    1
    37    14    13    1
    38     7    12    1
    39    12    13    1
    40    15    16    2
    41    13    22    1
    42    16    22    1
    43    16    17    1
    44    22    21    2
    45    21    20    1
    46    17    18    1
    47    17    19    2
    48    20    19    1
