@<TRIPOS>MOLECULE
1ht0_NAD_A_1.pdb
 44 48 0 0 0
SMALL
GASTEIGER

@<TRIPOS>ATOM
      1  PA        22.4860   -4.5250    1.8390 P.3   1377  NAD1377     0.2189
      2  O1A       22.4590   -5.9210    1.4910 O.3   1377  NAD1377    -0.4371
      3  O2A       23.1840   -3.6680    0.8130 O.2   1377  NAD1377    -0.5170
      4  O5B       23.1230   -4.3270    3.2680 O.3   1377  NAD1377    -0.3112
      5  C5B       22.9940   -5.3710    4.2710 C.3   1377  NAD1377     0.1813
      6  C4B       24.2930   -5.2030    5.0520 C.3   1377  NAD1377     0.1821
      7  O4B       24.2030   -6.0740    6.1760 O.3   1377  NAD1377    -0.3135
      8  C3B       25.5430   -5.6140    4.1870 C.3   1377  NAD1377     0.2184
      9  O3B       26.6320   -4.7310    4.4960 O.3   1377  NAD1377    -0.2174
     10  C2B       25.7890   -7.0140    4.7980 C.3   1377  NAD1377     0.2570
     11  O2B       27.1790   -7.3560    4.7450 O.3   1377  NAD1377    -0.2130
     12  C1B       25.3740   -6.8320    6.2850 C.3   1377  NAD1377     0.3186
     13  N9A       25.0060   -8.0840    6.9110 N.pl3 1377  NAD1377    -0.1439
     14  C8A       24.2540   -9.1290    6.3800 C.3   1377  NAD1377     0.3377
     15  N7A       24.0580  -10.1490    7.2830 N.2   1377  NAD1377    -0.2095
     16  C5A       24.7080   -9.7290    8.4060 C.2   1377  NAD1377     0.2526
     17  C6A       24.8340  -10.3660    9.6270 C.2   1377  NAD1377     0.4393
     18  N6A       24.2850  -11.5730    9.9140 N.pl3 1377  NAD1377     0.2180
     19  N1A       25.5670   -9.6950   10.5850 N.2   1377  NAD1377     0.0021
     20  C2A       26.1280   -8.4550   10.3480 C.3   1377  NAD1377     0.5254
     21  N3A       26.0030   -7.8090    9.1240 N.2   1377  NAD1377    -0.0055
     22  C4A       25.2680   -8.5040    8.1940 C.2   1377  NAD1377     0.3518
     23  O3        20.9620   -3.9460    2.0090 O.3   1377  NAD1377    -0.2703
     24  PN        20.3360   -2.5070    1.9440 P.3   1377  NAD1377     0.2189
     25  O1N       19.9060   -2.1860    0.5480 O.2   1377  NAD1377    -0.5170
     26  O2N       21.1180   -1.4250    2.5350 O.3   1377  NAD1377    -0.4371
     27  O5D       18.9340   -2.6690    2.7760 O.3   1377  NAD1377    -0.3112
     28  C5D       19.0310   -3.1220    4.1920 C.3   1377  NAD1377     0.1813
     29  C4D       17.6970   -3.6200    4.7790 C.3   1377  NAD1377     0.1799
     30  O4D       16.7630   -2.5320    4.8010 O.3   1377  NAD1377    -0.3327
     31  C3D       17.1000   -4.7090    3.8780 C.3   1377  NAD1377     0.2158
     32  O3D       16.4040   -5.6700    4.6760 O.3   1377  NAD1377    -0.2175
     33  C2D       16.0970   -3.9400    3.0210 C.3   1377  NAD1377     0.2309
     34  O2D       15.0700   -4.8410    2.5900 O.3   1377  NAD1377    -0.2158
     35  C1D       15.5530   -2.9880    4.1030 C.3   1377  NAD1377     0.2263
     36  N1N       14.8920   -1.7940    3.6140 N.pl3 1377  NAD1377    -0.2787
     37  C2N       13.8380   -1.3590    4.3230 C.3   1377  NAD1377     0.1244
     38  C3N       13.2350   -0.2120    4.0480 C.2   1377  NAD1377     0.0544
     39  C7N       12.1850    0.2550    4.8240 C.2   1377  NAD1377     0.2818
     40  O7N       11.3670    1.0520    4.3270 O.2   1377  NAD1377    -0.2670
     41  N7N       12.0560   -0.0320    6.1360 N.am  1377  NAD1377    -0.0839
     42  C4N       13.6700    0.5250    3.0070 C.2   1377  NAD1377     0.0033
     43  C5N       14.7220    0.1130    2.2500 C.2   1377  NAD1377     0.0157
     44  C6N       15.3370   -1.0830    2.5820 C.2   1377  NAD1377     0.0633
@<TRIPOS>BOND
     1    25    24    2
     2     3     1    2
     3     2     1    1
     4     1    23    1
     5     1     4    1
     6    24    23    1
     7    24    26    1
     8    24    27    1
     9    43    44    2
    10    43    42    1
    11    44    36    1
    12    34    33    1
    13    27    28    1
    14    42    38    2
    15    33    31    1
    16    33    35    1
    17     4     5    1
    18    36    35    1
    19    36    37    1
    20    31    32    1
    21    31    29    1
    22    38    37    1
    23    38    39    1
    24    35    30    1
    25     8     9    1
    26     8    10    1
    27     8     6    1
    28    28    29    1
    29     5     6    1
    30    40    39    2
    31    11    10    1
    32    29    30    1
    33    10    12    1
    34    39    41   am
    35     6     7    1
    36     7    12    1
    37    12    13    1
    38    14    13    1
    39    14    15    1
    40    13    22    1
    41    15    16    2
    42    22    16    1
    43    22    21    2
    44    16    17    1
    45    21    20    1
    46    17    18    1
    47    17    19    2
    48    20    19    1
