@<TRIPOS>MOLECULE
1ht1_ADP_E_1.pdb
 27 29 0 0 0
SMALL
GASTEIGER

@<TRIPOS>ATOM
      1  PB       -15.3650  128.6310  100.7760 P.3   450  ADP450      0.5373
      2  O1B      -13.9140  128.5800  100.4250 O.3   450  ADP450     -0.1143
      3  O2B      -15.7580  127.4510  101.6970 O.3   450  ADP450     -0.1143
      4  O3B      -16.2210  128.6500   99.5820 O.2   450  ADP450     -0.2221
      5  PA       -14.9220  130.4600  102.9890 P.3   450  ADP450      0.2231
      6  O1A      -15.5890  131.6410  103.4290 O.2   450  ADP450     -0.5169
      7  O2A      -14.7860  129.2840  103.8320 O.3   450  ADP450     -0.4370
      8  O3A      -15.6220  129.8850  101.6540 O.3   450  ADP450     -0.2261
      9  O5'      -13.4420  130.8380  102.7150 O.3   450  ADP450     -0.3111
     10  C5'      -13.0970  132.0050  101.9940 C.3   450  ADP450      0.1813
     11  C4'      -12.5930  133.1280  102.9360 C.3   450  ADP450      0.1821
     12  O4'      -13.1280  134.3580  102.3530 O.3   450  ADP450     -0.3135
     13  C3'      -13.1200  133.1600  104.3970 C.3   450  ADP450      0.2184
     14  O3'      -12.0450  133.2040  105.3300 O.3   450  ADP450     -0.2174
     15  C2'      -13.9530  134.4490  104.5950 C.3   450  ADP450      0.2570
     16  O2'      -13.4130  135.2800  105.6660 O.3   450  ADP450     -0.2130
     17  C1'      -13.9170  135.1840  103.2140 C.3   450  ADP450      0.3186
     18  N9       -15.3630  135.2300  102.6430 N.pl3 450  ADP450     -0.1439
     19  C8       -15.8250  134.5820  101.5670 C.3   450  ADP450      0.3377
     20  N7       -17.0500  134.8040  101.3230 N.2   450  ADP450     -0.2095
     21  C5       -17.4680  135.6720  102.3020 C.2   450  ADP450      0.2526
     22  C6       -18.7220  136.3260  102.6110 C.2   450  ADP450      0.4393
     23  N6       -19.8360  136.1350  101.8560 N.pl3 450  ADP450      0.2180
     24  N1       -18.7780  137.1670  103.7160 N.2   450  ADP450      0.0021
     25  C2       -17.6790  137.3640  104.4720 C.3   450  ADP450      0.5254
     26  N3       -16.4680  136.7950  104.2540 N.2   450  ADP450     -0.0055
     27  C4       -16.4210  135.9580  103.1520 C.2   450  ADP450      0.3518
@<TRIPOS>BOND
     1     4     1    2
     2     2     1    1
     3     1     8    1
     4     1     3    1
     5    20    19    1
     6    20    21    2
     7    19    18    1
     8     8     5    1
     9    23    22    1
    10    10     9    1
    11    10    11    1
    12    21    22    1
    13    21    27    1
    14    12    11    1
    15    12    17    1
    16    22    24    2
    17    18    27    1
    18    18    17    1
    19     9     5    1
    20    11    13    1
    21     5     6    2
    22     5     7    1
    23    27    26    2
    24    17    15    1
    25    24    25    1
    26    26    25    1
    27    13    15    1
    28    13    14    1
    29    15    16    1
