@<TRIPOS>MOLECULE
1ht2_ADP_E_1.pdb
 27 29 0 0 0
SMALL
GASTEIGER

@<TRIPOS>ATOM
      1  PB       -15.5640  128.7340   31.7840 P.3   450  ADP450      0.5373
      2  O1B      -14.1430  128.6900   31.3000 O.3   450  ADP450     -0.1143
      3  O2B      -15.8540  127.5720   32.7630 O.3   450  ADP450     -0.1143
      4  O3B      -16.5370  128.7240   30.6700 O.2   450  ADP450     -0.2221
      5  PA       -15.0340  130.5460   33.9930 P.3   450  ADP450      0.2231
      6  O1A      -15.6640  131.7340   34.4540 O.2   450  ADP450     -0.5169
      7  O2A      -14.8980  129.3510   34.8070 O.3   450  ADP450     -0.4370
      8  O3A      -15.7670  129.9940   32.6700 O.3   450  ADP450     -0.2261
      9  O5'      -13.5590  130.9280   33.6910 O.3   450  ADP450     -0.3111
     10  C5'      -13.2250  132.1150   32.9910 C.3   450  ADP450      0.1813
     11  C4'      -12.7160  133.2360   33.9470 C.3   450  ADP450      0.1821
     12  O4'      -13.2270  134.4660   33.3360 O.3   450  ADP450     -0.3135
     13  C3'      -13.2810  133.2940   35.3960 C.3   450  ADP450      0.2184
     14  O3'      -12.2490  133.2790   36.3730 O.3   450  ADP450     -0.2174
     15  C2'      -14.0650  134.6200   35.5710 C.3   450  ADP450      0.2570
     16  O2'      -13.4800  135.4550   36.6180 O.3   450  ADP450     -0.2130
     17  C1'      -14.0150  135.3330   34.1710 C.3   450  ADP450      0.3186
     18  N9       -15.4700  135.3250   33.6340 N.pl3 450  ADP450     -0.1439
     19  C8       -15.9460  134.6020   32.6110 C.3   450  ADP450      0.3377
     20  N7       -17.1790  134.7820   32.3880 N.2   450  ADP450     -0.2095
     21  C5       -17.5910  135.7030   33.3210 C.2   450  ADP450      0.2526
     22  C6       -18.8540  136.3450   33.6200 C.2   450  ADP450      0.4393
     23  N6       -19.9800  136.0720   32.9010 N.pl3 450  ADP450      0.2180
     24  N1       -18.9020  137.2630   34.6770 N.2   450  ADP450      0.0021
     25  C2       -17.7880  137.5300   35.3890 C.3   450  ADP450      0.5254
     26  N3       -16.5680  136.9710   35.1740 N.2   450  ADP450     -0.0055
     27  C4       -16.5320  136.0650   34.1250 C.2   450  ADP450      0.3518
@<TRIPOS>BOND
     1     4     1    2
     2     2     1    1
     3     1     8    1
     4     1     3    1
     5    20    19    1
     6    20    21    2
     7    19    18    1
     8     8     5    1
     9    23    22    1
    10    10     9    1
    11    10    11    1
    12    21    22    1
    13    21    27    1
    14    12    11    1
    15    12    17    1
    16    22    24    2
    17    18    27    1
    18    18    17    1
    19     9     5    1
    20    11    13    1
    21     5     6    2
    22     5     7    1
    23    27    26    2
    24    17    15    1
    25    24    25    1
    26    26    25    1
    27    13    15    1
    28    13    14    1
    29    15    16    1
