@<TRIPOS>MOLECULE
1ht5_HEM_A_1.pdb
 43 50 0 0 0
SMALL
GASTEIGER

@<TRIPOS>ATOM
      1  CHA       22.8830   44.2720  184.1770 C.2   601  HEM601      0.0000
      2  CHB       19.9000   47.9720  184.6740 C.2   601  HEM601      0.0000
      3  CHC       19.9000   47.3640  189.4510 C.2   601  HEM601      0.0000
      4  CHD       22.8910   43.5990  188.9480 C.2   601  HEM601      0.0000
      5  C1A       22.0520   45.3300  183.8810 C.ar  601  HEM601      0.0000
      6  C2A       21.7860   45.8430  182.5290 C.ar  601  HEM601      0.0000
      7  C3A       20.9400   46.8940  182.6990 C.ar  601  HEM601      0.0000
      8  C4A       20.6950   47.0130  184.1240 C.ar  601  HEM601      0.0000
      9  CMA       20.3580   47.7950  181.5950 C.3   601  HEM601      0.0000
     10  CAA       22.3560   45.3080  181.1960 C.3   601  HEM601      0.0000
     11  CBA       21.1890   44.7900  180.3270 C.3   601  HEM601      0.0000
     12  CGA       21.5500   44.2430  178.9430 C.2   601  HEM601      0.0000
     13  O1A       22.7520   44.2280  178.5510 O.co2 601  HEM601      0.0000
     14  O2A       20.5960   43.8230  178.2310 O.co2 601  HEM601      0.0000
     15  C1B       19.6360   48.1480  186.0170 C.2   601  HEM601      0.0000
     16  C2B       18.7950   49.2070  186.5140 C.2   601  HEM601      0.0000
     17  C3B       18.7860   49.0340  187.8960 C.2   601  HEM601      0.0000
     18  C4B       19.6380   47.8690  188.1880 C.2   601  HEM601      0.0000
     19  CMB       18.0760   50.2850  185.6440 C.3   601  HEM601      0.0000
     20  CAB       18.0200   49.9070  188.9100 C.3   601  HEM601      0.0000
     21  CBB       18.2710   51.4050  188.8420 C.3   601  HEM601      0.0000
     22  C1C       20.7120   46.2680  189.7360 C.ar  601  HEM601      0.0000
     23  C2C       20.9680   45.7700  191.0850 C.ar  601  HEM601      0.0000
     24  C3C       21.7960   44.7150  190.9410 C.ar  601  HEM601      0.0000
     25  C4C       22.0620   44.5640  189.5050 C.ar  601  HEM601      0.0000
     26  CMC       20.3890   46.3570  192.3880 C.3   601  HEM601      0.0000
     27  CAC       22.2680   43.7890  192.0720 C.3   601  HEM601      0.0000
     28  CBC       23.7230   43.8490  192.4850 C.3   601  HEM601      0.0000
     29  C1D       23.1600   43.4580  187.6060 C.2   601  HEM601      0.0000
     30  C2D       24.0750   42.4560  187.0520 C.2   601  HEM601      0.0000
     31  C3D       24.0610   42.6780  185.6990 C.2   601  HEM601      0.0000
     32  C4D       23.1580   43.7670  185.4530 C.2   601  HEM601      0.0000
     33  CMD       24.8770   41.4100  187.8330 C.3   601  HEM601      0.0000
     34  CAD       24.8500   41.9540  184.6150 C.3   601  HEM601      0.0000
     35  CBD       26.2340   42.5940  184.4160 C.3   601  HEM601      0.0000
     36  CGD       27.0070   42.1470  183.1950 C.2   601  HEM601      0.0000
     37  O1D       26.8110   41.0030  182.7220 O.co2 601  HEM601      0.0000
     38  O2D       27.8460   42.9450  182.6950 O.co2 601  HEM601      0.0000
     39  NA        21.3680   46.0470  184.8460 N.ar  601  HEM601      0.0000
     40  NB        20.1620   47.3200  187.0200 N.2   601  HEM601      0.0000
     41  NC        21.3820   45.5170  188.7710 N.ar  601  HEM601      0.0000
     42  ND        22.6130   44.2590  186.6220 N.2   601  HEM601      0.0000
     43 FE         21.3570   45.7710  186.8000 Fe    601  HEM601      0.0000
@<TRIPOS>BOND
     1    14    12   ar
     2    13    12   ar
     3    12    11    1
     4    11    10    1
     5    10     6    1
     6     9     7    1
     7     6     7   ar
     8     6     5   ar
     9    38    36   ar
    10     7     8   ar
    11    37    36   ar
    12    36    35    1
    13     5     1    2
    14     5    39   ar
    15     8     2    2
    16     8    39   ar
    17     1    32    1
    18    35    34    1
    19    34    31    1
    20     2    15    1
    21    39    43    1
    22    32    31    1
    23    32    42    2
    24    19    16    1
    25    31    30    2
    26    15    16    1
    27    15    40    2
    28    16    17    2
    29    42    43    1
    30    42    29    1
    31    43    40    1
    32    43    41    1
    33    40    18    1
    34    30    29    1
    35    30    33    1
    36    29     4    2
    37    17    18    1
    38    17    20    1
    39    18     3    2
    40    41    25   ar
    41    41    22   ar
    42    21    20    1
    43     4    25    1
    44     3    22    1
    45    25    24   ar
    46    22    23   ar
    47    24    23   ar
    48    24    27    1
    49    23    26    1
    50    27    28    1
