@<TRIPOS>MOLECULE
1ht5_FL2_A_1.pdb
 19 20 0 0 0
SMALL
GASTEIGER

@<TRIPOS>ATOM
      1  C         24.9860   35.2170  196.9370 C.ar  1701  FL21701     0.0000
      2  C1        25.2330   34.5160  198.1770 C.ar  1701  FL21701     0.0001
      3  C2        26.1480   35.1230  199.1750 C.ar  1701  FL21701     0.0022
      4  C3        26.7720   36.4020  198.8920 C.ar  1701  FL21701     0.0001
      5  C4        26.4970   37.0740  197.6330 C.ar  1701  FL21701     0.0000
      6  C5        25.6090   36.4700  196.6720 C.ar  1701  FL21701     0.0000
      7  C6        26.4350   34.4180  200.4850 C.ar  1701  FL21701     0.0275
      8  C7        27.8270   34.1450  200.9220 C.ar  1701  FL21701     0.0019
      9  C8        28.0470   33.4680  202.1900 C.ar  1701  FL21701    -0.0036
     10  C9        26.9110   33.0590  203.0300 C.ar  1701  FL21701    -0.0097
     11  C10       25.5840   33.3220  202.6070 C.ar  1701  FL21701     0.0259
     12  C11       25.3710   33.9750  201.3820 C.ar  1701  FL21701     0.1398
     13  C12       27.0350   32.3370  204.4010 C.3   1701  FL21701     0.1214
     14  C13       28.2100   32.8650  205.2590 C.3   1701  FL21701     0.0164
     15  C14       26.9280   30.8150  204.1150 C.2   1701  FL21701     0.3207
     16  O         25.7390   30.4080  204.3560 O.2   1701  FL21701    -0.2498
     17  O1        27.8880   29.9620  203.6730 O.3   1701  FL21701    -0.4442
     18  F         24.0780   34.1830  201.0600 F     1701  FL21701    -0.2042
     19  C16       29.2350   30.3980  203.3920 C.3   1701  FL21701     0.2556
@<TRIPOS>BOND
     1     6     1   ar
     2     6     5   ar
     3     1     2   ar
     4     5     4   ar
     5     2     3   ar
     6     4     3   ar
     7     3     7    1
     8     7     8   ar
     9     7    12   ar
    10     8     9   ar
    11    18    12    1
    12    12    11   ar
    13     9    10   ar
    14    11    10   ar
    15    10    13    1
    16    19    17    1
    17    17    15    1
    18    15    16    2
    19    15    13    1
    20    13    14    1
