@<TRIPOS>MOLECULE
1ht8_HEM_A_1.pdb
 43 50 0 0 0
SMALL
GASTEIGER

@<TRIPOS>ATOM
      1  CHA       70.2940   36.3860  174.7100 C.2   601  HEM601      0.0000
      2  CHB       73.1450   35.1140  171.0620 C.2   601  HEM601      0.0000
      3  CHC       73.5670   30.7000  172.9330 C.2   601  HEM601      0.0000
      4  CHD       70.7300   31.9930  176.6140 C.2   601  HEM601      0.0000
      5  C1A       71.0500   36.4410  173.5530 C.ar  601  HEM601      0.0000
      6  C2A       71.1870   37.6180  172.6880 C.ar  601  HEM601      0.0000
      7  C3A       71.9910   37.2280  171.6540 C.ar  601  HEM601      0.0000
      8  C4A       72.3480   35.8500  171.9000 C.ar  601  HEM601      0.0000
      9  CMA       72.4430   38.0830  170.4550 C.3   601  HEM601      0.0000
     10  CAA       70.5520   39.0110  172.9050 C.3   601  HEM601      0.0000
     11  CBA       71.7880   39.9150  173.1480 C.3   601  HEM601      0.0000
     12  CGA       71.6210   41.3910  173.4030 C.2   601  HEM601      0.0000
     13  O1A       70.4780   41.9200  173.4310 O.co2 601  HEM601      0.0000
     14  O2A       72.6900   42.0420  173.5780 O.co2 601  HEM601      0.0000
     15  C1B       73.5160   33.8010  171.2320 C.2   601  HEM601      0.0000
     16  C2B       74.3440   33.0970  170.2890 C.2   601  HEM601      0.0000
     17  C3B       74.4710   31.8090  170.8300 C.2   601  HEM601      0.0000
     18  C4B       73.7050   31.7980  172.0860 C.2   601  HEM601      0.0000
     19  CMB       74.9330   33.7010  168.9770 C.3   601  HEM601      0.0000
     20  CAB       75.2690   30.6270  170.2320 C.3   601  HEM601      0.0000
     21  CBB       75.2150   30.4300  168.7230 C.3   601  HEM601      0.0000
     22  C1C       72.8400   30.6680  174.1250 C.ar  601  HEM601      0.0000
     23  C2C       72.7170   29.4850  174.9920 C.ar  601  HEM601      0.0000
     24  C3C       71.9280   29.8570  176.0230 C.ar  601  HEM601      0.0000
     25  C4C       71.5570   31.2550  175.7870 C.ar  601  HEM601      0.0000
     26  CMC       73.3740   28.1130  174.7440 C.3   601  HEM601      0.0000
     27  CAC       71.5950   29.0000  177.2610 C.3   601  HEM601      0.0000
     28  CBC       70.1380   28.7390  177.6160 C.3   601  HEM601      0.0000
     29  C1D       70.3520   33.2930  176.4110 C.2   601  HEM601      0.0000
     30  C2D       69.4430   34.0060  177.2960 C.2   601  HEM601      0.0000
     31  C3D       69.3180   35.2510  176.7370 C.2   601  HEM601      0.0000
     32  C4D       70.1480   35.2750  175.5490 C.2   601  HEM601      0.0000
     33  CMD       68.7730   33.4510  178.5670 C.3   601  HEM601      0.0000
     34  CAD       68.4540   36.4150  177.2330 C.3   601  HEM601      0.0000
     35  CBD       66.9840   36.2310  176.8360 C.3   601  HEM601      0.0000
     36  CGD       66.1800   37.4950  176.6490 C.2   601  HEM601      0.0000
     37  O1D       66.1630   38.3400  177.5610 O.co2 601  HEM601      0.0000
     38  O2D       65.5270   37.6450  175.5830 O.co2 601  HEM601      0.0000
     39  NA        71.7810   35.3710  173.0650 N.ar  601  HEM601      0.0000
     40  NB        73.1110   33.0270  172.3270 N.2   601  HEM601      0.0000
     41  NC        72.1280   31.7440  174.6210 N.ar  601  HEM601      0.0000
     42  ND        70.7730   34.0660  175.3420 N.2   601  HEM601      0.0000
     43 FE         71.9780   33.5780  173.8350 Fe    601  HEM601      0.0000
@<TRIPOS>BOND
     1    21    20    1
     2    19    16    1
     3    20    17    1
     4    16    17    2
     5    16    15    1
     6     9     7    1
     7    17    18    1
     8     2    15    1
     9     2     8    2
    10    15    40    2
    11     7     8   ar
    12     7     6   ar
    13     8    39   ar
    14    18    40    1
    15    18     3    2
    16    40    43    1
    17     6    10    1
    18     6     5   ar
    19    10    11    1
    20     3    22    1
    21    39     5   ar
    22    39    43    1
    23    11    12    1
    24    12    13   ar
    25    12    14   ar
    26     5     1    2
    27    43    41    1
    28    43    42    1
    29    22    41   ar
    30    22    23   ar
    31    41    25   ar
    32     1    32    1
    33    26    23    1
    34    23    24   ar
    35    42    32    2
    36    42    29    1
    37    32    31    1
    38    38    36   ar
    39    25    24   ar
    40    25     4    1
    41    24    27    1
    42    29     4    2
    43    29    30    1
    44    36    35    1
    45    36    37   ar
    46    31    34    1
    47    31    30    2
    48    35    34    1
    49    27    28    1
    50    30    33    1
