@<TRIPOS>MOLECULE
1ht8_34C_A_1.pdb
 15 15 0 0 0
SMALL
GASTEIGER

@<TRIPOS>ATOM
      1 CL1        71.8370   22.1000  188.9530 Cl    1701  34C1701    -0.0791
      2  C1        70.1820   21.9710  189.3820 C.ar  1701  34C1701     0.0912
      3  C2        69.8450   21.0600  190.3520 C.ar  1701  34C1701     0.0107
      4  C3        68.5020   20.9140  190.7460 C.ar  1701  34C1701    -0.0099
      5  C4        67.5260   21.7190  190.1170 C.ar  1701  34C1701    -0.0006
      6  C5        67.8360   22.6420  189.1430 C.ar  1701  34C1701     0.0375
      7  C6        69.1850   22.8020  188.7450 C.ar  1701  34C1701     0.1495
      8  C7        68.1410   19.9540  191.7950 C.3   1701  34C1701     0.1404
      9  C8        68.1100   20.5190  193.2690 C.2   1701  34C1701     0.3692
     10  C9        68.6340   24.5410  187.1630 C.3   1701  34C1701     0.2318
     11  C10       69.2870   25.4030  186.2330 C.2   1701  34C1701     0.0207
     12  C11       68.9660   26.6380  185.9490 C.2   1701  34C1701    -0.0011
     13  O1        69.6130   23.6850  187.8120 O.3   1701  34C1701    -0.4698
     14  O2        67.1680   20.9490  193.8240 O.co2 1701  34C1701    -0.2453
     15  O3        69.1940   20.5460  193.9540 O.co2 1701  34C1701    -0.2453
@<TRIPOS>BOND
     1    12    11    2
     2    11    10    1
     3    10    13    1
     4    13     7    1
     5     7     6   ar
     6     7     2   ar
     7     1     2    1
     8     6     5   ar
     9     2     3   ar
    10     5     4   ar
    11     3     4   ar
    12     4     8    1
    13     8     9    1
    14     9    14   ar
    15     9    15   ar
