@<TRIPOS>MOLECULE
1htb_NAD_A_1.pdb
 44 48 0 0 0
SMALL
GASTEIGER

@<TRIPOS>ATOM
      1  PA        -8.6820   13.0890  -27.7560 P.3   377  NAD377      0.2189
      2  O1A       -9.6350   12.1540  -27.1540 O.2   377  NAD377     -0.5170
      3  O2A       -8.6810   14.2770  -26.8460 O.3   377  NAD377     -0.4371
      4  O5B       -9.1790   13.5200  -29.2310 O.3   377  NAD377     -0.3112
      5  C5B      -10.1640   12.7150  -29.9970 C.3   377  NAD377      0.1813
      6  C4B      -10.8650   13.7650  -30.8440 C.3   377  NAD377      0.1821
      7  O4B      -11.3110   13.1550  -32.0200 O.3   377  NAD377     -0.3135
      8  C3B      -12.0560   14.3830  -30.0960 C.3   377  NAD377      0.2184
      9  O3B      -12.1160   15.7800  -30.3800 O.3   377  NAD377     -0.2174
     10  C2B      -13.2440   13.6970  -30.7540 C.3   377  NAD377      0.2570
     11  O2B      -14.3600   14.6010  -30.7920 O.3   377  NAD377     -0.2130
     12  C1B      -12.6920   13.4950  -32.1780 C.3   377  NAD377      0.3186
     13  N9A      -13.3890   12.3750  -32.7730 N.pl3 377  NAD377     -0.1439
     14  C8A      -13.7000   11.1430  -32.1770 C.3   377  NAD377      0.3377
     15  N7A      -14.3670   10.2920  -33.0510 N.2   377  NAD377     -0.2095
     16  C5A      -14.4530   11.0570  -34.1990 C.2   377  NAD377      0.2526
     17  C6A      -14.9250   10.6660  -35.4340 C.2   377  NAD377      0.4393
     18  N6A      -15.5230    9.4870  -35.6150 N.pl3 377  NAD377      0.2180
     19  N1A      -14.7870   11.5520  -36.4890 N.2   377  NAD377      0.0021
     20  C2A      -14.1840   12.7960  -36.2910 C.3   377  NAD377      0.5254
     21  N3A      -13.7070   13.1980  -35.0410 N.2   377  NAD377     -0.0055
     22  C4A      -13.8720   12.2770  -34.0380 C.2   377  NAD377      0.3518
     23  O3        -7.3520   12.3660  -27.8490 O.3   377  NAD377     -0.2703
     24  PN        -5.8950   12.7480  -28.1810 P.3   377  NAD377      0.2189
     25  O1N       -5.1670   12.7050  -26.8650 O.3   377  NAD377     -0.4371
     26  O2N       -5.6390   13.9820  -28.9440 O.2   377  NAD377     -0.5170
     27  O5D       -5.0970   11.6660  -29.0410 O.3   377  NAD377     -0.3112
     28  C5D       -5.7180   11.1220  -30.2150 C.3   377  NAD377      0.1813
     29  C4D       -5.1030    9.7930  -30.6380 C.3   377  NAD377      0.1799
     30  O4D       -3.6920    9.8900  -30.8070 O.3   377  NAD377     -0.3327
     31  C3D       -5.4280    8.7030  -29.6220 C.3   377  NAD377      0.2158
     32  O3D       -5.6390    7.4700  -30.3160 O.3   377  NAD377     -0.2175
     33  C2D       -4.0420    8.6820  -28.9640 C.3   377  NAD377      0.2309
     34  O2D       -3.8450    7.4280  -28.2960 O.3   377  NAD377     -0.2158
     35  C1D       -3.0940    8.7860  -30.1770 C.3   377  NAD377      0.2263
     36  N1N       -1.6980    9.1580  -29.8600 N.pl3 377  NAD377     -0.2787
     37  C2N       -0.7290    8.7670  -30.6670 C.3   377  NAD377      0.1244
     38  C3N        0.5380    8.9970  -30.3300 C.2   377  NAD377      0.0544
     39  C7N        1.5510    8.6180  -31.1070 C.2   377  NAD377      0.2818
     40  O7N        2.7100    8.8340  -30.6910 O.2   377  NAD377     -0.2670
     41  N7N        1.4100    8.2210  -32.3690 N.am  377  NAD377     -0.0839
     42  C4N        0.8360    9.6520  -29.1690 C.2   377  NAD377      0.0033
     43  C5N       -0.1180   10.0750  -28.3220 C.2   377  NAD377      0.0157
     44  C6N       -1.4220    9.8090  -28.7170 C.2   377  NAD377      0.0633
@<TRIPOS>BOND
     1    19    20    1
     2    19    17    2
     3    20    21    1
     4    18    17    1
     5    17    16    1
     6    21    22    2
     7    16    22    1
     8    16    15    2
     9    22    13    1
    10    15    14    1
    11    13    12    1
    12    13    14    1
    13    41    39   am
    14    12     7    1
    15    12    10    1
    16     7     6    1
    17    39    40    2
    18    39    38    1
    19     6     8    1
    20     6     5    1
    21    30    29    1
    22    30    35    1
    23    11    10    1
    24    10     8    1
    25    37    38    1
    26    37    36    1
    27    29    28    1
    28    29    31    1
    29     9     8    1
    30    38    42    2
    31    32    31    1
    32    28    27    1
    33    35    36    1
    34    35    33    1
    35     5     4    1
    36    36    44    1
    37    31    33    1
    38     4     1    1
    39    42    43    1
    40    27    24    1
    41    33    34    1
    42    26    24    2
    43    44    43    2
    44    24    23    1
    45    24    25    1
    46    23     1    1
    47     1     2    2
    48     1     3    1
