@<TRIPOS>MOLECULE
1hte_G23_A_1.pdb
 31 33 0 0 0
SMALL
GASTEIGER

@<TRIPOS>ATOM
      1  C1        10.1920   24.9880    3.7440 C.3   200  G23200      0.1857
      2  C2         7.8080   25.2740    3.4000 C.3   200  G23200      0.1493
      3  C3         7.1780   26.6710    3.5200 C.3   200  G23200      0.1987
      4  C4         5.8860   26.6480    2.6950 C.2   200  G23200      0.2638
      5  C5        10.0070   22.6620    2.5350 C.3   200  G23200      0.0129
      6  C6        11.1020   24.4610    1.3860 C.3   200  G23200      0.0129
      7  C7        11.1000   24.5730    4.8930 C.2   200  G23200      0.3811
      8  C8        10.0200   24.1590    2.4700 C.3   200  G23200      0.0658
      9  C9         4.9710   27.3210    0.5510 C.3   200  G23200      0.1415
     10  C10        7.5400   28.0510    5.7240 C.2   200  G23200      0.2463
     11  C11        7.1050   27.8090    7.1440 C.3   200  G23200      0.1131
     12  C12        9.1040   26.6490    8.0980 C.ar  200  G23200     -0.0038
     13  C13        8.3670   27.8260    7.9640 C.ar  200  G23200     -0.0130
     14  C14        8.7830   28.9400    8.6130 C.ar  200  G23200     -0.0038
     15  C15        9.9310   28.9340    9.3770 C.ar  200  G23200     -0.0003
     16  C16       10.6830   27.8300    9.4780 C.ar  200  G23200     -0.0000
     17  C17       10.2370   26.6550    8.8220 C.ar  200  G23200     -0.0003
     18  C18        7.4980   27.7670   -2.2250 C.ar  200  G23200     -0.0003
     19  C19        6.8100   28.4130   -3.2140 C.ar  200  G23200     -0.0000
     20  C20        5.5020   28.7160   -2.9810 C.ar  200  G23200     -0.0003
     21  C21        4.9240   28.3680   -1.7850 C.ar  200  G23200     -0.0026
     22  C22        5.5690   27.7170   -0.8010 C.ar  200  G23200     -0.0006
     23  C23        6.9150   27.4160   -1.0560 C.ar  200  G23200     -0.0026
     24  N1         8.8810   25.1710    4.3360 N.3   200  G23200     -0.1957
     25  N2         7.0600   27.0320    4.9260 N.am  200  G23200     -0.1951
     26  N3         6.0240   27.2380    1.5070 N.am  200  G23200     -0.1990
     27  O1         4.8750   26.0970    3.0410 O.2   200  G23200     -0.2714
     28  O2         8.2430   29.0150    5.4800 O.2   200  G23200     -0.2730
     29  O3        10.8830   23.5290    5.4860 O.co2 200  G23200     -0.2441
     30  O4        11.9750   25.3320    5.3230 O.co2 200  G23200     -0.2441
     31  S1         8.4580   24.8950    1.7720 S.3   200  G23200     -0.1212
@<TRIPOS>BOND
     1    19    20   ar
     2    19    18   ar
     3    20    21   ar
     4    18    23   ar
     5    21    22   ar
     6    23    22   ar
     7    22     9    1
     8     9    26    1
     9     6     8    1
    10    26     4   am
    11    31     8    1
    12    31     2    1
    13     8     5    1
    14     8     1    1
    15     4    27    2
    16     4     3    1
    17     2     3    1
    18     2    24    1
    19     3    25    1
    20     1    24    1
    21     1     7    1
    22     7    30   ar
    23     7    29   ar
    24    25    10   am
    25    28    10    2
    26    10    11    1
    27    11    13    1
    28    13    12   ar
    29    13    14   ar
    30    12    17   ar
    31    14    15   ar
    32    17    16   ar
    33    15    16   ar
