@<TRIPOS>MOLECULE
1hte_III_C_1.pdb
 33 32 0 0 0
SMALL
GASTEIGER

@<TRIPOS>ATOM
      1  N         14.3850   24.2790    5.7120 N.3   202  LEU202     -0.1231
      2  CA        15.4210   23.4550    6.3410 C.3   202  LEU202      0.1693
      3  C         15.2890   22.0240    5.8060 C.2   202  LEU202      0.2592
      4  O         14.1650   21.4930    5.7790 O.2   202  LEU202     -0.2718
      5  CB        15.2960   23.5580    7.8560 C.3   202  LEU202      0.0284
      6  CG        15.8560   22.4650    8.7400 C.3   202  LEU202      0.0019
      7  CD1       17.2950   22.7060    9.1180 C.3   202  LEU202      0.0001
      8  CD2       14.9830   22.3490   10.0000 C.3   202  LEU202      0.0001
      9  N         16.4330   21.4980    5.4260 N.am  203  GLN203     -0.1966
     10  CA        16.6100   20.1040    4.9750 C.3   203  GLN203      0.1733
     11  C         18.0920   19.7050    5.2220 C.2   203  GLN203      0.2616
     12  O         19.0590   20.2200    4.6710 O.2   203  GLN203     -0.2715
     13  CB        16.1070   19.7610    3.5980 C.3   203  GLN203      0.0408
     14  CG        15.9840   18.2830    3.2640 C.3   203  GLN203      0.0908
     15  CD        17.1230   17.8050    2.3900 C.2   203  GLN203      0.2608
     16  OE1       17.4780   18.4750    1.4250 O.2   203  GLN203     -0.2717
     17  NE2       17.6970   16.6600    2.7160 N.am  203  GLN203     -0.0878
     18  N         18.1760   18.7980    6.1740 N.am  204  GLU204     -0.1963
     19  CA        19.3150   18.1550    6.7070 C.3   204  GLU204      0.1733
     20  C         19.3870   16.7190    6.1240 C.2   204  GLU204      0.2618
     21  O         18.4160   16.2370    5.5660 O.2   204  GLU204     -0.2715
     22  CB        19.2430   17.9500    8.2320 C.3   204  GLU204      0.0429
     23  CG        18.8870   19.1510    9.0980 C.3   204  GLU204      0.1163
     24  CD        19.9210   20.2480    9.0910 C.2   204  GLU204      0.3649
     25  OE1       20.4170   20.7470    8.0920 O.co2 204  GLU204     -0.2457
     26  OE2       20.2350   20.5800   10.2510 O.co2 204  GLU204     -0.2457
     27  N         20.5130   16.1480    6.3330 N.am  205  SER205     -0.1914
     28  CA        21.0480   14.8450    6.0190 C.3   205  SER205      0.2304
     29  C         21.1330   14.5260    4.5360 C.2   205  SER205      0.3869
     30  O         20.6220   13.4400    4.1290 O.co2 205  SER205     -0.2437
     31  CB        20.3680   13.7510    6.8580 C.3   205  SER205      0.2152
     32  OG        20.9540   13.6330    8.1510 O.3   205  SER205     -0.2179
     33  OXT       21.8040   15.2600    3.7410 O.co2 205  SER205     -0.2437
@<TRIPOS>BOND
     1    16    15    2
     2    15    17   am
     3    15    14    1
     4    14    13    1
     5    13    10    1
     6    33    29   ar
     7    30    29   ar
     8    29    28    1
     9    12    11    2
    10    10    11    1
    11    10     9    1
    12    11    18   am
    13     9     3   am
    14    21    20    2
    15     1     2    1
    16     4     3    2
    17     3     2    1
    18    28    27    1
    19    28    31    1
    20    20    27   am
    21    20    19    1
    22    18    19    1
    23     2     5    1
    24    19    22    1
    25    31    32    1
    26     5     6    1
    27    25    24   ar
    28    22    23    1
    29     6     7    1
    30     6     8    1
    31    24    23    1
    32    24    26   ar
