@<TRIPOS>MOLECULE
1htf_G26_A_1.pdb
 41 44 0 0 0
SMALL
GASTEIGER

@<TRIPOS>ATOM
      1  C         18.5360   -4.4350   -1.2690 C.3   100  G26100      0.0638
      2  C1        18.5990   -3.3150   -2.3250 C.3   100  G26100      0.1604
      3  C2        17.4840   -5.0520   -3.6840 C.3   100  G26100      0.1492
      4  C3        18.3920   -5.3220   -4.8780 C.3   100  G26100      0.1987
      5  C4        18.4280   -6.7880   -5.2930 C.2   100  G26100      0.2638
      6  C5        17.3920   -4.2880   -0.2630 C.3   100  G26100      0.0128
      7  C6        19.8710   -4.6020   -0.5480 C.3   100  G26100      0.0128
      8  C7        18.4520   -1.9040   -1.7160 C.2   100  G26100      0.2581
      9  C8        19.4160   -0.1170   -0.3840 C.3   100  G26100      0.1325
     10  C9        19.6620   -8.5540   -6.4090 C.3   100  G26100      0.1415
     11  C10       20.5110   -0.0220    0.6760 C.3   100  G26100      0.2039
     12  C11       18.8200   -3.5370   -6.4130 C.2   100  G26100      0.2463
     13  C12       18.1990   -2.4570   -7.2810 C.3   100  G26100      0.1131
     14  C13       17.4680   -0.9770   -5.4030 C.ar  100  G26100     -0.0038
     15  C14       18.2590   -1.1540   -6.5230 C.ar  100  G26100     -0.0130
     16  C15       19.1060   -0.1510   -6.9130 C.ar  100  G26100     -0.0038
     17  C16       19.1600    1.0110   -6.1870 C.ar  100  G26100     -0.0003
     18  C17       18.3750    1.1830   -5.0750 C.ar  100  G26100     -0.0000
     19  C18       17.5240    0.1870   -4.6720 C.ar  100  G26100     -0.0003
     20  C19       19.3610    1.1110   -1.3090 C.3   100  G26100      0.0507
     21  C20       18.4030    4.6450    0.9050 C.ar  100  G26100     -0.0000
     22  C21       19.7150    4.2540    0.7730 C.ar  100  G26100     -0.0003
     23  C22       20.0300    3.1240    0.0450 C.ar  100  G26100     -0.0042
     24  C23       19.0390    2.3760   -0.5460 C.ar  100  G26100     -0.0204
     25  C24       17.7290    2.7680   -0.4060 C.ar  100  G26100     -0.0042
     26  C25       17.4070    3.9020    0.3150 C.ar  100  G26100     -0.0003
     27  C26       18.8410   -8.3630  -10.0950 C.ar  100  G26100     -0.0003
     28  C27       17.5230   -8.7680  -10.1110 C.ar  100  G26100     -0.0000
     29  C28       16.8990   -9.1240   -8.9330 C.ar  100  G26100     -0.0003
     30  C29       17.5950   -9.0670   -7.7430 C.ar  100  G26100     -0.0026
     31  C30       18.9130   -8.6530   -7.7190 C.ar  100  G26100     -0.0006
     32  C31       19.5340   -8.3090   -8.9030 C.ar  100  G26100     -0.0026
     33  N         17.5670   -3.6540   -3.3230 N.3   100  G26100     -0.1976
     34  N1        19.5300   -1.3770   -1.1390 N.am  100  G26100     -0.2030
     35  N2        17.9630   -4.4250   -5.9570 N.am  100  G26100     -0.1951
     36  N3        19.5730   -7.2200   -5.8050 N.am  100  G26100     -0.1990
     37  O         17.3960   -1.2880   -1.7290 O.2   100  G26100     -0.2718
     38  O1        17.4550   -7.5160   -5.2150 O.2   100  G26100     -0.2714
     39  O2        20.0090   -3.5690   -6.1390 O.2   100  G26100     -0.2730
     40  O4        21.7830    0.1040    0.0630 O.3   100  G26100     -0.2185
     41  S         18.1320   -5.9430   -2.2500 S.3   100  G26100     -0.1213
@<TRIPOS>BOND
     1    28    27   ar
     2    28    29   ar
     3    27    32   ar
     4    29    30   ar
     5    32    31   ar
     6    30    31   ar
     7    31    10    1
     8    13    15    1
     9    13    12    1
    10    16    15   ar
    11    16    17   ar
    12    15    14   ar
    13    12    39    2
    14    12    35   am
    15    10    36    1
    16    17    18   ar
    17    35     4    1
    18    36     5   am
    19    14    19   ar
    20     5    38    2
    21     5     4    1
    22    18    19   ar
    23     4     3    1
    24     3    33    1
    25     3    41    1
    26    33     2    1
    27     2     8    1
    28     2     1    1
    29    41     1    1
    30    37     8    2
    31     8    34   am
    32    20    24    1
    33    20     9    1
    34     1     7    1
    35     1     6    1
    36    34     9    1
    37    24    25   ar
    38    24    23   ar
    39    25    26   ar
    40     9    11    1
    41    23    22   ar
    42    40    11    1
    43    26    21   ar
    44    22    21   ar
