@<TRIPOS>MOLECULE
1htm_III_A_1.pdb
 33 32 0 0 0
SMALL
GASTEIGER

@<TRIPOS>ATOM
      1  N         47.3780   31.2810   25.6480 N.3    12  THR12      -0.1203
      2  CA        48.4970   32.0020   26.3250 C.3    12  THR12       0.1994
      3  C         48.5320   33.4520   25.8210 C.2    12  THR12       0.2618
      4  O         48.4620   33.7050   24.6130 O.2    12  THR12      -0.2717
      5  CB        49.8770   31.2530   26.1260 C.3    12  THR12       0.1784
      6  OG1       50.6680   31.3680   27.3150 O.3    12  THR12      -0.2211
      7  CG2       50.6710   31.8140   24.9510 C.3    12  THR12       0.0376
      8  N         48.5330   34.3890   26.7640 N.am   13  LEU13      -0.1965
      9  CA        48.5590   35.8140   26.4650 C.3    13  LEU13       0.1728
     10  C         49.7550   36.3430   27.1970 C.2    13  LEU13       0.2616
     11  O         49.9480   36.0500   28.3710 O.2    13  LEU13      -0.2715
     12  CB        47.2720   36.4920   26.9780 C.3    13  LEU13       0.0311
     13  CG        47.1020   38.0180   27.1080 C.3    13  LEU13       0.0022
     14  CD1       47.6460   38.7620   25.9120 C.3    13  LEU13       0.0001
     15  CD2       45.6330   38.3450   27.2980 C.3    13  LEU13       0.0001
     16  N         50.6060   37.0530   26.4880 N.am   14  CYS14      -0.1954
     17  CA        51.7670   37.5980   27.1370 C.3    14  CYS14       0.1843
     18  C         51.7620   39.1110   27.0060 C.2    14  CYS14       0.2625
     19  O         51.5490   39.6540   25.9210 O.2    14  CYS14      -0.2714
     20  CB        53.0340   36.9350   26.5960 C.3    14  CYS14       0.0997
     21  SG        53.0260   35.1110   26.8260 S.3    14  CYS14      -0.0797
     22  N         51.8630   39.7750   28.1510 N.am   15  LEU15      -0.1963
     23  CA        51.8560   41.2260   28.2250 C.3    15  LEU15       0.1728
     24  C         53.2940   41.6980   28.3600 C.2    15  LEU15       0.2616
     25  O         54.2340   40.9770   28.0040 O.2    15  LEU15      -0.2715
     26  CB        51.0800   41.6750   29.4680 C.3    15  LEU15       0.0311
     27  CG        49.7460   41.0300   29.8290 C.3    15  LEU15       0.0022
     28  CD1       49.0980   41.8230   30.9390 C.3    15  LEU15       0.0001
     29  CD2       48.8310   41.0020   28.6380 C.3    15  LEU15       0.0001
     30  N         53.4540   42.8970   28.9190 N.am   16  GLY16      -0.1955
     31  CA        54.7710   43.4670   29.1410 C.3    16  GLY16       0.1869
     32  C         54.9250   43.8530   30.6030 C.2    16  GLY16       0.2309
     33  O         56.0590   43.8010   31.1260 O.2    16  GLY16      -0.2863
@<TRIPOS>BOND
     1     4     3    2
     2     7     5    1
     3     1     2    1
     4     3     2    1
     5     3     8   am
     6    14    13    1
     7    19    18    2
     8     5     2    1
     9     5     6    1
    10     9     8    1
    11     9    12    1
    12     9    10    1
    13    16    17    1
    14    16    10   am
    15    20    21    1
    16    20    17    1
    17    12    13    1
    18    18    17    1
    19    18    22   am
    20    13    15    1
    21    10    11    2
    22    25    24    2
    23    22    23    1
    24    23    24    1
    25    23    26    1
    26    24    30   am
    27    29    27    1
    28    30    31    1
    29    31    32    1
    30    26    27    1
    31    27    28    1
    32    32    33    2
