@<TRIPOS>MOLECULE
1htp_OSS_A_1.pdb
 17 16 0 0 0
SMALL
GASTEIGER

@<TRIPOS>ATOM
      1  C1        -6.7080   26.0460   -4.3120 C.2   132  OSS132      0.2074
      2  O1        -5.7380   26.2170   -5.0540 O.2   132  OSS132     -0.2883
      3  C2        -6.6180   25.3890   -2.9330 C.3   132  OSS132      0.0722
      4  C3        -5.8860   24.0490   -2.8270 C.3   132  OSS132      0.0083
      5  C4        -6.5970   23.1970   -1.7900 C.3   132  OSS132      0.0017
      6  C5        -6.0770   23.4940   -0.4030 C.3   132  OSS132      0.0161
      7  C6        -6.8460   22.8320    0.7380 C.3   132  OSS132      0.0803
      8  C7        -6.7340   21.3160    0.6660 C.2   132  OSS132     -0.0081
      9  C8        -7.4320   20.4910    1.7600 C.2   132  OSS132      0.0286
     10  S9        -7.5400   18.6850    1.4710 S.3   132  OSS132     -0.0927
     11  C10       -6.8200   18.0770    3.0130 C.3   132  OSS132      0.1710
     12  N11       -5.4430   17.6390    2.8740 N.3   132  OSS132     -0.1182
     13  S12       -6.1940   23.3740    2.3260 S.3   132  OSS132     -0.0785
     14  S13       -5.6440   25.3280    2.4650 S.3   132  OSS132     -0.0791
     15  C14       -3.8850   25.3840    2.0890 C.3   132  OSS132      0.1041
     16  C15       -3.0770   24.3990    2.9230 C.3   132  OSS132      0.1946
     17  O16       -3.2460   24.5820    4.3280 O.3   132  OSS132     -0.2194
@<TRIPOS>BOND
     1     2     1    2
     2     1     3    1
     3     3     4    1
     4     4     5    1
     5     5     6    1
     6     6     7    1
     7     8     7    1
     8     8     9    2
     9     7    13    1
    10    10     9    1
    11    10    11    1
    12    15    14    1
    13    15    16    1
    14    13    14    1
    15    12    11    1
    16    16    17    1
