@<TRIPOS>MOLECULE
1htq_AMP_A_1.pdb
 23 25 0 0 0
SMALL
GASTEIGER

@<TRIPOS>ATOM
      1  P         90.8740   40.7140  153.8980 P.3   7475  AMP7475     0.5327
      2  O1P       90.7610   41.2240  155.4110 O.3   7475  AMP7475    -0.1145
      3  O2P       91.9610   39.5030  153.7330 O.3   7475  AMP7475    -0.1145
      4  O3P       89.3150   40.2300  153.3240 O.2   7475  AMP7475    -0.2224
      5  O5'       91.4500   42.0880  153.1230 O.3   7475  AMP7475    -0.2675
      6  C5'       92.3930   42.4350  152.1110 C.3   7475  AMP7475     0.1860
      7  C4'       92.8960   43.6710  151.4460 C.3   7475  AMP7475     0.1823
      8  O4'       93.5640   44.8520  152.1770 O.3   7475  AMP7475    -0.3135
      9  C3'       93.8630   43.1610  150.5370 C.3   7475  AMP7475     0.2184
     10  O3'       93.2620   43.0980  149.2550 O.3   7475  AMP7475    -0.2174
     11  C2'       95.1080   44.0790  150.9130 C.3   7475  AMP7475     0.2570
     12  O2'       96.1500   43.7580  150.0250 O.3   7475  AMP7475    -0.2130
     13  C1'       94.3900   45.4800  151.0580 C.3   7475  AMP7475     0.3186
     14  N9        95.3760   46.8690  151.5050 N.pl3 7475  AMP7475    -0.1439
     15  C8        95.1150   48.3090  151.1540 C.3   7475  AMP7475     0.3377
     16  N7        95.9890   49.2600  151.5780 N.2   7475  AMP7475    -0.2095
     17  C5        96.9280   48.4810  152.2670 C.2   7475  AMP7475     0.2526
     18  C6        98.1320   48.8640  152.9760 C.2   7475  AMP7475     0.4393
     19  N6        98.4530   50.0410  153.0100 N.pl3 7475  AMP7475     0.2180
     20  N1        98.9190   47.9440  153.5940 N.2   7475  AMP7475     0.0021
     21  C2        98.5580   46.6330  153.5510 C.3   7475  AMP7475     0.5254
     22  N3        97.4400   46.0550  152.9220 N.2   7475  AMP7475    -0.0055
     23  C4        96.6160   47.0430  152.2720 C.2   7475  AMP7475     0.3518
@<TRIPOS>BOND
     1    10     9    1
     2    12    11    1
     3     9    11    1
     4     9     7    1
     5    11    13    1
     6    13    14    1
     7    13     8    1
     8    15    14    1
     9    15    16    1
    10     7     6    1
    11     7     8    1
    12    14    23    1
    13    16    17    2
    14     6     5    1
    15    17    23    1
    16    17    18    1
    17    23    22    2
    18    22    21    1
    19    18    19    1
    20    18    20    2
    21     5     1    1
    22     4     1    2
    23    21    20    1
    24     3     1    1
    25     1     2    1
