@<TRIPOS>MOLECULE
1htq_CIT_A_1.pdb
 13 12 0 0 0
SMALL
GASTEIGER

@<TRIPOS>ATOM
      1  C1        80.1510   39.3290  152.7830 C.2   7476  CIT7476     0.3680
      2  O1        80.7210   38.7060  152.0060 O.co2 7476  CIT7476    -0.2455
      3  O2        80.5180   39.6930  153.8960 O.co2 7476  CIT7476    -0.2455
      4  C2        78.6890   39.8170  152.4800 C.3   7476  CIT7476     0.1560
      5  C3        78.6350   41.1930  151.6590 C.3   7476  CIT7476     0.2402
      6  O7        79.7610   41.3000  150.7480 O.3   7476  CIT7476    -0.2129
      7  C4        77.3300   41.2840  150.7710 C.3   7476  CIT7476     0.1560
      8  C5        75.9490   40.9090  151.4050 C.2   7476  CIT7476     0.3680
      9  O3        75.9910   40.2500  152.5850 O.co2 7476  CIT7476    -0.2455
     10  O4        74.8250   41.1590  150.9440 O.co2 7476  CIT7476    -0.2455
     11  C6        78.7530   42.3260  152.5700 C.2   7476  CIT7476     0.3927
     12  O5        77.8490   42.4450  153.4870 O.co2 7476  CIT7476    -0.2429
     13  O6        79.7390   43.1340  152.3750 O.co2 7476  CIT7476    -0.2429
@<TRIPOS>BOND
     1     6     5    1
     2     7     8    1
     3     7     5    1
     4    10     8   ar
     5     8     9   ar
     6     5     4    1
     7     5    11    1
     8     2     1   ar
     9    13    11   ar
    10     4     1    1
    11    11    12   ar
    12     1     3   ar
