@<TRIPOS>MOLECULE
1htt_HIS_A_1.pdb
 10 10 0 0 0
SMALL
GASTEIGER

@<TRIPOS>ATOM
      1  N        -12.8310   21.0680   15.9730 N.3   450  HIS450     -0.1297
      2  CA       -12.2820   22.2200   16.6370 C.3   450  HIS450      0.1303
      3  C        -10.9360   21.7050   17.1790 C.3   450  HIS450      0.2013
      4  O        -10.9830   20.4910   17.4300 O.3   450  HIS450     -0.2188
      5  CB       -13.3420   22.6020   17.7090 C.3   450  HIS450      0.0651
      6  CG       -14.7970   22.6840   17.1900 C.2   450  HIS450      0.0646
      7  ND1      -15.3440   23.7990   16.7670 N.2   450  HIS450     -0.2310
      8  CD2      -15.6820   21.6510   17.0960 C.3   450  HIS450      0.1682
      9  CE1      -16.5730   23.4860   16.4030 C.2   450  HIS450      0.1939
     10  NE2      -16.7640   22.2100   16.6000 N.2   450  HIS450     -0.2440
@<TRIPOS>BOND
     1     1     2    1
     2     9    10    2
     3     9     7    1
     4    10     8    1
     5     2     3    1
     6     2     5    1
     7     7     6    2
     8     8     6    1
     9     3     4    1
    10     6     5    1
