@<TRIPOS>MOLECULE
1htt_AMP_A_1.pdb
 23 25 0 0 0
SMALL
GASTEIGER

@<TRIPOS>ATOM
      1  P         -8.0810   22.3460   18.0690 P.3   451  AMP451      0.5327
      2  O1P       -7.6920   23.6640   18.5840 O.3   451  AMP451     -0.1145
      3  O2P       -7.1160   21.6770   17.2110 O.2   451  AMP451     -0.2224
      4  O3P       -9.6430   22.4970   17.2980 O.3   451  AMP451     -0.1145
      5  O5'       -8.3190   21.4190   19.3640 O.3   451  AMP451     -0.2675
      6  C5'       -9.4190   21.5660   20.2820 C.3   451  AMP451      0.1860
      7  C4'       -9.1280   20.8500   21.5640 C.3   451  AMP451      0.1823
      8  O4'       -8.7720   19.5090   21.3170 O.3   451  AMP451     -0.3135
      9  C3'       -7.9010   21.4040   22.1730 C.3   451  AMP451      0.2184
     10  O3'       -8.2140   22.5960   22.8920 O.3   451  AMP451     -0.2174
     11  C2'       -7.3910   20.3180   23.0740 C.3   451  AMP451      0.2570
     12  O2'       -8.0740   20.2580   24.3490 O.3   451  AMP451     -0.2130
     13  C1'       -7.7620   19.1120   22.2510 C.3   451  AMP451      0.3186
     14  N9        -6.5800   18.6140   21.5420 N.pl3 451  AMP451     -0.1439
     15  C8        -6.0910   19.0060   20.3280 C.3   451  AMP451      0.3377
     16  N7        -5.0280   18.3770   19.9410 N.2   451  AMP451     -0.2095
     17  C5        -4.7790   17.4880   20.9720 C.2   451  AMP451      0.2526
     18  C6        -3.7780   16.5060   21.1510 C.2   451  AMP451      0.4393
     19  N6        -2.8460   16.2430   20.2410 N.pl3 451  AMP451      0.2180
     20  N1        -3.8210   15.7800   22.2720 N.2   451  AMP451      0.0021
     21  C2        -4.7970   16.0430   23.1410 C.3   451  AMP451      0.5254
     22  N3        -5.8050   16.9230   23.0950 N.2   451  AMP451     -0.0055
     23  C4        -5.7260   17.6300   21.9560 C.2   451  AMP451      0.3518
@<TRIPOS>BOND
     1     3     1    2
     2     4     1    1
     3     1     2    1
     4     1     5    1
     5     5     6    1
     6    16    15    1
     7    16    17    2
     8    19    18    1
     9     6     7    1
    10    15    14    1
    11    17    18    1
    12    17    23    1
    13    18    20    2
    14     8     7    1
    15     8    13    1
    16    14    23    1
    17    14    13    1
    18     7     9    1
    19    23    22    2
    20     9    10    1
    21     9    11    1
    22    13    11    1
    23    20    21    1
    24    11    12    1
    25    22    21    1
