@<TRIPOS>MOLECULE
1htw_ADP_A_1.pdb
 27 29 0 0 0
SMALL
GASTEIGER

@<TRIPOS>ATOM
      1  PB        21.2800    7.8320    6.8150 P.3   560  ADP560      0.5373
      2  O1B       20.5460    9.1290    6.4550 O.3   560  ADP560     -0.1143
      3  O2B       22.6900    8.0520    7.1660 O.3   560  ADP560     -0.1143
      4  O3B       21.1110    6.8470    5.5790 O.2   560  ADP560     -0.2221
      5  PA        19.0440    7.2350    8.5610 P.3   560  ADP560      0.2231
      6  O1A       17.9860    7.2790    7.5060 O.2   560  ADP560     -0.5169
      7  O2A       18.9530    8.2790    9.6040 O.3   560  ADP560     -0.4370
      8  O3A       20.4940    7.1370    7.9360 O.3   560  ADP560     -0.2261
      9  O5'       18.9020    5.8070    9.2770 O.3   560  ADP560     -0.3111
     10  C5'       19.3960    5.4960   10.5540 C.3   560  ADP560      0.1813
     11  C4'       18.6920    4.1910   11.0160 C.3   560  ADP560      0.1821
     12  O4'       19.3970    3.6590   12.1350 O.3   560  ADP560     -0.3135
     13  C3'       17.2550    4.4080   11.4360 C.3   560  ADP560      0.2184
     14  O3'       16.4160    3.3040   10.9710 O.3   560  ADP560     -0.2174
     15  C2'       17.4060    4.5250   12.9400 C.3   560  ADP560      0.2570
     16  O2'       16.2220    4.2770   13.6730 O.3   560  ADP560     -0.2130
     17  C1'       18.5810    3.5690   13.2440 C.3   560  ADP560      0.3186
     18  N9        19.3230    3.9340   14.4250 N.pl3 560  ADP560     -0.1439
     19  C8        19.6530    3.1100   15.4630 C.3   560  ADP560      0.3377
     20  N7        20.4060    3.5950   16.3880 N.2   560  ADP560     -0.2095
     21  C5        20.6010    4.8370   15.9710 C.2   560  ADP560      0.2526
     22  C6        21.3970    5.7880   16.5630 C.2   560  ADP560      0.4393
     23  N6        22.1160    5.6180   17.6630 N.pl3 560  ADP560      0.2180
     24  N1        21.5200    6.9450   15.8520 N.2   560  ADP560      0.0021
     25  C2        20.8720    7.1020   14.6860 C.3   560  ADP560      0.5254
     26  N3        20.1130    6.2180   14.0050 N.2   560  ADP560     -0.0055
     27  C4        20.0050    5.1030   14.7680 C.2   560  ADP560      0.3518
@<TRIPOS>BOND
     1     4     1    2
     2     2     1    1
     3     1     3    1
     4     1     8    1
     5     6     5    2
     6     8     5    1
     7     5     9    1
     8     5     7    1
     9     9    10    1
    10    10    11    1
    11    14    13    1
    12    11    13    1
    13    11    12    1
    14    13    15    1
    15    12    17    1
    16    15    17    1
    17    15    16    1
    18    17    18    1
    19    26    25    1
    20    26    27    2
    21    18    27    1
    22    18    19    1
    23    25    24    1
    24    27    21    1
    25    19    20    1
    26    24    22    2
    27    21    20    2
    28    21    22    1
    29    22    23    1
