@<TRIPOS>MOLECULE
1hu0_OXG_A_1.pdb
 12 13 0 0 0
SMALL
GASTEIGER

@<TRIPOS>ATOM
      1  N9        20.2300   23.3220   34.0280 N.2   328  OXG328     -0.2373
      2  C8        20.3460   21.9620   34.1430 C.1   328  OXG328      0.3665
      3  N7        20.4200   21.3350   33.0020 N.2   328  OXG328     -0.2823
      4  C5        20.3480   22.3520   32.0570 C.2   328  OXG328      0.3261
      5  C6        20.3820   22.2960   30.6330 C.1   328  OXG328      0.2591
      6  O6        20.4870   21.3050   29.8950 O.2   328  OXG328     -0.2051
      7  N1        20.2860   23.5660   30.0740 N.2   328  OXG328     -0.2465
      8  C2        20.1770   24.7440   30.7830 C.1   328  OXG328      0.2618
      9  N2        20.1150   25.8740   30.0510 N.pl3 328  OXG328     -0.0220
     10  N3        20.1400   24.8110   32.1080 N.2   328  OXG328     -0.2542
     11  C4        20.2310   23.5890   32.6760 C.1   328  OXG328      0.2084
     12  O8        20.3780   21.3730   35.2300 O.2   328  OXG328     -0.1745
@<TRIPOS>BOND
     1     6     5    2
     2     9     8    1
     3     7     5    2
     4     7     8    2
     5     5     4    1
     6     8    10    2
     7     4    11    1
     8     4     3    2
     9    10    11    2
    10    11     1    2
    11     3     2    2
    12     1     2    2
    13     2    12    2
