@<TRIPOS>MOLECULE
1hu9_4HM_A_1.pdb
 11 11 0 0 0
SMALL
GASTEIGER

@<TRIPOS>ATOM
      1  C1        20.3170    4.2890   20.5980 C.ar  861  4HM861      0.2295
      2  C2        21.3740    5.2160   20.5050 C.ar  861  4HM861      0.1805
      3  C3        21.9710    5.4770   19.2730 C.ar  861  4HM861      0.0812
      4  C4        21.5250    4.7740   18.1260 C.ar  861  4HM861      0.1891
      5  C5        20.4820    3.8510   18.2220 C.ar  861  4HM861      0.0445
      6  C6        19.8830    3.5980   19.4610 C.ar  861  4HM861      0.0485
      7  O7        22.0970    4.9910   16.9220 O.3   861  4HM861     -0.3029
      8  O8        22.3330    3.9010   15.9730 O.3   861  4HM861      0.0284
      9  O9        21.7540    5.8560   21.6210 O.3   861  4HM861     -0.4681
     10  O10       19.7300    4.0330   21.8010 O.3   861  4HM861     -0.2833
     11  C11       21.0290    6.7480   22.4230 C.3   861  4HM861      0.2526
@<TRIPOS>BOND
     1     8     7    1
     2     7     4    1
     3     4     5   ar
     4     4     3   ar
     5     5     6   ar
     6     3     2   ar
     7     6     1   ar
     8     2     1   ar
     9     2     9    1
    10     1    10    1
    11     9    11    1
