@<TRIPOS>MOLECULE
1huo_TTE_A_1.pdb
 29 30 0 0 0
SMALL
GASTEIGER

@<TRIPOS>ATOM
      1  N1        36.5320   21.8930   10.8380 N.am  338  TTE338     -0.1794
      2  C2        37.1320   21.6650    9.6560 C.1   338  TTE338      0.2844
      3  O2        36.4470   21.5090    8.6340 O.2   338  TTE338     -0.1918
      4  N3        38.4450   21.5990    9.5450 N.2   338  TTE338     -0.2455
      5  C4        39.3110   21.7510   10.5860 C.1   338  TTE338      0.2134
      6  O4        40.5080   21.6840   10.4580 O.2   338  TTE338     -0.2088
      7  C5        38.6490   22.0060   11.9180 C.2   338  TTE338      0.0891
      8  C5M       39.4730   22.1650   13.1550 C.3   338  TTE338      0.0462
      9  C6        37.3120   22.0610   11.9460 C.2   338  TTE338      0.0877
     10  C1'       35.1520   21.9560   10.9390 C.3   338  TTE338      0.2090
     11  C2'       34.5920   20.9400   11.9570 C.3   338  TTE338      0.0874
     12  C3'       34.5940   21.7470   13.2400 C.3   338  TTE338      0.1857
     13  O3'       33.6460   21.1820   14.1370 O.3   338  TTE338     -0.2203
     14  C4'       34.2200   23.1690   12.9220 C.3   338  TTE338      0.1773
     15  O4'       34.6840   23.1650   11.3440 O.3   338  TTE338     -0.3339
     16  C5'       34.9750   24.2410   13.7250 C.3   338  TTE338      0.1812
     17  O5'       36.0350   23.6760   14.5280 O.3   338  TTE338     -0.3112
     18  PA        36.2400   24.0350   16.1100 P.3   338  TTE338      0.2209
     19  O1A       35.0590   24.9240   16.7040 O.3   338  TTE338     -0.4371
     20  O2A       37.7630   24.5740   16.2420 O.2   338  TTE338     -0.5170
     21  O3A       36.2560   22.6160   16.8180 O.3   338  TTE338     -0.2483
     22  PB        35.1030   21.7950   17.5620 P.3   338  TTE338      0.3815
     23  O1B       34.8490   20.5980   16.4960 O.2   338  TTE338     -0.2547
     24  O2B       33.8370   22.7430   17.4810 O.3   338  TTE338     -0.1391
     25  CC        36.0930   20.9880   18.8860 C.3   338  TTE338      0.1768
     26  PG        36.4410   22.2680   20.1800 P.3   338  TTE338      0.1295
     27  O1G       36.5830   23.6150   19.2790 O.2   338  TTE338     -0.4595
     28  O2G       35.0600   22.4460   20.9670 O.3   338  TTE338     -0.3567
     29  O3G       37.9840   21.9440   20.5540 O.3   338  TTE338     -0.3567
@<TRIPOS>BOND
     1     3     2    2
     2     4     2    2
     3     4     5    2
     4     2     1   am
     5     6     5    2
     6     5     7    1
     7     1    10    1
     8     1     9    1
     9    10    15    1
    10    10    11    1
    11    15    14    1
    12     7     9    2
    13     7     8    1
    14    11    12    1
    15    14    12    1
    16    14    16    1
    17    12    13    1
    18    16    17    1
    19    17    18    1
    20    18    20    2
    21    18    19    1
    22    18    21    1
    23    23    22    2
    24    21    22    1
    25    24    22    1
    26    22    25    1
    27    25    26    1
    28    27    26    2
    29    26    29    1
    30    26    28    1
