@<TRIPOS>MOLECULE
1huq_GNP_A_1.pdb
 32 34 0 0 0
SMALL
GASTEIGER

@<TRIPOS>ATOM
      1  PG         1.4600   -1.4510   42.8530 P.3   200  GNP200      0.4884
      2  O1G        1.0460   -2.3600   43.9460 O.3   200  GNP200     -0.1240
      3  O2G        1.4830   -0.0410   43.2600 O.3   200  GNP200     -0.1240
      4  O3G        0.8160   -1.7220   41.5460 O.2   200  GNP200     -0.2331
      5  N3B        3.0440   -1.8160   42.5680 N.3   200  GNP200     -0.0163
      6  PB         4.0690   -1.2880   41.3940 P.3   200  GNP200      0.4669
      7  O1B        3.8180   -2.0040   40.1120 O.2   200  GNP200     -0.2351
      8  O2B        4.0820    0.1730   41.4030 O.3   200  GNP200     -0.1253
      9  O3A        5.5460   -1.6920   41.9120 O.3   200  GNP200     -0.2360
     10  PA         6.6540   -0.7420   42.6150 P.3   200  GNP200      0.2220
     11  O1A        7.0960    0.3180   41.6990 O.2   200  GNP200     -0.5170
     12  O2A        6.1780   -0.4020   43.9720 O.3   200  GNP200     -0.4370
     13  O5'        7.8130   -1.8170   42.7320 O.3   200  GNP200     -0.3111
     14  C5'        7.6780   -2.9870   43.5330 C.3   200  GNP200      0.1813
     15  C4'        9.0540   -3.5110   43.9500 C.3   200  GNP200      0.1799
     16  O4'        9.8250   -3.9060   42.8000 O.3   200  GNP200     -0.3326
     17  C3'        9.8530   -2.4310   44.6540 C.3   200  GNP200      0.2158
     18  O3'       10.6360   -3.0470   45.6600 O.3   200  GNP200     -0.2175
     19  C2'       10.7780   -1.9020   43.5800 C.3   200  GNP200      0.2310
     20  O2'       11.9810   -1.3880   44.1560 O.3   200  GNP200     -0.2158
     21  C1'       11.0380   -3.1550   42.7540 C.3   200  GNP200      0.2293
     22  N9        11.3760   -2.8610   41.3520 N.pl3 200  GNP200     -0.2354
     23  C8        10.7170   -2.0440   40.4770 C.3   200  GNP200      0.2246
     24  N7        11.2710   -1.9660   39.2930 N.2   200  GNP200     -0.2322
     25  C5        12.3770   -2.7980   39.3920 C.2   200  GNP200      0.2182
     26  C6        13.3470   -3.1100   38.4200 C.1   200  GNP200      0.2372
     27  O6        13.4030   -2.6910   37.2680 O.2   200  GNP200     -0.2069
     28  N1        14.2920   -3.9930   38.9040 N.2   200  GNP200     -0.2485
     29  C2        14.3110   -4.5140   40.1750 C.1   200  GNP200      0.2531
     30  N2        15.3120   -5.3540   40.4640 N.pl3 200  GNP200     -0.0226
     31  N3        13.3920   -4.2150   41.1000 N.2   200  GNP200     -0.3074
     32  C4        12.4550   -3.3580   40.6410 C.2   200  GNP200      0.2300
@<TRIPOS>BOND
     1    27    26    2
     2    26    28    2
     3    26    25    1
     4    28    29    2
     5    24    25    2
     6    24    23    1
     7    25    32    1
     8     7     6    2
     9    29    30    1
    10    29    31    2
    11    23    22    1
    12    32    31    2
    13    32    22    1
    14    22    21    1
    15     6     8    1
    16     6     9    1
    17     6     5    1
    18     4     1    2
    19    11    10    2
    20     9    10    1
    21     5     1    1
    22    10    13    1
    23    10    12    1
    24    13    14    1
    25    21    16    1
    26    21    19    1
    27    16    15    1
    28     1     3    1
    29     1     2    1
    30    14    15    1
    31    19    20    1
    32    19    17    1
    33    15    17    1
    34    17    18    1
