@<TRIPOS>MOLECULE
1hur_GDP_A_1.pdb
 28 30 0 0 0
SMALL
GASTEIGER

@<TRIPOS>ATOM
      1  PB        57.2220   19.6680   15.5330 P.3     1  GDP1        0.5373
      2  O1B       57.2230   18.1710   15.6810 O.2     1  GDP1       -0.2221
      3  O2B       56.1000   20.3800   16.3200 O.3     1  GDP1       -0.1143
      4  O3B       58.4290   20.5430   15.8310 O.3     1  GDP1       -0.1143
      5  O3A       56.7640   20.0940   14.0910 O.3     1  GDP1       -0.2261
      6  PA        56.3580   19.4040   12.8460 P.3     1  GDP1        0.2231
      7  O1A       57.3820   18.3770   12.3400 O.2     1  GDP1       -0.5169
      8  O2A       55.0630   18.5920   12.9990 O.3     1  GDP1       -0.4370
      9  O5'       56.2530   20.5420   11.9050 O.3     1  GDP1       -0.3111
     10  C5'       55.4490   21.6580   12.2340 C.3     1  GDP1        0.1813
     11  C4'       55.0260   22.4000   10.9330 C.3     1  GDP1        0.1799
     12  O4'       56.1470   23.0400   10.3670 O.3     1  GDP1       -0.3326
     13  C3'       54.4430   21.4280    9.8780 C.3     1  GDP1        0.2158
     14  O3'       53.3910   22.2010    9.2810 O.3     1  GDP1       -0.2175
     15  C2'       55.6200   21.2970    8.9030 C.3     1  GDP1        0.2310
     16  O2'       55.2710   20.9780    7.5450 O.3     1  GDP1       -0.2158
     17  C1'       56.2300   22.7090    8.9800 C.3     1  GDP1        0.2293
     18  N9        57.6830   22.6430    8.6600 N.pl3   1  GDP1       -0.2354
     19  C8        58.6500   21.7920    9.1640 C.3     1  GDP1        0.2246
     20  N7        59.8560   22.0100    8.6250 N.2     1  GDP1       -0.2322
     21  C5        59.7050   23.1470    7.7370 C.2     1  GDP1        0.2182
     22  C6        60.6370   23.9890    6.8570 C.1     1  GDP1        0.2372
     23  O6        61.8570   23.8290    6.8820 O.2     1  GDP1       -0.2069
     24  N1        60.1870   25.0130    6.0890 N.2     1  GDP1       -0.2485
     25  C2        58.8570   25.4330    6.1080 C.1     1  GDP1        0.2531
     26  N2        58.4460   26.4820    5.3830 N.pl3   1  GDP1       -0.0226
     27  N3        57.9880   24.6730    6.9190 N.2     1  GDP1       -0.3074
     28  C4        58.4190   23.5100    7.7540 C.2     1  GDP1        0.2300
@<TRIPOS>BOND
     1    26    25    1
     2    24    25    2
     3    24    22    2
     4    25    27    2
     5    22    23    2
     6    22    21    1
     7    27    28    2
     8    16    15    1
     9    21    28    1
    10    21    20    2
    11    28    18    1
    12    20    19    1
    13    18    17    1
    14    18    19    1
    15    15    17    1
    16    15    13    1
    17    17    12    1
    18    14    13    1
    19    13    11    1
    20    12    11    1
    21    11    10    1
    22     9    10    1
    23     9     6    1
    24     7     6    2
    25     6     8    1
    26     6     5    1
    27     5     1    1
    28     1     2    2
    29     1     4    1
    30     1     3    1
