@<TRIPOS>MOLECULE
1hut_0G7_H_1.pdb
 30 31 0 0 0
SMALL
GASTEIGER

@<TRIPOS>ATOM
      1  N         31.4490   47.5040   26.7110 N.3     1  0G71       -0.1227
      2  CA        30.5700   48.2510   27.6690 C.3     1  0G71        0.1725
      3  C         29.3590   47.3700   27.9340 C.2     1  0G71        0.2475
      4  O         29.5210   46.1640   28.0510 O.2     1  0G71       -0.2730
      5  CB        31.3320   48.6840   28.8680 C.3     1  0G71        0.0547
      6  CG        30.6880   48.9280   30.1980 C.ar    1  0G71       -0.0202
      7  CD1       30.1610   50.1830   30.5020 C.ar    1  0G71       -0.0042
      8  CD2       30.7320   47.9540   31.2010 C.ar    1  0G71       -0.0042
      9  CE1       29.6470   50.4680   31.7560 C.ar    1  0G71       -0.0003
     10  CE2       30.2160   48.2160   32.4680 C.ar    1  0G71       -0.0003
     11  CZ        29.6650   49.4760   32.7580 C.ar    1  0G71       -0.0000
     12  N1        28.1840   47.9380   27.9200 N.am    1  0G71       -0.2492
     13  CA1       26.9490   47.1700   28.1260 C.3     1  0G71        0.1619
     14  C1        26.7150   45.8460   27.4550 C.2     1  0G71        0.2605
     15  O1        25.9180   45.0700   28.1520 O.2     1  0G71       -0.2715
     16  CB1       25.8120   48.2220   27.9720 C.3     1  0G71        0.0570
     17  CG1       26.4430   49.5660   27.8370 C.2     1  0G71       -0.0077
     18  CD        27.9450   49.3930   27.7730 C.2     1  0G71        0.0634
     19  N2        27.1610   45.3280   26.3810 N.am    1  0G71       -0.1982
     20  CA2       26.8430   43.9930   25.8750 C.3     1  0G71        0.1524
     21  C2        25.3690   43.5810   25.8400 C.2     1  0G71        0.1707
     22  O2        25.2100   42.3400   25.8920 O.2     1  0G71       -0.2943
     23  CB2       27.5250   42.8040   26.6010 C.3     1  0G71        0.0329
     24  CG2       28.9690   42.4760   26.3510 C.3     1  0G71        0.0491
     25  CD3       29.3130   41.1160   25.8560 C.3     1  0G71        0.2205
     26  NE        30.7690   40.8830   25.8040 N.pl3   1  0G71       -0.0865
     27  CZ1       31.3960   39.7330   26.0500 C.cat   1  0G71        0.5346
     28  NH1       30.6710   38.6530   26.3790 N.pl3   1  0G71        0.1354
     29  NH2       32.7220   39.5820   26.0100 N.pl3   1  0G71        0.1354
     30  C3        24.4110   44.3070   25.6470 C.3     1  0G71        0.0741
@<TRIPOS>BOND
     1    30    21    1
     2    26    25    1
     3    26    27    2
     4    21    20    1
     5    21    22    2
     6    25    24    1
     7    20    19    1
     8    20    23    1
     9    29    27    1
    10    27    28    1
    11    24    23    1
    12    19    14   am
    13     1     2    1
    14    14    13    1
    15    14    15    2
    16     2     3    1
    17     2     5    1
    18    18    17    2
    19    18    12    1
    20    17    16    1
    21    12     3   am
    22    12    13    1
    23     3     4    2
    24    16    13    1
    25     5     6    1
    26     6     7   ar
    27     6     8   ar
    28     7     9   ar
    29     8    10   ar
    30     9    11   ar
    31    10    11   ar
