@<TRIPOS>MOLECULE
1huv_FMN_A_1.pdb
 31 33 0 0 0
SMALL
GASTEIGER

@<TRIPOS>ATOM
      1  N1        72.7560   82.6120   25.9210 N.2   390  FMN390     -0.2890
      2  C2        71.5510   82.1930   26.4260 C.1   390  FMN390      0.3669
      3  O2        71.3700   82.0770   27.5710 O.2   390  FMN390     -0.1744
      4  N3        70.4810   81.8890   25.4730 N.2   390  FMN390     -0.2300
      5  C4        70.5730   81.9820   24.0490 C.1   390  FMN390      0.2513
      6  O4        69.6400   81.7090   23.2840 O.2   390  FMN390     -0.2057
      7  C4A       71.9080   82.4410   23.5210 C.2   390  FMN390      0.2700
      8  N5        72.1540   82.5620   22.2010 N.2   390  FMN390     -0.3878
      9  C5A       73.4000   82.9580   21.7260 C.2   390  FMN390      0.1320
     10  C6        73.6470   83.0640   20.3020 C.2   390  FMN390      0.0250
     11  C7        74.9400   83.4530   19.7390 C.2   390  FMN390     -0.0238
     12  C7M       75.0960   83.5230   18.2430 C.3   390  FMN390      0.0308
     13  C8        76.0840   83.7740   20.6990 C.2   390  FMN390     -0.0280
     14  C8M       77.4660   84.1800   20.2530 C.3   390  FMN390      0.0304
     15  C9        75.8230   83.6720   22.1030 C.2   390  FMN390     -0.0041
     16  C9A       74.5300   83.2780   22.6850 C.3   390  FMN390      0.1497
     17  N10       74.2060   83.1380   24.1070 N.pl3 390  FMN390     -0.2691
     18  C10       72.9490   82.7260   24.5980 C.2   390  FMN390      0.2416
     19  C1'       75.2660   83.4260   25.0870 C.3   390  FMN390      0.1294
     20  C2'       76.0000   82.1370   25.4360 C.3   390  FMN390      0.2044
     21  O2'       75.2790   81.3140   26.2910 O.3   390  FMN390     -0.2185
     22  C3'       77.3510   82.3600   26.1000 C.3   390  FMN390      0.2164
     23  O3'       77.1340   83.1320   27.3180 O.3   390  FMN390     -0.2175
     24  C4'       78.3890   83.2010   25.3650 C.3   390  FMN390      0.2147
     25  O4'       78.4710   83.0280   23.9740 O.3   390  FMN390     -0.2176
     26  C5'       79.7370   82.8940   25.9510 C.3   390  FMN390      0.1892
     27  O5'       80.8230   83.6360   25.3020 O.3   390  FMN390     -0.2674
     28  P         81.7630   83.2470   24.1590 P.3   390  FMN390      0.5327
     29  O1P       83.0110   84.0700   24.0890 O.3   390  FMN390     -0.1145
     30  O2P       80.8950   83.3550   22.9500 O.2   390  FMN390     -0.2224
     31  O3P       82.0480   81.8260   24.5540 O.3   390  FMN390     -0.1145
@<TRIPOS>BOND
     1    12    11    1
     2    11    10    2
     3    11    13    1
     4    14    13    1
     5    10     9    1
     6    13    15    2
     7     9     8    2
     8     9    16    1
     9    15    16    1
    10     8     7    2
    11    16    17    1
    12    30    28    2
    13     6     5    2
    14     7     5    1
    15     7    18    1
    16    25    24    1
    17     5     4    2
    18    29    28    1
    19    17    18    1
    20    17    19    1
    21    28    31    1
    22    28    27    1
    23    18     1    2
    24    19    20    1
    25    27    26    1
    26    24    26    1
    27    24    22    1
    28    20    22    1
    29    20    21    1
    30     4     2    2
    31     1     2    2
    32    22    23    1
    33     2     3    2
