@<TRIPOS>MOLECULE
1hux_ADP_A_1.pdb
 27 29 0 0 0
SMALL
GASTEIGER

@<TRIPOS>ATOM
      1  PB        28.2610   42.4340   48.5850 P.3   506  ADP506      0.5373
      2  O1B       28.9210   41.7780   49.7650 O.3   506  ADP506     -0.1143
      3  O2B       28.0420   41.5010   47.3550 O.2   506  ADP506     -0.2221
      4  O3B       27.0220   43.2360   48.9400 O.3   506  ADP506     -0.1143
      5  PA        30.6880   43.2960   47.4340 P.3   506  ADP506      0.2231
      6  O1A       30.5970   43.1330   45.9400 O.2   506  ADP506     -0.5169
      7  O2A       31.5190   42.3530   48.1830 O.3   506  ADP506     -0.4370
      8  O3A       29.2130   43.4110   48.0280 O.3   506  ADP506     -0.2261
      9  O5'       31.0760   44.7770   47.7390 O.3   506  ADP506     -0.3111
     10  C5'       32.2880   45.2030   47.4050 C.3   506  ADP506      0.1813
     11  C4'       32.6690   46.4780   48.0580 C.3   506  ADP506      0.1821
     12  O4'       33.9220   46.9470   47.4750 O.3   506  ADP506     -0.3135
     13  C3'       31.6650   47.7510   48.0050 C.3   506  ADP506      0.2184
     14  O3'       31.7440   48.5430   49.2160 O.3   506  ADP506     -0.2174
     15  C2'       32.2030   48.4100   46.7500 C.3   506  ADP506      0.2570
     16  O2'       31.9750   49.8470   46.5770 O.3   506  ADP506     -0.2130
     17  C1'       33.6950   48.1390   46.8920 C.3   506  ADP506      0.3186
     18  N9        34.5370   48.3970   45.7010 N.pl3 506  ADP506     -0.1439
     19  C8        34.2570   47.9880   44.4620 C.3   506  ADP506      0.3377
     20  N7        35.1410   48.3300   43.6230 N.2   506  ADP506     -0.2095
     21  C5        36.0820   49.0310   44.3670 C.2   506  ADP506      0.2526
     22  C6        37.3310   49.6700   44.0590 C.2   506  ADP506      0.4393
     23  N6        37.8480   49.7120   42.7980 N.pl3 506  ADP506      0.2180
     24  N1        38.0160   50.2620   45.0810 N.2   506  ADP506      0.0021
     25  C2        37.5060   50.2310   46.3220 C.3   506  ADP506      0.5254
     26  N3        36.3510   49.6520   46.7070 N.2   506  ADP506     -0.0055
     27  C4        35.6890   49.0690   45.6740 C.2   506  ADP506      0.3518
@<TRIPOS>BOND
     1    23    22    1
     2    20    21    2
     3    20    19    1
     4    22    21    1
     5    22    24    2
     6    21    27    1
     7    19    18    1
     8    24    25    1
     9    27    18    1
    10    27    26    2
    11    18    17    1
    12     6     5    2
    13    25    26    1
    14    16    15    1
    15    15    17    1
    16    15    13    1
    17    17    12    1
    18     3     1    2
    19    10     9    1
    20    10    11    1
    21     5     9    1
    22     5     8    1
    23     5     7    1
    24    12    11    1
    25    13    11    1
    26    13    14    1
    27     8     1    1
    28     1     4    1
    29     1     2    1
