@<TRIPOS>MOLECULE
1hv4_HEM_A_1.pdb
 43 50 0 0 0
SMALL
GASTEIGER

@<TRIPOS>ATOM
      1 FE         32.4790    6.8950   27.4190 Fe    151  HEM151      0.0000
      2  CHA       30.9440    5.2230   30.0410 C.2   151  HEM151      0.0000
      3  CHB       33.2080    9.4820   29.6250 C.2   151  HEM151      0.0000
      4  CHC       34.3620    8.6060   25.0940 C.2   151  HEM151      0.0000
      5  CHD       31.8640    4.4680   25.3840 C.2   151  HEM151      0.0000
      6  NA        32.1110    7.2780   29.3580 N.2   151  HEM151      0.0000
      7  C1A       31.4240    6.4990   30.2910 C.2   151  HEM151      0.0000
      8  C2A       31.3010    7.2350   31.5330 C.2   151  HEM151      0.0000
      9  C3A       31.8990    8.4330   31.3750 C.2   151  HEM151      0.0000
     10  C4A       32.4360    8.4360   30.0620 C.2   151  HEM151      0.0000
     11  CMA       32.0130    9.5400   32.4300 C.3   151  HEM151      0.0000
     12  CAA       30.8680    6.8000   32.9160 C.3   151  HEM151      0.0000
     13  CBA       29.4170    6.5400   33.2600 C.3   151  HEM151      0.0000
     14  CGA       29.2390    6.3010   34.7420 C.2   151  HEM151      0.0000
     15  O1A       30.0270    5.5210   35.3290 O.co2 151  HEM151      0.0000
     16  O2A       28.3120    6.8930   35.3230 O.co2 151  HEM151      0.0000
     17  NB        33.5410    8.7050   27.3640 N.ar  151  HEM151      0.0000
     18  C1B       33.7190    9.6030   28.3820 C.ar  151  HEM151      0.0000
     19  C2B       34.4920   10.6920   28.0190 C.ar  151  HEM151      0.0000
     20  C3B       34.7750   10.5240   26.6800 C.ar  151  HEM151      0.0000
     21  C4B       34.2090    9.2580   26.2960 C.ar  151  HEM151      0.0000
     22  CMB       34.9550   11.7510   29.0160 C.3   151  HEM151      0.0000
     23  CAB       35.3770   11.4340   25.8440 C.3   151  HEM151      0.0000
     24  CBB       36.6370   12.0360   26.2420 C.3   151  HEM151      0.0000
     25  NC        33.1090    6.5660   25.7090 N.2   151  HEM151      0.0000
     26  C1C       33.8670    7.3320   24.8210 C.2   151  HEM151      0.0000
     27  C2C       33.8670    6.7400   23.4730 C.2   151  HEM151      0.0000
     28  C3C       33.0080    5.6600   23.5320 C.2   151  HEM151      0.0000
     29  C4C       32.6500    5.5120   24.9420 C.2   151  HEM151      0.0000
     30  CMC       34.7480    7.1740   22.2690 C.3   151  HEM151      0.0000
     31  CAC       32.4720    4.8390   22.5130 C.3   151  HEM151      0.0000
     32  CBC       32.4230    5.0230   21.0760 C.3   151  HEM151      0.0000
     33  ND        31.6540    5.2070   27.6950 N.ar  151  HEM151      0.0000
     34  C1D       31.3860    4.3600   26.6540 C.ar  151  HEM151      0.0000
     35  C2D       30.4740    3.3370   27.0510 C.ar  151  HEM151      0.0000
     36  C3D       30.2020    3.4880   28.3660 C.ar  151  HEM151      0.0000
     37  C4D       31.0050    4.6190   28.7960 C.ar  151  HEM151      0.0000
     38  CMD       29.8110    2.3700   26.0760 C.3   151  HEM151      0.0000
     39  CAD       29.0240    2.7520   28.9940 C.3   151  HEM151      0.0000
     40  CBD       28.3350    3.1480   30.3040 C.3   151  HEM151      0.0000
     41  CGD       26.9460    2.5390   30.4310 C.2   151  HEM151      0.0000
     42  O1D       26.8250    1.2940   30.4390 O.co2 151  HEM151      0.0000
     43  O2D       25.9670    3.3110   30.5170 O.co2 151  HEM151      0.0000
@<TRIPOS>BOND
     1    32    31    1
     2    30    27    1
     3    31    28    1
     4    27    28    2
     5    27    26    1
     6    28    29    1
     7    26     4    2
     8    26    25    1
     9    29     5    1
    10    29    25    2
    11     4    21    1
    12     5    34    2
    13    25     1    1
    14    23    24    1
    15    23    20    1
    16    38    35    1
    17    21    20   ar
    18    21    17   ar
    19    34    35   ar
    20    34    33   ar
    21    20    19   ar
    22    35    36   ar
    23    17     1    1
    24    17    18   ar
    25     1    33    1
    26     1     6    1
    27    33    37   ar
    28    19    18   ar
    29    19    22    1
    30    36    37   ar
    31    36    39    1
    32    18     3    1
    33    37     2    2
    34    39    40    1
    35     6    10    1
    36     6     7    2
    37     3    10    2
    38     2     7    1
    39    10     9    1
    40     7     8    1
    41    40    41    1
    42    41    42   ar
    43    41    43   ar
    44     9     8    2
    45     9    11    1
    46     8    12    1
    47    12    13    1
    48    13    14    1
    49    14    16   ar
    50    14    15   ar
