@<TRIPOS>MOLECULE
1hv5_RXP_A_1.pdb
 50 54 0 0 0
SMALL
GASTEIGER

@<TRIPOS>ATOM
      1  N1        38.0990   63.2640    4.1400 N.am  6001  RXP6001    -0.0863
      2  N2        40.5810   61.4990    5.8530 N.am  6001  RXP6001    -0.1974
      3  C1        39.3270   61.3320    5.1100 C.3   6001  RXP6001     0.1784
      4  C2        38.7530   59.9420    5.4070 C.3   6001  RXP6001     0.0551
      5  C3        37.6320   59.6620    4.4600 C.2   6001  RXP6001    -0.0165
      6  C4        37.8220   58.9940    3.2690 C.ar  6001  RXP6001     0.0113
      7  C5        36.2420   60.0280    4.5990 C.3   6001  RXP6001     0.1477
      8  N3        35.5390   59.6190    3.4760 N.2   6001  RXP6001    -0.2659
      9  C6        36.4050   58.9640    2.6220 C.ar  6001  RXP6001     0.0758
     10  C7        38.9700   58.3580    2.5680 C.ar  6001  RXP6001     0.0009
     11  C8        36.0990   58.3350    1.3240 C.ar  6001  RXP6001     0.0187
     12  C9        38.6920   57.6720    1.2570 C.ar  6001  RXP6001     0.0001
     13  C10       37.2530   57.6540    0.6280 C.ar  6001  RXP6001     0.0015
     14  C11       38.4680   62.6480    5.3000 C.2   6001  RXP6001     0.2809
     15  O1        38.1260   62.8810    6.4490 O.2   6001  RXP6001    -0.2698
     16  O2        41.8050   62.2950    4.2750 O.2   6001  RXP6001    -0.2733
     17  C12       41.7400   61.9980    5.3950 C.2   6001  RXP6001     0.2422
     18  C13       43.7320   63.3790    6.4140 C.3   6001  RXP6001     0.0357
     19  C14       41.5990   65.4430    9.1570 C.ar  6001  RXP6001    -0.0003
     20  C15       40.8980   64.9780   10.3310 C.ar  6001  RXP6001    -0.0000
     21  C16       40.4540   65.9930   11.3050 C.ar  6001  RXP6001    -0.0000
     22  C17       40.6460   67.4230   11.0950 C.ar  6001  RXP6001    -0.0000
     23  C18       41.2500   67.8610    9.8620 C.ar  6001  RXP6001    -0.0000
     24  C19       41.7170   66.9300    8.8070 C.ar  6001  RXP6001    -0.0000
     25  C20       43.0010   62.0660    6.3240 C.3   6001  RXP6001     0.0923
     26  C38       42.9790   64.3870    7.2150 C.2   6001  RXP6001    -0.0256
     27  C39       42.0880   64.2440    8.5010 C.2   6001  RXP6001    -0.0046
     28  C21       44.0980   61.1340    5.7600 C.3   6001  RXP6001     0.1005
     29  P         45.3680   60.5860    6.8470 P.3   6001  RXP6001     0.2735
     30  O1P       44.6450   60.2270    7.8740 O.3   6001  RXP6001    -0.1661
     31  O2P       46.3300   61.4020    7.2750 O.2   6001  RXP6001    -0.2852
     32  N4        45.2080   58.2120    5.7730 N.am  6001  RXP6001    -0.1601
     33  C22       46.2440   59.1480    6.1830 C.3   6001  RXP6001     0.1822
     34  C23       47.1010   58.3830    7.2150 C.3   6001  RXP6001     0.0582
     35  C24       48.1740   57.6060    6.6520 C.ar  6001  RXP6001    -0.0199
     36  C25       47.9660   56.1810    6.0740 C.ar  6001  RXP6001    -0.0042
     37  C26       49.5350   58.2270    6.5930 C.ar  6001  RXP6001    -0.0042
     38  C27       49.0270   55.4070    5.4420 C.ar  6001  RXP6001    -0.0003
     39  C28       50.6440   57.4410    5.9600 C.ar  6001  RXP6001    -0.0003
     40  C29       50.3600   56.0510    5.3950 C.ar  6001  RXP6001    -0.0000
     41  C30       44.9210   57.1920    4.8090 C.2   6001  RXP6001     0.4219
     42  O5        43.8640   56.3560    5.0690 O.2   6001  RXP6001    -0.2245
     43  O6        45.9830   57.0440    3.7690 O.3   6001  RXP6001    -0.4285
     44  C31       45.9220   55.8100    2.7960 C.3   6001  RXP6001     0.2368
     45  C32       45.3340   54.4250    3.3390 C.ar  6001  RXP6001     0.0213
     46  C33       46.0690   53.5290    4.3640 C.ar  6001  RXP6001    -0.0007
     47  C34       45.3070   52.3970    5.1070 C.ar  6001  RXP6001    -0.0002
     48  C35       43.8110   52.0890    4.7740 C.ar  6001  RXP6001    -0.0000
     49  C36       43.0320   52.8700    3.6730 C.ar  6001  RXP6001    -0.0002
     50  C37       43.8390   54.0700    3.0080 C.ar  6001  RXP6001    -0.0007
@<TRIPOS>BOND
     1    13    12   ar
     2    13    11   ar
     3    12    10   ar
     4    11     9   ar
     5    10     6   ar
     6     9     6   ar
     7     9     8    2
     8    44    45    1
     9    44    43    1
    10    50    45   ar
    11    50    49   ar
    12     6     5    2
    13    45    46   ar
    14     8     7    1
    15    49    48   ar
    16    43    41    1
    17     1    14   am
    18    16    17    2
    19    46    47   ar
    20     5     7    1
    21     5     4    1
    22    48    47   ar
    23    41    42    2
    24    41    32   am
    25     3    14    1
    26     3     4    1
    27     3     2    1
    28    14    15    2
    29    17     2   am
    30    17    25    1
    31    40    38   ar
    32    40    39   ar
    33    38    36   ar
    34    28    25    1
    35    28    29    1
    36    32    33    1
    37    39    37   ar
    38    36    35   ar
    39    33    29    1
    40    33    34    1
    41    25    18    1
    42    18    26    1
    43    37    35   ar
    44    35    34    1
    45    29    31    2
    46    29    30    1
    47    26    27    2
    48    27    19    1
    49    24    19   ar
    50    24    23   ar
    51    19    20   ar
    52    23    22   ar
    53    20    21   ar
    54    22    21   ar
