@<TRIPOS>MOLECULE
1hv6_GCU_A_1.pdb
 13 13 0 0 0
SMALL
GASTEIGER

@<TRIPOS>ATOM
      1  C1        -2.7750   10.4660   12.6740 C.3   403  GCU403      0.3028
      2  C2        -1.8050   10.2340   11.5100 C.3   403  GCU403      0.2435
      3  C3        -1.1100   11.5460   11.1700 C.3   403  GCU403      0.2204
      4  C4        -2.1450   12.6510   10.9060 C.3   403  GCU403      0.2229
      5  C5        -3.1700   12.7400   12.0520 C.3   403  GCU403      0.2530
      6  C6        -4.2730   13.7560   11.7740 C.2   403  GCU403      0.3941
      7  O1        -3.4350    9.2890   12.9900 O.3   403  GCU403     -0.1869
      8  O2        -2.5170    9.7680   10.3730 O.3   403  GCU403     -0.2148
      9  O3        -0.2850   11.3700   10.0250 O.3   403  GCU403     -0.2174
     10  O4        -1.4560   13.9070   10.8120 O.3   403  GCU403     -0.2171
     11  O5        -3.7540   11.4440   12.3020 O.3   403  GCU403     -0.3149
     12  O6A       -4.0150   14.9700   11.9170 O.co2 403  GCU403     -0.2429
     13  O6B       -5.4020   13.3450   11.4170 O.co2 403  GCU403     -0.2429
@<TRIPOS>BOND
     1     9     3    1
     2     8     2    1
     3    10     4    1
     4     4     3    1
     5     4     5    1
     6     3     2    1
     7    13     6   ar
     8     2     1    1
     9     6    12   ar
    10     6     5    1
    11     5    11    1
    12    11     1    1
    13     1     7    1
