@<TRIPOS>MOLECULE
1hv6_MAW_A_1.pdb
 11 11 0 0 0
SMALL
GASTEIGER

@<TRIPOS>ATOM
      1  C1         0.2050   16.8110    5.1940 C.3   401  MAW401      0.1781
      2  C2        -0.3550   17.4100    3.8820 C.3   401  MAW401      0.2116
      3  O2        -1.0200   18.6370    4.1610 O.3   401  MAW401     -0.2177
      4  C3         0.8310   17.6540    2.9710 C.3   401  MAW401      0.1877
      5  O3         0.5430   17.9540    1.6100 O.3   401  MAW401     -0.2202
      6  C4         2.0940   18.1910    3.5610 C.3   401  MAW401      0.0769
      7  C5         2.3890   17.8350    4.9180 C.3   401  MAW401      0.2204
      8  O5         1.2380   17.6580    5.7710 O.3   401  MAW401     -0.3422
      9  C6         3.5570   18.4200    5.5260 C.2   401  MAW401      0.3914
     10  O6A        4.3590   19.0530    4.8040 O.co2 401  MAW401     -0.2430
     11  O6B        3.7310   18.2680    6.7520 O.co2 401  MAW401     -0.2430
@<TRIPOS>BOND
     1     5     4    1
     2     4     6    1
     3     4     2    1
     4     6     7    1
     5     2     3    1
     6     2     1    1
     7    10     9   ar
     8     7     9    1
     9     7     8    1
    10     1     8    1
    11     9    11   ar
