@<TRIPOS>MOLECULE
1hv6_MAV_A_1.pdb
 12 12 0 0 0
SMALL
GASTEIGER

@<TRIPOS>ATOM
      1  C1        -1.6410   14.6600    9.6690 C.3   402  MAV402      0.1783
      2  C2        -0.8650   15.9660    9.8200 C.3   402  MAV402      0.2141
      3  O2         0.4950   15.6750   10.1220 O.3   402  MAV402     -0.2176
      4  C3        -0.9480   16.7800    8.5300 C.3   402  MAV402      0.2178
      5  O3        -0.0880   17.9040    8.6270 O.3   402  MAV402     -0.2175
      6  C4        -0.5390   15.9400    7.3180 C.3   402  MAV402      0.2227
      7  O4        -0.8250   16.6860    6.1170 O.3   402  MAV402     -0.2171
      8  C5        -1.3010   14.6020    7.2940 C.3   402  MAV402      0.2512
      9  O5        -1.1280   13.9120    8.5530 O.3   402  MAV402     -0.3403
     10  C6        -0.8520   13.6920    6.1560 C.2   402  MAV402      0.3940
     11  O6A        0.2020   13.0350    6.2910 O.co2 402  MAV402     -0.2429
     12  O6B       -1.5560   13.6300    5.1280 O.co2 402  MAV402     -0.2429
@<TRIPOS>BOND
     1    12    10   ar
     2     7     6    1
     3    10    11   ar
     4    10     8    1
     5     8     6    1
     6     8     9    1
     7     6     4    1
     8     4     5    1
     9     4     2    1
    10     9     1    1
    11     1     2    1
    12     2     3    1
