@<TRIPOS>MOLECULE
1hv7_616_A_1.pdb
 27 28 0 0 0
SMALL
GASTEIGER

@<TRIPOS>ATOM
      1  O5        -8.4940   24.6910   36.4430 O.2   256  616256     -0.2882
      2  C30       -8.8010   24.0230   37.4100 C.2   256  616256      0.2087
      3  C7       -10.1790   23.4360   37.7080 C.3   256  616256      0.0845
      4  C27      -11.3220   24.4970   37.8950 C.3   256  616256      0.0090
      5  C17      -10.8000   25.4340   39.0170 C.3   256  616256      0.0005
      6  C1       -11.5630   25.2740   36.5990 C.3   256  616256      0.0005
      7  C8       -10.4710   22.2840   36.7090 C.3   256  616256      0.1005
      8  C29       -9.2610   21.6640   36.0180 C.3   256  616256      0.1175
      9  N2        -9.8380   20.9510   34.9000 N.3   256  616256     -0.0817
     10  S1        -8.9700   20.9880   33.4460 S.O2  256  616256      0.0592
     11  O2        -7.8690   19.8330   33.5940 O.2   256  616256     -0.1561
     12  O1        -8.3150   22.3280   33.2850 O.2   256  616256     -0.1561
     13  C3       -10.0010   20.5830   32.1950 C.3   256  616256      0.1975
     14  C28       -8.6770   20.5960   36.9660 C.3   256  616256      0.0425
     15  C26       -9.9860   20.0380   37.5920 C.3   256  616256      0.0950
     16  N1       -10.9680   21.0820   37.3580 N.am  256  616256     -0.2793
     17  C2       -12.2470   20.8270   37.7190 C.2   256  616256      0.2257
     18  O3       -13.1100   21.6940   37.6570 O.2   256  616256     -0.2749
     19  C4       -12.5680   19.4170   38.1500 C.3   256  616256      0.0867
     20  C5       -14.0200   19.2410   38.4290 C.3   256  616256      0.0269
     21  C6       -14.4140   17.7720   38.5500 C.3   256  616256      0.0726
     22  N49      -15.5630   17.5960   39.4530 N.3   256  616256     -0.2727
     23  C50      -15.9450   16.1490   39.4490 C.3   256  616256      0.0721
     24  C45      -17.1840   15.9870   40.3380 C.3   256  616256      0.0174
     25  C46      -16.8540   16.3960   41.7540 C.3   256  616256      0.0029
     26  C47      -16.3710   17.8650   41.8210 C.3   256  616256      0.0174
     27  C48      -15.2040   18.0000   40.8430 C.3   256  616256      0.0721
@<TRIPOS>BOND
     1    13    10    1
     2    12    10    2
     3    10    11    2
     4    10     9    1
     5     9     8    1
     6     8     7    1
     7     8    14    1
     8     1     2    2
     9     6     4    1
    10     7    16    1
    11     7     3    1
    12    14    15    1
    13    16    15    1
    14    16    17   am
    15     2     3    1
    16    18    17    2
    17     3     4    1
    18    17    19    1
    19     4     5    1
    20    19    20    1
    21    20    21    1
    22    21    22    1
    23    23    22    1
    24    23    24    1
    25    22    27    1
    26    24    25    1
    27    27    26    1
    28    25    26    1
