@<TRIPOS>MOLECULE
1hv9_UD1_A_1.pdb
 39 41 0 0 0
SMALL
GASTEIGER

@<TRIPOS>ATOM
      1  C1'      -15.3860   25.5330  345.1550 C.3   3001  UD13001     0.2633
      2  C2'      -15.0580   26.2060  343.7990 C.3   3001  UD13001     0.1845
      3  C3'      -14.5560   25.1160  342.8230 C.3   3001  UD13001     0.2094
      4  C4'      -13.3240   24.4310  343.4060 C.3   3001  UD13001     0.2136
      5  C5'      -13.7420   23.7750  344.7740 C.3   3001  UD13001     0.1834
      6  C6'      -12.5720   23.0820  345.4540 C.3   3001  UD13001     0.2142
      7  C7'      -16.6560   28.0620  343.6480 C.2   3001  UD13001     0.2420
      8  C8'      -17.9390   28.5230  343.0790 C.3   3001  UD13001     0.0964
      9  N2'      -16.2480   26.8820  343.2270 N.am  3001  UD13001    -0.1992
     10  O1'      -16.4570   24.6090  344.9600 O.3   3001  UD13001    -0.2864
     11  O3'      -14.2550   25.7630  341.5730 O.3   3001  UD13001    -0.2183
     12  O4'      -12.8600   23.4050  342.5080 O.3   3001  UD13001    -0.2176
     13  O5'      -14.2510   24.8180  345.6720 O.3   3001  UD13001    -0.3260
     14  O6'      -13.0540   22.5430  346.6900 O.3   3001  UD13001    -0.2176
     15  O7'      -16.0550   28.7670  344.4490 O.2   3001  UD13001    -0.2733
     16  N1       -17.8950   28.5370  351.8720 N.am  3001  UD13001    -0.1766
     17  C2       -18.2040   29.6380  352.6690 C.1   3001  UD13001     0.2845
     18  N3       -19.3420   30.2980  352.3960 N.2   3001  UD13001    -0.2452
     19  C4       -20.2240   30.0040  351.4280 C.1   3001  UD13001     0.2182
     20  C5       -19.9520   28.8440  350.5520 C.2   3001  UD13001     0.1242
     21  C6       -18.8200   28.1300  350.7650 C.2   3001  UD13001     0.0929
     22  O2       -17.5250   30.0610  353.5950 O.2   3001  UD13001    -0.1918
     23  O4       -21.2330   30.6890  351.2800 O.2   3001  UD13001    -0.2085
     24  C1B      -16.6530   27.7780  352.1220 C.3   3001  UD13001     0.2401
     25  C2B      -16.8280   26.3170  352.5720 C.3   3001  UD13001     0.2319
     26  O2'      -17.0130   26.2800  354.0000 O.3   3001  UD13001    -0.2157
     27  C3B      -15.5360   25.6500  352.0500 C.3   3001  UD13001     0.2158
     28  C4B      -15.1830   26.5140  350.8200 C.3   3001  UD13001     0.1799
     29  O4B      -15.8740   27.7380  350.9490 O.3   3001  UD13001    -0.3320
     30  O3B      -14.5100   25.8190  353.0200 O.3   3001  UD13001    -0.2175
     31  C5B      -15.6710   25.9210  349.4640 C.3   3001  UD13001     0.1813
     32  O5B      -17.0690   25.5710  349.4460 O.3   3001  UD13001    -0.3112
     33  PA       -17.5970   24.2860  348.7570 P.3   3001  UD13001     0.2189
     34  O1A      -19.1000   24.3630  348.7910 O.2   3001  UD13001    -0.5170
     35  O2A      -17.1170   23.1260  349.5020 O.3   3001  UD13001    -0.4371
     36  O3A      -17.0260   24.3180  347.3900 O.3   3001  UD13001    -0.2703
     37  PB       -17.6390   24.5640  345.9920 P.3   3001  UD13001     0.2208
     38  O1B      -18.3980   25.8300  345.9660 O.3   3001  UD13001    -0.4371
     39  O2B      -18.4090   23.3660  345.5590 O.2   3001  UD13001    -0.5170
@<TRIPOS>BOND
     1    11     3    1
     2    12     4    1
     3     3     4    1
     4     3     2    1
     5     8     7    1
     6     9     7   am
     7     9     2    1
     8     4     5    1
     9     7    15    2
    10     2     1    1
    11     5     6    1
    12     5    13    1
    13    10     1    1
    14    10    37    1
    15     1    13    1
    16     6    14    1
    17    39    37    2
    18    38    37    1
    19    37    36    1
    20    36    33    1
    21    33    34    2
    22    33    32    1
    23    33    35    1
    24    32    31    1
    25    31    28    1
    26    20    21    2
    27    20    19    1
    28    21    16    1
    29    28    29    1
    30    28    27    1
    31    29    24    1
    32    23    19    2
    33    19    18    2
    34    16    24    1
    35    16    17   am
    36    27    25    1
    37    27    30    1
    38    24    25    1
    39    18    17    2
    40    25    26    1
    41    17    22    2
