@<TRIPOS>MOLECULE
1hv9_COA_A_1.pdb
 48 50 0 0 0
SMALL
GASTEIGER

@<TRIPOS>ATOM
      1  N1A        8.5370    0.1050  419.2240 N.2   2001  COA2001     0.0021
      2  C2A        9.6040    0.8600  419.5690 C.3   2001  COA2001     0.5254
      3  N3A       10.9110    0.5400  419.4200 N.2   2001  COA2001    -0.0055
      4  C4A       11.0700   -0.6880  418.8460 C.2   2001  COA2001     0.3518
      5  C5A       10.0640   -1.5800  418.4430 C.2   2001  COA2001     0.2526
      6  C6A        8.7190   -1.1340  418.6470 C.2   2001  COA2001     0.4393
      7  N6A        7.6380   -1.8480  418.3210 N.pl3 2001  COA2001     0.2180
      8  N7A       10.6240   -2.7400  417.9010 N.2   2001  COA2001    -0.2095
      9  C8A       11.9240   -2.5280  417.9940 C.3   2001  COA2001     0.3377
     10  N9A       12.2560   -1.3140  418.5560 N.pl3 2001  COA2001    -0.1439
     11  C1B       13.6160   -0.7690  418.8010 C.3   2001  COA2001     0.3185
     12  C2B       14.5360   -1.7250  419.6130 C.3   2001  COA2001     0.2543
     13  O2B       14.6260   -1.3510  420.9650 O.3   2001  COA2001    -0.2131
     14  C3B       15.8570   -1.7860  418.8530 C.3   2001  COA2001     0.1928
     15  O3B       17.0110   -1.1820  419.4130 O.3   2001  COA2001    -0.2673
     16  P3B       17.6790   -1.4000  420.8540 P.3   2001  COA2001     0.5327
     17  O7A       19.0080   -2.0150  420.5430 O.2   2001  COA2001    -0.2224
     18  O8A       16.8190   -2.3400  421.6580 O.3   2001  COA2001    -0.1145
     19  O9A       17.8030   -0.0250  421.4800 O.3   2001  COA2001    -0.1145
     20  C4B       15.5900   -1.1450  417.5190 C.3   2001  COA2001     0.1795
     21  O4B       14.2470   -0.5780  417.5290 O.3   2001  COA2001    -0.3136
     22  C5B       15.8280   -2.1710  416.3830 C.3   2001  COA2001     0.1812
     23  O5B       15.8290   -3.5120  416.8690 O.3   2001  COA2001    -0.3112
     24  P1A       16.1720   -4.7190  415.8510 P.3   2001  COA2001     0.2189
     25  O1A       15.4830   -5.9340  416.4000 O.3   2001  COA2001    -0.4371
     26  O2A       17.6640   -4.7420  415.7210 O.2   2001  COA2001    -0.5170
     27  O3A       15.5110   -4.4530  414.3730 O.3   2001  COA2001    -0.2703
     28  P2A       16.5440   -4.0760  413.1900 P.3   2001  COA2001     0.2188
     29  O4A       16.8710   -5.2910  412.3680 O.2   2001  COA2001    -0.5170
     30  O5A       17.7090   -3.2800  413.7210 O.3   2001  COA2001    -0.4371
     31  O6A       15.6590   -3.0780  412.2800 O.3   2001  COA2001    -0.3138
     32  CBP       13.9470   -1.3780  411.6200 C.3   2001  COA2001     0.0645
     33  CCP       14.7010   -2.0660  412.7710 C.3   2001  COA2001     0.1519
     34  CDP       12.8550   -0.4860  412.2150 C.3   2001  COA2001     0.0056
     35  CEP       14.9460   -0.5310  410.8280 C.3   2001  COA2001     0.0056
     36  CAP       13.3130   -2.4450  410.6930 C.3   2001  COA2001     0.2312
     37  OAP       12.5150   -3.3440  411.4230 O.3   2001  COA2001    -0.2131
     38  C9P       12.6110   -1.9940  409.3940 C.2   2001  COA2001     0.2719
     39  O9P       11.4450   -1.6360  409.3940 O.2   2001  COA2001    -0.2706
     40  N8P       13.4120   -2.0330  408.2880 N.am  2001  COA2001    -0.2028
     41  C7P       13.0170   -1.6520  406.9250 C.3   2001  COA2001     0.1248
     42  C6P       12.8240   -2.8670  405.9750 C.3   2001  COA2001     0.1102
     43  C5P       12.2750   -2.5020  404.5780 C.2   2001  COA2001     0.2432
     44  O5P       11.2000   -1.9270  404.4490 O.2   2001  COA2001    -0.2733
     45  N4P       13.0510   -2.8360  403.5120 N.am  2001  COA2001    -0.2044
     46  C3P       12.6800   -2.5560  402.1290 C.3   2001  COA2001     0.1276
     47  C2P       13.6980   -3.1120  401.1290 C.3   2001  COA2001     0.0920
     48  S1P       13.3970   -2.5590  399.4410 S.3   2001  COA2001    -0.0802
@<TRIPOS>BOND
     1    48    47    1
     2    47    46    1
     3    46    45    1
     4    45    43   am
     5    44    43    2
     6    43    42    1
     7    42    41    1
     8    41    40    1
     9    40    38   am
    10    39    38    2
    11    38    36    1
    12    36    37    1
    13    36    32    1
    14    35    32    1
    15    32    34    1
    16    32    33    1
    17    31    33    1
    18    31    28    1
    19    29    28    2
    20    28    30    1
    21    28    27    1
    22    27    24    1
    23    26    24    2
    24    24    25    1
    25    24    23    1
    26    22    23    1
    27    22    20    1
    28    20    21    1
    29    20    14    1
    30    21    11    1
    31     8     9    1
    32     8     5    2
    33     9    10    1
    34     7     6    1
    35     5     6    1
    36     5     4    1
    37    10    11    1
    38    10     4    1
    39     6     1    2
    40    11    12    1
    41     4     3    2
    42    14    15    1
    43    14    12    1
    44     1     2    1
    45    15    16    1
    46     3     2    1
    47    12    13    1
    48    17    16    2
    49    16    19    1
    50    16    18    1
