@<TRIPOS>MOLECULE
1hvh_Q82_B_1.pdb
 44 48 0 0 0
SMALL
GASTEIGER

@<TRIPOS>ATOM
      1  N11       -7.7330   14.4990   28.2180 N.pl3 265  Q82265     -0.1346
      2  O4       -11.2400   18.8550   29.0110 O.3   265  Q82265     -0.2189
      3  O5        -9.3790   19.5570   27.1380 O.3   265  Q82265     -0.2189
      4  N7        -8.8930   15.9700   26.9000 N.3   265  Q82265     -0.2375
      5  N2        -9.5020   15.5750   29.1170 N.3   265  Q82265     -0.2375
      6  C1        -8.6900   15.3420   28.0700 C.3   265  Q82265      0.2282
      7  C2        -9.4320   14.7210   30.3120 C.3   265  Q82265      0.1016
      8  C3       -10.5910   16.5490   29.0450 C.3   265  Q82265      0.0978
      9  C4       -10.1740   17.9870   28.7120 C.3   265  Q82265      0.1983
     10  C5        -9.7940   18.2200   27.2600 C.3   265  Q82265      0.1983
     11  C6        -8.6070   17.3900   26.8210 C.3   265  Q82265      0.0978
     12  C7        -9.3460   15.2930   25.6750 C.3   265  Q82265      0.1016
     13  C20       -9.7070   15.4360   31.6190 C.ar  265  Q82265     -0.0061
     14  C21       -8.8250   16.4080   32.0800 C.ar  265  Q82265     -0.0032
     15  C22       -8.9710   16.9290   33.3620 C.ar  265  Q82265     -0.0020
     16  C23      -10.0620   16.4300   34.2300 C.ar  265  Q82265      0.0106
     17  C24      -10.9210   15.4600   33.7280 C.ar  265  Q82265     -0.0020
     18  C25      -10.7260   14.9660   32.4490 C.ar  265  Q82265     -0.0032
     19  C31      -11.6470   15.9100   28.1290 C.3   265  Q82265      0.0451
     20  C32      -12.2980   14.7000   28.7690 C.ar  265  Q82265     -0.0207
     21  C33      -12.0530   13.3850   28.3830 C.ar  265  Q82265     -0.0042
     22  C34      -12.6890   12.2550   28.8830 C.ar  265  Q82265     -0.0003
     23  C35      -13.6660   12.4320   29.8470 C.ar  265  Q82265     -0.0000
     24  C36      -13.9490   13.7290   30.2650 C.ar  265  Q82265     -0.0003
     25  C37      -13.2860   14.8480   29.7470 C.ar  265  Q82265     -0.0042
     26  C61       -7.3650   17.6340   27.6830 C.3   265  Q82265      0.0451
     27  C62       -6.1910   18.1030   26.8580 C.ar  265  Q82265     -0.0207
     28  C63       -6.3830   19.0850   25.8940 C.ar  265  Q82265     -0.0042
     29  C64       -5.4500   19.2490   24.8740 C.ar  265  Q82265     -0.0003
     30  C65       -4.3210   18.4380   24.8280 C.ar  265  Q82265     -0.0000
     31  C66       -4.1240   17.4530   25.7890 C.ar  265  Q82265     -0.0003
     32  C67       -5.0590   17.2890   26.8070 C.ar  265  Q82265     -0.0042
     33  C70       -8.7730   15.8140   24.3550 C.ar  265  Q82265     -0.0061
     34  C71       -7.5240   16.1300   24.1720 C.ar  265  Q82265     -0.0032
     35  C72       -6.9910   16.6000   22.9740 C.ar  265  Q82265     -0.0020
     36  C73       -7.8840   16.7530   21.8110 C.ar  265  Q82265      0.0106
     37  C74       -9.2130   16.4150   22.0240 C.ar  265  Q82265     -0.0020
     38  C75       -9.6460   15.9480   23.2680 C.ar  265  Q82265     -0.0032
     39  C12       -7.1450   13.9590   27.2000 C.1   265  Q82265      0.1909
     40  N13       -6.6260   13.4560   26.2810 N.1   265  Q82265     -0.1725
     41  C76       -7.3980   17.2570   20.4840 C.3   265  Q82265      0.2086
     42  C26      -10.2490   16.9680   35.6200 C.3   265  Q82265      0.2086
     43  O76       -5.9890   17.1720   20.3320 O.3   265  Q82265     -0.2152
     44  O26      -11.2680   16.2950   36.3510 O.3   265  Q82265     -0.2152
@<TRIPOS>BOND
     1    43    41    1
     2    41    36    1
     3    36    37   ar
     4    36    35   ar
     5    37    38   ar
     6    35    34   ar
     7    38    33   ar
     8    34    33   ar
     9    33    12    1
    10    30    29   ar
    11    30    31   ar
    12    29    28   ar
    13    12     4    1
    14    31    32   ar
    15    28    27   ar
    16    40    39    3
    17    32    27   ar
    18    11     4    1
    19    11    10    1
    20    11    26    1
    21    27    26    1
    22     4     6    1
    23     3    10    1
    24    39     1    1
    25    10     9    1
    26     6     1    1
    27     6     5    1
    28    19    20    1
    29    19     8    1
    30    21    20   ar
    31    21    22   ar
    32     9     2    1
    33     9     8    1
    34    20    25   ar
    35    22    23   ar
    36     8     5    1
    37     5     7    1
    38    25    24   ar
    39    23    24   ar
    40     7    13    1
    41    13    14   ar
    42    13    18   ar
    43    14    15   ar
    44    18    17   ar
    45    15    16   ar
    46    17    16   ar
    47    16    42    1
    48    42    44    1
