@<TRIPOS>MOLECULE
1hvr_XK2_A_1.pdb
 46 52 0 0 0
SMALL
GASTEIGER

@<TRIPOS>ATOM
      1  C1        -8.6110   15.0600   27.9540 C.2   263  XK2263      0.3077
      2  O1        -7.9390   14.0390   27.9410 O.2   263  XK2263     -0.2523
      3  N2        -8.4610   15.9230   26.9050 N.am  263  XK2263     -0.2586
      4  C2        -7.8540   15.3510   25.6960 C.3   263  XK2263      0.1217
      5  C3        -8.6270   17.3880   27.0110 C.3   263  XK2263      0.1144
      6  C4       -10.0290   17.9100   27.2980 C.3   263  XK2263      0.2021
      7  O4        -9.9290   19.2740   26.9980 O.3   263  XK2263     -0.2186
      8  C5       -10.4610   17.6450   28.7330 C.3   263  XK2263      0.2021
      9  O5       -11.6920   18.2540   29.0200 O.3   263  XK2263     -0.2186
     10  C6       -10.6570   16.1520   28.9640 C.3   263  XK2263      0.1144
     11  N7        -9.4610   15.2940   29.0040 N.am  263  XK2263     -0.2586
     12  C7        -9.2710   14.4910   30.2150 C.3   263  XK2263      0.1217
     13  C20       -8.3810   15.7300   24.3360 C.ar  263  XK2263     -0.0023
     14  C21       -9.7690   15.7120   24.0220 C.ar  263  XK2263     -0.0026
     15  C22      -10.1950   15.9190   22.6940 C.ar  263  XK2263     -0.0003
     16  C23       -9.2190   16.1520   21.6930 C.ar  263  XK2263     -0.0000
     17  C24       -9.6080   16.3040   20.3490 C.ar  263  XK2263     -0.0000
     18  C25       -8.6260   16.5080   19.3490 C.ar  263  XK2263     -0.0000
     19  C26       -7.2630   16.5620   19.6620 C.ar  263  XK2263     -0.0000
     20  C27       -6.8600   16.4030   21.0060 C.ar  263  XK2263     -0.0000
     21  C28       -7.8280   16.1920   22.0220 C.ar  263  XK2263     -0.0003
     22  C29       -7.4080   15.9830   23.3460 C.ar  263  XK2263     -0.0026
     23  C31       -7.4760   17.9720   27.8940 C.3   263  XK2263      0.0489
     24  C32       -6.1240   17.8900   27.1930 C.ar  263  XK2263     -0.0204
     25  C33       -5.2260   16.8260   27.4940 C.ar  263  XK2263     -0.0042
     26  C34       -4.0290   16.6670   26.7500 C.ar  263  XK2263     -0.0003
     27  C35       -3.7300   17.5850   25.7230 C.ar  263  XK2263     -0.0000
     28  C36       -4.6070   18.6600   25.4320 C.ar  263  XK2263     -0.0003
     29  C37       -5.8030   18.8110   26.1630 C.ar  263  XK2263     -0.0042
     30  C61      -11.7120   15.4510   28.0790 C.3   263  XK2263      0.0489
     31  C62      -12.3100   14.2480   28.7790 C.ar  263  XK2263     -0.0204
     32  C63      -13.1670   14.4220   29.8980 C.ar  263  XK2263     -0.0042
     33  C64      -13.7000   13.2810   30.5420 C.ar  263  XK2263     -0.0003
     34  C65      -13.3740   11.9820   30.0580 C.ar  263  XK2263     -0.0000
     35  C66      -12.5290   11.8140   28.9440 C.ar  263  XK2263     -0.0003
     36  C67      -11.9920   12.9540   28.3040 C.ar  263  XK2263     -0.0042
     37  C70       -9.3740   15.1480   31.5710 C.ar  263  XK2263     -0.0023
     38  C71      -10.2280   14.4920   32.4770 C.ar  263  XK2263     -0.0026
     39  C72      -10.2720   14.9260   33.8000 C.ar  263  XK2263     -0.0003
     40  C73      -11.1560   14.2820   34.7090 C.ar  263  XK2263     -0.0000
     41  C74      -11.2450   14.7480   36.0440 C.ar  263  XK2263     -0.0000
     42  C75      -10.4350   15.8370   36.4510 C.ar  263  XK2263     -0.0000
     43  C76       -9.5400   16.4750   35.5530 C.ar  263  XK2263     -0.0000
     44  C77       -9.4550   16.0280   34.2120 C.ar  263  XK2263     -0.0000
     45  C78       -8.6050   16.6910   33.2880 C.ar  263  XK2263     -0.0003
     46  C79       -8.5740   16.2520   31.9620 C.ar  263  XK2263     -0.0026
@<TRIPOS>BOND
     1    18    19   ar
     2    18    17   ar
     3    19    20   ar
     4    17    16   ar
     5    20    21   ar
     6    16    21   ar
     7    16    15   ar
     8    21    22   ar
     9    15    14   ar
    10    22    13   ar
    11    14    13   ar
    12    13     4    1
    13    28    27   ar
    14    28    29   ar
    15     4     3    1
    16    27    26   ar
    17    29    24   ar
    18    26    25   ar
    19     3     5    1
    20     3     1   am
    21     7     6    1
    22     5     6    1
    23     5    23    1
    24    24    25   ar
    25    24    23    1
    26     6     8    1
    27     2     1    2
    28     1    11   am
    29    30    31    1
    30    30    10    1
    31    36    31   ar
    32    36    35   ar
    33     8    10    1
    34     8     9    1
    35    31    32   ar
    36    35    34   ar
    37    10    11    1
    38    11    12    1
    39    32    33   ar
    40    34    33   ar
    41    12    37    1
    42    37    46   ar
    43    37    38   ar
    44    46    45   ar
    45    38    39   ar
    46    45    44   ar
    47    39    44   ar
    48    39    40   ar
    49    44    43   ar
    50    40    41   ar
    51    43    42   ar
    52    41    42   ar
