@<TRIPOS>MOLECULE
1hvy_D16_A_1.pdb
 32 34 0 0 0
SMALL
GASTEIGER

@<TRIPOS>ATOM
      1  N1        -0.3080    6.6200   19.3640 N.2   414  D16414     -0.3460
      2  C2        -1.6030    6.6600   18.9260 C.1   414  D16414      0.1266
      3  CM2       -2.6410    5.8470   19.5660 C.3   414  D16414      0.1438
      4  N3        -1.9470    7.4590   17.8800 N.2   414  D16414     -0.2706
      5  C4        -1.0230    8.2410   17.2540 C.1   414  D16414      0.2162
      6  O4        -1.4230    9.0040   16.1900 O.2   414  D16414     -0.2085
      7  C4A        0.3250    8.2490   17.6810 C.2   414  D16414      0.1216
      8  C5         1.3180    9.0650   17.0900 C.2   414  D16414      0.0121
      9  C6         2.6760    9.0370   17.5790 C.2   414  D16414     -0.0054
     10  C7         3.0090    8.1690   18.6550 C.2   414  D16414     -0.0212
     11  C8         2.0100    7.3490   19.2550 C.3   414  D16414      0.0864
     12  C8A        0.6580    7.3820   18.7820 C.2   414  D16414      0.1373
     13  C9         3.7660    9.9050   17.0090 C.3   414  D16414      0.1178
     14  N10        3.3900   10.8370   15.9090 N.pl3 414  D16414     -0.2969
     15  C11        1.0690   13.7040   17.0850 C.ar  414  D16414      0.0856
     16  S13        1.8900   12.3420   17.6620 S.2   414  D16414     -0.0677
     17  C14        2.5740   11.9240   16.1210 C.ar  414  D16414      0.0787
     18  C15        2.1710   12.8340   15.1590 C.ar  414  D16414      0.0219
     19  C16        1.2730   13.8930   15.7400 C.ar  414  D16414      0.0129
     20  C          0.2530   14.5550   17.9120 C.2   414  D16414      0.2713
     21  O          0.1360   14.2850   19.1140 O.2   414  D16414     -0.2678
     22  N         -0.3490   15.6000   17.3470 N.am  414  D16414     -0.1914
     23  CA        -1.2180   16.5590   18.0520 C.3   414  D16414      0.1986
     24  CB        -0.5640   17.8810   18.3990 C.3   414  D16414      0.0451
     25  CG        -0.6590   18.4840   19.7620 C.3   414  D16414      0.1164
     26  CD         0.4540   19.5100   19.8900 C.2   414  D16414      0.3649
     27  OE1        1.4720   19.2220   20.5240 O.co2 414  D16414     -0.2457
     28  OE2        0.3280   20.6200   19.3580 O.co2 414  D16414     -0.2457
     29  CT        -2.3990   16.8470   17.1360 C.2   414  D16414      0.3842
     30  O1        -2.2490   16.7750   15.8980 O.co2 414  D16414     -0.2437
     31  O2        -3.4760   17.1360   17.6490 O.co2 414  D16414     -0.2437
     32  CP1        3.9310   10.5450   14.5740 C.3   414  D16414      0.1129
@<TRIPOS>BOND
     1    32    14    1
     2    18    19   ar
     3    18    17   ar
     4    19    15   ar
     5    30    29   ar
     6    14    17    1
     7    14    13    1
     8    17    16   ar
     9     6     5    2
    10    13     9    1
    11    15    16   ar
    12    15    20    1
    13     8     9    1
    14     8     7    2
    15    29    31   ar
    16    29    23    1
    17     5     7    1
    18     5     4    2
    19    22    20   am
    20    22    23    1
    21     9    10    2
    22     7    12    1
    23     4     2    2
    24    20    21    2
    25    23    24    1
    26    24    25    1
    27    10    11    1
    28    12    11    1
    29    12     1    2
    30     2     1    2
    31     2     3    1
    32    28    26   ar
    33    25    26    1
    34    26    27   ar
