@<TRIPOS>MOLECULE
1hvy_UMP_A_1.pdb
 20 21 0 0 0
SMALL
GASTEIGER

@<TRIPOS>ATOM
      1  N1         0.0230    5.9780   14.2700 N.am  314  UMP314     -0.2018
      2  C2        -0.3210    6.8900   13.2760 C.1   314  UMP314      0.2802
      3  N3         0.7390    7.5520   12.6890 N.2   314  UMP314     -0.2497
      4  C4         2.0620    7.4760   13.1200 C.1   314  UMP314      0.1941
      5  C5         2.4030    6.5040   14.1060 C.3   314  UMP314      0.1579
      6  C6         1.4450    5.5270   14.5340 C.3   314  UMP314      0.1249
      7  O2        -1.4790    7.1030   12.9200 O.2   314  UMP314     -0.1922
      8  O4         2.9130    8.2270   12.6570 O.2   314  UMP314     -0.2133
      9  C1'       -1.0220    5.4120   15.1200 C.3   314  UMP314      0.2048
     10  C2'       -1.6930    4.1590   14.6300 C.3   314  UMP314      0.0871
     11  C3'       -2.1260    3.4220   15.9010 C.3   314  UMP314      0.1857
     12  C4'       -1.0770    3.7320   16.7940 C.3   314  UMP314      0.1774
     13  O3'       -3.3750    3.9770   16.3890 O.3   314  UMP314     -0.2203
     14  O4'       -0.6410    5.0710   16.4030 O.3   314  UMP314     -0.3342
     15  C5'        0.1280    2.8100   16.7540 C.3   314  UMP314      0.1858
     16  O5'       -0.3200    1.5560   17.3250 O.3   314  UMP314     -0.2675
     17  P         -0.1230    0.1350   16.6910 P.3   314  UMP314      0.5327
     18  OP1       -0.7620   -0.8230   17.6100 O.3   314  UMP314     -0.1145
     19  OP2       -0.8020    0.0970   15.4000 O.2   314  UMP314     -0.2224
     20  OP3        1.2970   -0.1670   16.6000 O.3   314  UMP314     -0.1145
@<TRIPOS>BOND
     1     8     4    2
     2     3     4    2
     3     3     2    2
     4     7     2    2
     5     4     5    1
     6     2     1   am
     7     5     6    1
     8     1     6    1
     9     1     9    1
    10    10     9    1
    11    10    11    1
    12     9    14    1
    13    19    17    2
    14    11    13    1
    15    11    12    1
    16    14    12    1
    17    20    17    1
    18    17    16    1
    19    17    18    1
    20    15    12    1
    21    15    16    1
