@<TRIPOS>MOLECULE
1hw5_CMP_A_1.pdb
 22 25 0 0 0
SMALL
GASTEIGER

@<TRIPOS>ATOM
      1  P          7.0330    5.4250   51.0780 P.3   210  CMP210      0.2141
      2  O1P        7.3940    6.5080   50.0930 O.2   210  CMP210     -0.5172
      3  O2P        6.7610    6.0260   52.4080 O.3   210  CMP210     -0.4373
      4  O5'        5.7720    4.7330   50.5990 O.3   210  CMP210     -0.3114
      5  C5'        5.8320    4.0820   49.3120 C.3   210  CMP210      0.1812
      6  C4'        6.8750    3.0140   49.5980 C.3   210  CMP210      0.1793
      7  O4'        7.1440    2.2100   48.4410 O.3   210  CMP210     -0.3136
      8  C3'        8.2230    3.6740   49.8940 C.3   210  CMP210      0.1884
      9  O3'        8.0770    4.3250   51.1550 O.3   210  CMP210     -0.3111
     10  C2'        9.1370    2.4690   49.7180 C.3   210  CMP210      0.2541
     11  O2'        8.8300    1.4140   50.5770 O.3   210  CMP210     -0.2131
     12  C1'        8.5660    2.2030   48.2770 C.3   210  CMP210      0.3185
     13  N9         9.5190    2.2610   47.0280 N.pl3 210  CMP210     -0.1439
     14  C8         9.5250    3.5010   46.3520 C.3   210  CMP210      0.3377
     15  N7        10.3120    3.5560   45.3160 N.2   210  CMP210     -0.2095
     16  C5        10.8570    2.2910   45.3010 C.2   210  CMP210      0.2526
     17  C6        11.7870    1.6510   44.4570 C.2   210  CMP210      0.4393
     18  N6        12.3470    2.2580   43.4130 N.pl3 210  CMP210      0.2180
     19  N1        12.0440    0.3710   44.8180 N.2   210  CMP210      0.0021
     20  C2        11.5250   -0.3180   45.8520 C.3   210  CMP210      0.5254
     21  N3        10.6350    0.2270   46.6970 N.2   210  CMP210     -0.0055
     22  C4        10.4210    1.4780   46.2960 C.2   210  CMP210      0.3518
@<TRIPOS>BOND
     1    18    17    1
     2    17    19    2
     3    17    16    1
     4    19    20    1
     5    16    15    2
     6    16    22    1
     7    15    14    1
     8    20    21    1
     9    22    21    2
    10    22    13    1
    11    14    13    1
    12    13    12    1
    13    12     7    1
    14    12    10    1
    15     7     6    1
    16     5     6    1
    17     5     4    1
    18     6     8    1
    19    10     8    1
    20    10    11    1
    21     8     9    1
    22     2     1    2
    23     4     1    1
    24     1     9    1
    25     1     3    1
