@<TRIPOS>MOLECULE
1hw8_114_A_1.pdb
 29 30 0 0 0
SMALL
GASTEIGER

@<TRIPOS>ATOM
      1  O1A       22.4300  -17.1290   16.6000 O.co2   2  1142       -0.2456
      2  O1B       20.2730  -17.8810   16.7210 O.co2   2  1142       -0.2456
      3  O3        22.9000  -20.2850   15.0620 O.3     2  1142       -0.2225
      4  O5        21.7170  -22.1620   11.5700 O.3     2  1142       -0.2231
      5  O14       18.8660  -25.2840   16.3630 O.3     2  1142       -0.4516
      6  O18       21.1610  -25.5550   16.6930 O.2     2  1142       -0.2501
      7  C1        21.3330  -17.7760   16.1020 C.2     2  1142        0.3674
      8  C2        21.5520  -18.3230   14.6680 C.3     2  1142        0.1469
      9  C3        21.6430  -19.8530   14.5230 C.3     2  1142        0.1658
     10  C4        21.5760  -20.2910   13.0400 C.3     2  1142        0.0663
     11  C5        21.3160  -21.7990   12.8680 C.3     2  1142        0.1546
     12  C6        19.8410  -22.1420   13.0340 C.3     2  1142        0.0330
     13  C7        19.5960  -23.6230   13.3820 C.3     2  1142        0.0031
     14  C8        18.1260  -23.9410   13.7790 C.3     2  1142        0.0079
     15  C9        17.0440  -23.3900   12.7680 C.3     2  1142        0.0048
     16  C10       15.6310  -23.7600   13.2610 C.3     2  1142        0.0257
     17  C11       15.3660  -24.8230   14.0660 C.2     2  1142       -0.0303
     18  C12       16.3390  -25.6710   14.5230 C.2     2  1142       -0.0236
     19  C17       15.9900  -26.7170   15.3290 C.2     2  1142       -0.0089
     20  C16       16.9830  -27.7330   15.9210 C.2     2  1142       -0.0227
     21  C15       18.4620  -27.5690   15.4610 C.3     2  1142        0.0699
     22  C14       18.8480  -26.0890   15.1520 C.3     2  1142        0.1770
     23  C13       17.8430  -25.4500   14.1400 C.3     2  1142        0.0624
     24  C9A       17.1750  -23.9600   11.3380 C.3     2  1142        0.0004
     25  C18       20.0620  -25.0890   17.0330 C.2     2  1142        0.3163
     26  C19       19.8610  -24.1970   18.2820 C.3     2  1142        0.0991
     27  C20       18.3820  -24.1800   18.8020 C.3     2  1142        0.0111
     28  C21       18.0340  -25.0890   20.0190 C.3     2  1142        0.0006
     29  C22       20.8890  -24.4750   19.4000 C.3     2  1142        0.0116
@<TRIPOS>BOND
     1    24    15    1
     2     4    11    1
     3    15    16    1
     4    15    14    1
     5    11    12    1
     6    11    10    1
     7    12    13    1
     8    10     9    1
     9    16    17    1
    10    13    14    1
    11    14    23    1
    12    17    18    2
    13    23    18    1
    14    23    22    1
    15     9     8    1
    16     9     3    1
    17    18    19    1
    18     8     7    1
    19    22    21    1
    20    22     5    1
    21    19    20    2
    22    21    20    1
    23     7     1   ar
    24     7     2   ar
    25     5    25    1
    26     6    25    2
    27    25    26    1
    28    26    27    1
    29    26    29    1
    30    27    28    1
