@<TRIPOS>MOLECULE
1hw8_ADP_B_1.pdb
 27 29 0 0 0
SMALL
GASTEIGER

@<TRIPOS>ATOM
      1  PB         4.9920  -33.3630   13.8470 P.3   101  ADP101      0.5373
      2  O1B        5.7880  -34.5260   14.4210 O.3   101  ADP101     -0.1143
      3  O2B        5.7560  -32.6370   12.6900 O.2   101  ADP101     -0.2221
      4  O3B        3.5790  -33.7360   13.4420 O.3   101  ADP101     -0.1143
      5  PA         5.7700  -30.9590   15.2860 P.3   101  ADP101      0.2231
      6  O1A        7.1710  -31.4450   15.5360 O.2   101  ADP101     -0.5169
      7  O2A        5.1320  -30.2010   16.3800 O.3   101  ADP101     -0.4370
      8  O3A        4.8270  -32.2370   14.9200 O.3   101  ADP101     -0.2261
      9  O5'        5.7940  -30.1040   13.9310 O.3   101  ADP101     -0.3111
     10  C5'        4.5520  -29.5490   13.4190 C.3   101  ADP101      0.1813
     11  C4'        4.7650  -28.7560   12.1500 C.3   101  ADP101      0.1821
     12  O4'        6.2420  -28.7180   11.8930 O.3   101  ADP101     -0.3135
     13  C3'        4.1700  -29.3860   10.9020 C.3   101  ADP101      0.2184
     14  O3'        2.8850  -28.7940   10.6270 O.3   101  ADP101     -0.2174
     15  C2'        5.1710  -28.9700    9.7560 C.3   101  ADP101      0.2570
     16  O2'        4.8700  -27.6590    9.1880 O.3   101  ADP101     -0.2130
     17  C1'        6.5260  -28.8400   10.5010 C.3   101  ADP101      0.3186
     18  N9         7.4580  -30.0520   10.3180 N.pl3 101  ADP101     -0.1439
     19  C8         7.8880  -30.8660   11.2720 C.3   101  ADP101      0.3377
     20  N7         8.6570  -31.7880   10.8280 N.2   101  ADP101     -0.2095
     21  C5         8.7420  -31.5620    9.4590 C.2   101  ADP101      0.2526
     22  C6         9.4330  -32.2080    8.3710 C.2   101  ADP101      0.4393
     23  N6        10.2280  -33.3120    8.5300 N.pl3 101  ADP101      0.2180
     24  N1         9.2750  -31.6910    7.1440 N.2   101  ADP101      0.0021
     25  C2         8.5110  -30.6270    6.9850 C.3   101  ADP101      0.5254
     26  N3         7.8370  -29.9620    7.9180 N.2   101  ADP101     -0.0055
     27  C4         7.9960  -30.4760    9.1400 C.2   101  ADP101      0.3518
@<TRIPOS>BOND
     1    25    24    1
     2    25    26    1
     3    24    22    2
     4    26    27    2
     5    22    23    1
     6    22    21    1
     7    27    21    1
     8    27    18    1
     9    16    15    1
    10    21    20    2
    11    15    17    1
    12    15    13    1
    13    18    17    1
    14    18    19    1
    15    17    12    1
    16    14    13    1
    17    20    19    1
    18    13    11    1
    19    12    11    1
    20    11    10    1
    21     3     1    2
    22    10     9    1
    23     4     1    1
    24     1     2    1
    25     1     8    1
    26     9     5    1
    27     8     5    1
    28     5     6    2
    29     5     7    1
