@<TRIPOS>MOLECULE
1hw9_ADP_A_1.pdb
 27 29 0 0 0
SMALL
GASTEIGER

@<TRIPOS>ATOM
      1  PB        -9.7540   -4.3330  -22.3180 P.3   102  ADP102      0.5373
      2  O1B      -10.6730   -4.3570  -21.0950 O.3   102  ADP102     -0.1143
      3  O2B       -9.9200   -5.6040  -23.2300 O.2   102  ADP102     -0.2221
      4  O3B       -9.8620   -3.0410  -23.1180 O.3   102  ADP102     -0.1143
      5  PA        -7.0840   -3.2620  -21.7140 P.3   102  ADP102      0.2231
      6  O1A       -6.9620   -2.4620  -22.9880 O.2   102  ADP102     -0.5169
      7  O2A       -5.8360   -3.8950  -21.2340 O.3   102  ADP102     -0.4370
      8  O3A       -8.2440   -4.4140  -21.8720 O.3   102  ADP102     -0.2261
      9  O5'       -7.7300   -2.2930  -20.6100 O.3   102  ADP102     -0.3111
     10  C5'       -8.0150   -2.8040  -19.2830 C.3   102  ADP102      0.1813
     11  C4'       -7.7200   -1.7720  -18.2300 C.3   102  ADP102      0.1821
     12  O4'       -6.2590   -1.8900  -17.9200 O.3   102  ADP102     -0.3135
     13  C3'       -7.8990   -0.3260  -18.6790 C.3   102  ADP102      0.2184
     14  O3'       -9.2090    0.1510  -18.3000 O.3   102  ADP102     -0.2174
     15  C2'       -6.8170    0.4510  -17.8350 C.3   102  ADP102      0.2570
     16  O2'       -7.2800    0.8060  -16.4900 O.3   102  ADP102     -0.2130
     17  C1'       -5.6840   -0.6040  -17.6760 C.3   102  ADP102      0.3186
     18  N9        -4.5110   -0.4190  -18.6540 N.pl3 102  ADP102     -0.1439
     19  C8        -4.1780   -1.2340  -19.6480 C.3   102  ADP102      0.3377
     20  N7        -3.1500   -0.8270  -20.3010 N.2   102  ADP102     -0.2095
     21  C5        -2.7690    0.3650  -19.6800 C.2   102  ADP102      0.2526
     22  C6        -1.7070    1.3340  -19.8970 C.2   102  ADP102      0.4393
     23  N6        -0.7650    1.2220  -20.8940 N.pl3 102  ADP102      0.2180
     24  N1        -1.6520    2.3950  -19.0680 N.2   102  ADP102      0.0021
     25  C2        -2.5520    2.5140  -18.1040 C.3   102  ADP102      0.5254
     26  N3        -3.5630    1.6800  -17.8250 N.2   102  ADP102     -0.0055
     27  C4        -3.6190    0.6200  -18.6510 C.2   102  ADP102      0.3518
@<TRIPOS>BOND
     1     3     1    2
     2     4     1    1
     3     6     5    2
     4     1     8    1
     5     1     2    1
     6     8     5    1
     7     5     7    1
     8     5     9    1
     9    23    22    1
    10     9    10    1
    11    20    21    2
    12    20    19    1
    13    22    21    1
    14    22    24    2
    15    21    27    1
    16    19    18    1
    17    10    11    1
    18    24    25    1
    19    13    14    1
    20    13    11    1
    21    13    15    1
    22    18    27    1
    23    18    17    1
    24    27    26    2
    25    11    12    1
    26    25    26    1
    27    12    17    1
    28    15    17    1
    29    15    16    1
