@<TRIPOS>MOLECULE
1hw9_SIM_A_1.pdb
 31 32 0 0 0
SMALL
GASTEIGER

@<TRIPOS>ATOM
      1  O1A        2.9910  -12.1410   -6.4140 O.co2   4  SIM4       -0.2456
      2  O1B        4.9550  -13.0410   -5.8050 O.co2   4  SIM4       -0.2456
      3  O3         6.5530  -11.0970   -7.8740 O.3     4  SIM4       -0.2225
      4  O5         6.8800   -7.0260   -8.7990 O.3     4  SIM4       -0.2231
      5  O14        3.9440   -9.7270  -13.8540 O.3     4  SIM4       -0.4519
      6  O18        6.0390  -10.7330  -13.9060 O.2     4  SIM4       -0.2501
      7  C1         4.3020  -12.0700   -6.1070 C.2     4  SIM4        0.3674
      8  C2         4.8670  -10.6540   -6.1700 C.3     4  SIM4        0.1469
      9  C3         5.4610  -10.2550   -7.5370 C.3     4  SIM4        0.1658
     10  C4         5.9990   -8.8390   -7.5340 C.3     4  SIM4        0.0663
     11  C5         6.1700   -8.2460   -8.9290 C.3     4  SIM4        0.1546
     12  C6         4.8030   -7.9740   -9.5840 C.3     4  SIM4        0.0330
     13  C7         4.8500   -7.7310  -11.1180 C.3     4  SIM4        0.0034
     14  C8         3.4460   -7.6950  -11.8180 C.3     4  SIM4        0.0116
     15  C9         2.4310   -6.6860  -11.1490 C.3     4  SIM4        0.0224
     16  C10        1.0880   -6.7420  -11.9080 C.2     4  SIM4       -0.0268
     17  C11        0.9770   -7.0800  -13.2240 C.2     4  SIM4       -0.0091
     18  C12        2.0630   -7.4020  -13.9910 C.2     4  SIM4       -0.0236
     19  C17        1.8870   -7.7320  -15.3070 C.2     4  SIM4       -0.0305
     20  C16        3.0230   -8.1130  -16.2890 C.3     4  SIM4        0.0253
     21  C15        4.4520   -8.0630  -15.6480 C.3     4  SIM4        0.0483
     22  C14        4.4430   -8.3800  -14.1230 C.3     4  SIM4        0.1730
     23  C13        3.5050   -7.3940  -13.3700 C.3     4  SIM4        0.0624
     24  C9A        2.8890   -5.2130  -11.1760 C.3     4  SIM4        0.0047
     25  C18        4.8090  -10.8040  -13.7660 C.2     4  SIM4        0.3158
     26  C19        4.0320  -12.1460  -13.4550 C.3     4  SIM4        0.0896
     27  C20        4.5020  -12.7550  -12.0870 C.3     4  SIM4        0.0106
     28  C21        4.1410  -11.9990  -10.7830 C.3     4  SIM4        0.0006
     29  C22        4.2450  -13.1940  -14.5950 C.3     4  SIM4        0.0111
     30  C23        2.4880  -11.9380  -13.3850 C.3     4  SIM4        0.0111
     31  C24        2.7200   -9.5180  -16.8460 C.3     4  SIM4        0.0048
@<TRIPOS>BOND
     1    31    20    1
     2    20    21    1
     3    20    19    1
     4    21    22    1
     5    19    18    2
     6    29    26    1
     7    22     5    1
     8    22    23    1
     9    18    23    1
    10    18    17    1
    11     6    25    2
    12     5    25    1
    13    25    26    1
    14    26    30    1
    15    26    27    1
    16    23    14    1
    17    17    16    2
    18    27    28    1
    19    16    15    1
    20    14    15    1
    21    14    13    1
    22    24    15    1
    23    13    12    1
    24    12    11    1
    25    11     4    1
    26    11    10    1
    27     3     9    1
    28     9    10    1
    29     9     8    1
    30     1     7   ar
    31     8     7    1
    32     7     2   ar
