@<TRIPOS>MOLECULE
1hwi_115_A_1.pdb
 30 32 0 0 0
SMALL
GASTEIGER

@<TRIPOS>ATOM
      1  C10       18.4010  -24.9180   16.5060 C.ar    2  1152        0.0172
      2  C15       17.9490  -25.1160   15.2150 C.ar    2  1152        0.0598
      3  C14       16.7230  -25.7930   15.0000 C.ar    2  1152        0.0172
      4  C13       15.9800  -26.2550   16.1050 C.ar    2  1152        0.0015
      5  C12       16.4590  -26.0420   17.4160 C.ar    2  1152        0.0001
      6  C11       17.6720  -25.3710   17.6270 C.ar    2  1152        0.0015
      7  C8        19.7110  -24.1830   16.4580 C.ar    2  1152        0.0172
      8  C9        19.8850  -24.0340   15.1280 C.ar    2  1152        0.0596
      9  N1        18.7880  -24.6130   14.3630 N.ar    2  1152       -0.3291
     10  C83       21.8730  -24.2130   19.6180 C.ar    2  1152        0.0296
     11  C82       21.0480  -24.6580   18.5760 C.ar    2  1152        0.0024
     12  C81       20.5850  -23.7380   17.6190 C.ar    2  1152        0.0016
     13  C86       20.9500  -22.3800   17.7090 C.ar    2  1152        0.0024
     14  C85       21.7680  -21.9450   18.7450 C.ar    2  1152        0.0296
     15  C84       22.2310  -22.8600   19.6980 C.ar    2  1152        0.1401
     16  F1        23.0340  -22.4250   20.7080 F       2  1152       -0.2042
     17  O1B       23.3240  -17.1500   16.8110 O.co2   2  1152       -0.2456
     18  O1A       21.2130  -17.9530   17.0500 O.co2   2  1152       -0.2456
     19  O3        23.6280  -20.2010   15.3420 O.3     2  1152       -0.2224
     20  C1        22.3490  -17.7280   16.3490 C.2     2  1152        0.3674
     21  C2        22.2800  -18.2610   14.9270 C.3     2  1152        0.1469
     22  C3        22.3680  -19.7910   14.8180 C.3     2  1152        0.1661
     23  C4        22.2860  -20.2600   13.3610 C.3     2  1152        0.0709
     24  C5        22.3530  -21.7860   13.2180 C.3     2  1152        0.1766
     25  C6        21.0790  -22.4250   13.7070 C.2     2  1152        0.0077
     26  C7        20.9810  -23.3940   14.6150 C.2     2  1152        0.0151
     27  C91       18.6060  -24.3980   12.8520 C.3     2  1152        0.0856
     28  C92       18.5490  -25.7280   12.0780 C.3     2  1152        0.0245
     29  C93       17.3550  -23.5350   12.5500 C.3     2  1152        0.0245
     30  O5        22.5660  -22.0540   11.8620 O.3     2  1152       -0.2182
@<TRIPOS>BOND
     1    30    24    1
     2    28    27    1
     3    29    27    1
     4    27     9    1
     5    24    23    1
     6    24    25    1
     7    23    22    1
     8    25    26    2
     9     9     8   ar
    10     9     2   ar
    11    26     8    1
    12    22    21    1
    13    22    19    1
    14    21    20    1
    15     3     2   ar
    16     3     4   ar
    17     8     7   ar
    18     2     1   ar
    19     4     5   ar
    20    20    17   ar
    21    20    18   ar
    22     7     1   ar
    23     7    12    1
    24     1     6   ar
    25     5     6   ar
    26    12    13   ar
    27    12    11   ar
    28    13    14   ar
    29    11    10   ar
    30    14    15   ar
    31    10    15   ar
    32    15    16    1
