@<TRIPOS>MOLECULE
1hwi_ADP_B_1.pdb
 27 29 0 0 0
SMALL
GASTEIGER

@<TRIPOS>ATOM
      1  PB        46.1070  -12.0230  -22.2470 P.3   101  ADP101      0.5373
      2  O1B       46.9970  -11.9730  -21.0190 O.3   101  ADP101     -0.1143
      3  O2B       46.2200  -10.7370  -23.1330 O.2   101  ADP101     -0.2221
      4  O3B       46.2970  -13.2840  -23.0600 O.3   101  ADP101     -0.1143
      5  PA        43.5080  -13.2390  -21.7030 P.3   101  ADP101      0.2231
      6  O1A       43.4440  -14.0120  -22.9950 O.2   101  ADP101     -0.5169
      7  O2A       42.2300  -12.6780  -21.2250 O.3   101  ADP101     -0.4370
      8  O3A       44.6010  -12.0290  -21.8210 O.3   101  ADP101     -0.2261
      9  O5'       44.1880  -14.2010  -20.6090 O.3   101  ADP101     -0.3111
     10  C5'       44.4270  -13.7030  -19.2670 C.3   101  ADP101      0.1813
     11  C4'       44.3530  -14.8020  -18.2340 C.3   101  ADP101      0.1821
     12  O4'       42.9230  -14.8920  -17.8020 O.3   101  ADP101     -0.3135
     13  C3'       44.6740  -16.2050  -18.7390 C.3   101  ADP101      0.2184
     14  O3'       46.0600  -16.5100  -18.5040 O.3   101  ADP101     -0.2174
     15  C2'       43.8060  -17.1240  -17.8010 C.3   101  ADP101      0.2570
     16  O2'       44.4290  -17.3690  -16.5030 O.3   101  ADP101     -0.2130
     17  C1'       42.5610  -16.2480  -17.5380 C.3   101  ADP101      0.3186
     18  N9        41.3660  -16.5870  -18.4320 N.pl3 101  ADP101     -0.1439
     19  C8        40.9580  -15.9110  -19.5000 C.3   101  ADP101      0.3377
     20  N7        39.9200  -16.4270  -20.0480 N.2   101  ADP101     -0.2095
     21  C5        39.6190  -17.5440  -19.2670 C.2   101  ADP101      0.2526
     22  C6        38.5920  -18.5640  -19.3070 C.2   101  ADP101      0.4393
     23  N6        37.6020  -18.6070  -20.2610 N.pl3 101  ADP101      0.2180
     24  N1        38.6230  -19.5170  -18.3490 N.2   101  ADP101      0.0021
     25  C2        39.5710  -19.4890  -17.4250 C.3   101  ADP101      0.5254
     26  N3        40.5570  -18.5950  -17.3040 N.2   101  ADP101     -0.0055
     27  C4        40.5260  -17.6430  -18.2580 C.2   101  ADP101      0.3518
@<TRIPOS>BOND
     1     3     1    2
     2     4     1    1
     3     6     5    2
     4     1     8    1
     5     1     2    1
     6     8     5    1
     7     5     7    1
     8     5     9    1
     9     9    10    1
    10    23    22    1
    11    20    19    1
    12    20    21    2
    13    19    18    1
    14    22    21    1
    15    22    24    2
    16    10    11    1
    17    21    27    1
    18    13    14    1
    19    13    11    1
    20    13    15    1
    21    18    27    1
    22    18    17    1
    23    24    25    1
    24    27    26    2
    25    11    12    1
    26    12    17    1
    27    15    17    1
    28    15    16    1
    29    25    26    1
