@<TRIPOS>MOLECULE
1hwj_ADP_A_1.pdb
 27 29 0 0 0
SMALL
GASTEIGER

@<TRIPOS>ATOM
      1  PB        32.8400   16.5790   15.6280 P.3   101  ADP101      0.5373
      2  O1B       33.4080   17.9380   15.2140 O.3   101  ADP101     -0.1143
      3  O2B       33.2870   15.4210   14.6610 O.2   101  ADP101     -0.2221
      4  O3B       33.1160   16.2280   17.0860 O.3   101  ADP101     -0.1143
      5  PA        30.2260   16.9180   14.2640 P.3   101  ADP101      0.2231
      6  O1A       30.5300   18.2790   13.7010 O.2   101  ADP101     -0.5169
      7  O2A       28.8420   16.7170   14.7290 O.3   101  ADP101     -0.4370
      8  O3A       31.2580   16.5710   15.5000 O.3   101  ADP101     -0.2261
      9  O5'       30.6470   15.8410   13.1470 O.3   101  ADP101     -0.3111
     10  C5'       30.5170   14.4150   13.4130 C.3   101  ADP101      0.1813
     11  C4'       30.6870   13.5990   12.1490 C.3   101  ADP101      0.1821
     12  O4'       29.3250   13.5170   11.5510 O.3   101  ADP101     -0.3135
     13  C3'       31.5470   14.2570   11.0670 C.3   101  ADP101      0.2184
     14  O3'       32.8810   13.7030   11.0740 O.3   101  ADP101     -0.2174
     15  C2'       30.8450   13.8480    9.7180 C.3   101  ADP101      0.2570
     16  O2'       31.2890   12.5580    9.2010 O.3   101  ADP101     -0.2130
     17  C1'       29.3750   13.6710   10.1350 C.3   101  ADP101      0.3186
     18  N9        28.5250   14.8990    9.8140 N.pl3 101  ADP101     -0.1439
     19  C8        28.0570   15.7840   10.6820 C.3   101  ADP101      0.3377
     20  N7        27.3670   16.7100   10.1260 N.2   101  ADP101     -0.2095
     21  C5        27.3890   16.4000    8.7710 C.2   101  ADP101      0.2526
     22  C6        26.8170   17.0060    7.5980 C.2   101  ADP101      0.4393
     23  N6        26.0560   18.1480    7.6290 N.pl3 101  ADP101      0.2180
     24  N1        27.0570   16.4030    6.4210 N.2   101  ADP101      0.0021
     25  C2        27.7870   15.3010    6.3830 C.3   101  ADP101      0.5254
     26  N3        28.3520   14.6700    7.4100 N.2   101  ADP101     -0.0055
     27  C4        28.1120   15.2680    8.5780 C.2   101  ADP101      0.3518
@<TRIPOS>BOND
     1    25    24    1
     2    25    26    1
     3    24    22    2
     4    26    27    2
     5    22    23    1
     6    22    21    1
     7    27    21    1
     8    27    18    1
     9    21    20    2
    10    16    15    1
    11    15    17    1
    12    15    13    1
    13    18    17    1
    14    18    19    1
    15    20    19    1
    16    17    12    1
    17    13    14    1
    18    13    11    1
    19    12    11    1
    20    11    10    1
    21     9    10    1
    22     9     5    1
    23     6     5    2
    24     5     7    1
    25     5     8    1
    26     3     1    2
    27     2     1    1
    28     8     1    1
    29     1     4    1
