@<TRIPOS>MOLECULE
1hwj_116_A_1.pdb
 33 34 0 0 0
SMALL
GASTEIGER

@<TRIPOS>ATOM
      1  C14       18.7850   10.6690   19.5410 C.3     2  1162        0.1746
      2  O13       18.5490   10.5940   18.1110 O.3     2  1162       -0.3463
      3  C13       19.1340    9.4530   17.5130 C.3     2  1162        0.1706
      4  C15       21.0590   10.4280   15.3680 C.3     2  1162        0.0521
      5  C17       21.1690   11.8630   14.7700 C.3     2  1162        0.0074
      6  C16       22.2290    9.5780   14.8330 C.3     2  1162        0.0074
      7  C8        17.5000    8.7310   15.5990 C.2     2  1162       -0.0116
      8  C10       17.2550    8.6380   14.1870 C.3     2  1162        0.0918
      9  C9        18.2500    9.1200   13.2840 C.2     2  1162        0.0935
     10  N1        19.3660    9.6520   13.7580 N.2     2  1162       -0.4145
     11  C12       19.6620    9.7720   15.0380 C.2     2  1162        0.1058
     12  C11       18.7450    9.3180   16.0240 C.2     2  1162        0.0294
     13  C83       14.8960    8.6950   18.2550 C.ar    2  1162        0.0296
     14  C82       15.8470    9.1510   17.3560 C.ar    2  1162        0.0020
     15  C81       16.5460    8.2580   16.5150 C.ar    2  1162       -0.0033
     16  C86       16.2490    6.8790   16.6200 C.ar    2  1162        0.0020
     17  C85       15.2830    6.4270   17.5330 C.ar    2  1162        0.0296
     18  C84       14.6120    7.3450   18.3440 C.ar    2  1162        0.1401
     19  F1        13.6640    6.9220   19.2290 F       2  1162       -0.2042
     20  O1B       13.7800    1.8300   16.2830 O.co2   2  1162       -0.2456
     21  O1A       15.8600    2.7060   16.2770 O.co2   2  1162       -0.2456
     22  O3        13.3760    4.8130   14.5870 O.3     2  1162       -0.2224
     23  C1        14.6950    2.3990   15.6970 C.2     2  1162        0.3674
     24  C2        14.6480    2.8250   14.2450 C.3     2  1162        0.1469
     25  C3        14.6150    4.3540   14.0560 C.3     2  1162        0.1661
     26  C4        14.6960    4.7570   12.5660 C.3     2  1162        0.0709
     27  C5        14.6470    6.3030   12.2980 C.3     2  1162        0.1763
     28  C6        15.9060    6.9520   12.8260 C.2     2  1162        0.0023
     29  C7        15.9400    8.0050   13.6480 C.2     2  1162       -0.0175
     30  C91       18.1330    9.0580   11.7310 C.3     2  1162        0.0488
     31  C92       18.3730   10.4090   11.0330 C.3     2  1162        0.0071
     32  C93       19.1420    8.0290   11.1470 C.3     2  1162        0.0071
     33  O5        14.5070    6.4730   10.9050 O.3     2  1162       -0.2182
@<TRIPOS>BOND
     1    33    27    1
     2    31    30    1
     3    32    30    1
     4    30     9    1
     5    27    26    1
     6    27    28    1
     7    26    25    1
     8    28    29    2
     9     9    10    2
    10     9     8    1
    11    29     8    1
    12    10    11    2
    13    25    24    1
    14    25    22    1
    15     8     7    1
    16    24    23    1
    17     5     4    1
    18     6     4    1
    19    11     4    1
    20    11    12    1
    21     7    12    2
    22     7    15    1
    23    23    21   ar
    24    23    20   ar
    25    12     3    1
    26    15    16   ar
    27    15    14   ar
    28    16    17   ar
    29    14    13   ar
    30     3     2    1
    31    17    18   ar
    32     2     1    1
    33    13    18   ar
    34    18    19    1
