@<TRIPOS>MOLECULE
1hwk_117_A_1.pdb
 41 44 0 0 0
SMALL
GASTEIGER

@<TRIPOS>ATOM
      1  C17       19.2850    8.7450   18.3060 C.ar    2  1172        0.0000
      2  C12       19.4280    9.6420   17.2340 C.ar    2  1172        0.0016
      3  C13       20.0560   10.9120   17.5090 C.ar    2  1172        0.0000
      4  C14       20.5170   11.2300   18.8070 C.ar    2  1172        0.0000
      5  C15       20.3600   10.3090   19.8450 C.ar    2  1172        0.0000
      6  C16       19.7470    9.0730   19.5940 C.ar    2  1172        0.0000
      7  C83       14.9840    9.1390   18.2780 C.ar    2  1172        0.0297
      8  C82       15.9770    9.5550   17.3720 C.ar    2  1172        0.0037
      9  C81       16.6010    8.6110   16.5280 C.ar    2  1172        0.0159
     10  C86       16.1990    7.2440   16.6260 C.ar    2  1172        0.0037
     11  C85       15.2150    6.8430   17.5260 C.ar    2  1172        0.0297
     12  C84       14.6100    7.7920   18.3520 C.ar    2  1172        0.1401
     13  F1        13.6450    7.3940   19.2390 F       2  1172       -0.2042
     14  C8        17.6230    8.9140   15.5960 C.ar    2  1172        0.0597
     15  C19       22.6470   11.6230   14.0210 C.ar    2  1172        0.0737
     16  C20       22.8050   12.8280   13.3000 C.ar    2  1172        0.0166
     17  C21       24.0910   13.2790   12.9630 C.ar    2  1172        0.0013
     18  C22       25.2200   12.5350   13.3330 C.ar    2  1172        0.0001
     19  C23       25.0730   11.3440   14.0470 C.ar    2  1172        0.0013
     20  C24       23.7980   10.8860   14.3910 C.ar    2  1172        0.0166
     21  O1B       16.0640    2.6710   16.2150 O.co2   2  1172       -0.2456
     22  O1A       13.9480    1.9310   16.1450 O.co2   2  1172       -0.2456
     23  O3        13.5080    4.6970   14.4100 O.3     2  1172       -0.2225
     24  C1        15.0390    2.4550   15.6000 C.2     2  1172        0.3674
     25  C2        14.8710    2.7890   14.1540 C.3     2  1172        0.1469
     26  C3        14.7940    4.3010   14.0030 C.3     2  1172        0.1658
     27  C4        15.0130    4.7510   12.5910 C.3     2  1172        0.0664
     28  C5        15.0390    6.2770   12.4550 C.3     2  1172        0.1565
     29  C6        16.3780    6.8660   12.9140 C.3     2  1172        0.0574
     30  C7        16.2310    8.3210   13.4250 C.3     2  1172        0.1083
     31  N1        17.4580    8.7680   14.1820 N.ar    2  1172       -0.3304
     32  C10       18.9380    9.3690   15.9110 C.ar    2  1172        0.0213
     33  C11       19.6160    9.4620   14.6550 C.ar    2  1172        0.0684
     34  C18       21.0630    9.8400   14.3440 C.2     2  1172        0.2701
     35  N2        21.4830   11.1990   14.3060 N.am    2  1172       -0.1754
     36  O18       21.8400    8.9110   14.1040 O.2     2  1172       -0.2680
     37  C9        18.6930    9.1070   13.6290 C.ar    2  1172        0.0411
     38  C91       18.9000    9.0510   12.0680 C.3     2  1172        0.0385
     39  C93       19.3650   10.3940   11.4830 C.3     2  1172        0.0062
     40  C92       19.8820    7.9430   11.5970 C.3     2  1172        0.0062
     41  O5        14.8330    6.5710   11.0950 O.3     2  1172       -0.2230
@<TRIPOS>BOND
     1    41    28    1
     2    39    38    1
     3    40    38    1
     4    38    37    1
     5    28    27    1
     6    28    29    1
     7    27    26    1
     8    29    30    1
     9    17    16   ar
    10    17    18   ar
    11    16    15   ar
    12    18    19   ar
    13    30    31    1
    14    37    31   ar
    15    37    33   ar
    16    26    25    1
    17    26    23    1
    18    15    35    1
    19    15    20   ar
    20    19    20   ar
    21    36    34    2
    22    25    24    1
    23    31    14   ar
    24    35    34   am
    25    34    33    1
    26    33    32   ar
    27    14    32   ar
    28    14     9    1
    29    24    22   ar
    30    24    21   ar
    31    32     2    1
    32     9    10   ar
    33     9     8   ar
    34    10    11   ar
    35     2     3   ar
    36     2     1   ar
    37     8     7   ar
    38     3     4   ar
    39    11    12   ar
    40     7    12   ar
    41     1     6   ar
    42    12    13    1
    43     4     5   ar
    44     6     5   ar
