@<TRIPOS>MOLECULE
1hwk_ADP_A_1.pdb
 27 29 0 0 0
SMALL
GASTEIGER

@<TRIPOS>ATOM
      1  PB        29.9580   18.1790   12.9300 P.3   101  ADP101      0.5373
      2  O1B       28.4950   17.7920   13.0930 O.3   101  ADP101     -0.1143
      3  O2B       30.5900   17.6130   11.6050 O.2   101  ADP101     -0.2221
      4  O3B       30.2020   19.6760   13.0690 O.3   101  ADP101     -0.1143
      5  PA        30.5680   16.1940   15.0200 P.3   101  ADP101      0.2231
      6  O1A       29.2310   16.3390   15.7130 O.2   101  ADP101     -0.5169
      7  O2A       31.7390   16.0070   15.9060 O.3   101  ADP101     -0.4370
      8  O3A       30.8270   17.5070   14.0640 O.3   101  ADP101     -0.2261
      9  O5'       30.4410   14.9800   13.9560 O.3   101  ADP101     -0.3111
     10  C5'       31.5910   14.6680   13.1210 C.3   101  ADP101      0.1813
     11  C4'       31.2910   13.6800   12.0110 C.3   101  ADP101      0.1821
     12  O4'       29.8120   13.6750   11.7560 O.3   101  ADP101     -0.3135
     13  C3'       31.9200   14.0290   10.6660 C.3   101  ADP101      0.2184
     14  O3'       33.1850   13.3390   10.5210 O.3   101  ADP101     -0.2174
     15  C2'       30.9010   13.4440    9.6130 C.3   101  ADP101      0.2570
     16  O2'       31.1430   12.0400    9.2960 O.3   101  ADP101     -0.2130
     17  C1'       29.5410   13.5290   10.3560 C.3   101  ADP101      0.3186
     18  N9        28.6800   14.7110    9.9130 N.pl3 101  ADP101     -0.1439
     19  C8        28.1380   15.6240   10.7060 C.3   101  ADP101      0.3377
     20  N7        27.4620   16.5020   10.0630 N.2   101  ADP101     -0.2095
     21  C5        27.5670   16.1330    8.7230 C.2   101  ADP101      0.2526
     22  C6        27.0550   16.6710    7.4870 C.2   101  ADP101      0.4393
     23  N6        26.2680   17.7940    7.4290 N.pl3 101  ADP101      0.2180
     24  N1        27.3710   16.0290    6.3480 N.2   101  ADP101      0.0021
     25  C2        28.1270   14.9440    6.4030 C.3   101  ADP101      0.5254
     26  N3        28.6470   14.3690    7.4960 N.2   101  ADP101     -0.0055
     27  C4        28.3300   15.0130    8.6270 C.2   101  ADP101      0.3518
@<TRIPOS>BOND
     1    24    25    1
     2    24    22    2
     3    25    26    1
     4    23    22    1
     5    22    21    1
     6    26    27    2
     7    27    21    1
     8    27    18    1
     9    21    20    2
    10    16    15    1
    11    15    17    1
    12    15    13    1
    13    18    17    1
    14    18    19    1
    15    20    19    1
    16    17    12    1
    17    14    13    1
    18    13    11    1
    19     3     1    2
    20    12    11    1
    21    11    10    1
    22     1     4    1
    23     1     2    1
    24     1     8    1
    25    10     9    1
    26     9     5    1
    27     8     5    1
    28     5     6    2
    29     5     7    1
