@<TRIPOS>MOLECULE
1hwl_ADP_A_1.pdb
 27 29 0 0 0
SMALL
GASTEIGER

@<TRIPOS>ATOM
      1  PB        30.2780   18.3600   12.5360 P.3   101  ADP101      0.5373
      2  O1B       28.7920   18.0450   12.3900 O.3   101  ADP101     -0.1143
      3  O2B       31.1520   17.7470   11.3830 O.2   101  ADP101     -0.2221
      4  O3B       30.5630   19.8440   12.7200 O.3   101  ADP101     -0.1143
      5  PA        30.2530   16.4440   14.7400 P.3   101  ADP101      0.2231
      6  O1A       28.8390   16.7660   15.1460 O.2   101  ADP101     -0.5169
      7  O2A       31.2070   16.1760   15.8370 O.3   101  ADP101     -0.4370
      8  O3A       30.8430   17.6650   13.8280 O.3   101  ADP101     -0.2261
      9  O5'       30.1870   15.2130   13.7110 O.3   101  ADP101     -0.3111
     10  C5'       31.4170   14.7290   13.1240 C.3   101  ADP101      0.1813
     11  C4'       31.1920   13.7640   11.9800 C.3   101  ADP101      0.1821
     12  O4'       29.7170   13.6870   11.6990 O.3   101  ADP101     -0.3135
     13  C3'       31.8060   14.2000   10.6610 C.3   101  ADP101      0.2184
     14  O3'       33.1400   13.6490   10.5400 O.3   101  ADP101     -0.2174
     15  C2'       30.8650   13.5210    9.5940 C.3   101  ADP101      0.2570
     16  O2'       31.1780   12.1200    9.3560 O.3   101  ADP101     -0.2130
     17  C1'       29.4890   13.5450   10.2970 C.3   101  ADP101      0.3186
     18  N9        28.6120   14.7100    9.8530 N.pl3 101  ADP101     -0.1439
     19  C8        28.1070   15.6470   10.6340 C.3   101  ADP101      0.3377
     20  N7        27.4040   16.5010    9.9910 N.2   101  ADP101     -0.2095
     21  C5        27.4520   16.0870    8.6620 C.2   101  ADP101      0.2526
     22  C6        26.8860   16.5820    7.4310 C.2   101  ADP101      0.4393
     23  N6        26.0950   17.7030    7.3590 N.pl3 101  ADP101      0.2180
     24  N1        27.1580   15.9000    6.3060 N.2   101  ADP101      0.0021
     25  C2        27.9180   14.8180    6.3660 C.3   101  ADP101      0.5254
     26  N3        28.4810   14.2830    7.4500 N.2   101  ADP101     -0.0055
     27  C4        28.2100   14.9660    8.5720 C.2   101  ADP101      0.3518
@<TRIPOS>BOND
     1    24    25    1
     2    24    22    2
     3    25    26    1
     4    23    22    1
     5    22    21    1
     6    26    27    2
     7    27    21    1
     8    27    18    1
     9    21    20    2
    10    16    15    1
    11    15    17    1
    12    15    13    1
    13    18    17    1
    14    18    19    1
    15    20    19    1
    16    17    12    1
    17    14    13    1
    18    13    11    1
    19     3     1    2
    20    12    11    1
    21    11    10    1
    22     2     1    1
    23     1     4    1
    24     1     8    1
    25    10     9    1
    26     9     5    1
    27     8     5    1
    28     5     6    2
    29     5     7    1
