@<TRIPOS>MOLECULE
1hwl_FBI_A_1.pdb
 33 34 0 0 0
SMALL
GASTEIGER

@<TRIPOS>ATOM
      1  O1S       22.4990    9.1480   14.2500 O.2     2  FBI2       -0.1536
      2  O2S       23.4010   11.0480   15.7550 O.2     2  FBI2       -0.1536
      3  N3        20.6800   10.5230   15.7900 N.pl3   2  FBI2       -0.1158
      4  C12       20.6660   11.2210   17.1120 C.3     2  FBI2        0.1530
      5  S1        22.1600   10.5890   14.8680 S.O2    2  FBI2        0.0679
      6  C13       21.9950   11.7620   13.5420 C.3     2  FBI2        0.2006
      7  C8        17.5550    8.6790   15.6430 C.2     2  FBI2        0.1326
      8  C10       17.3540    8.5130   14.2190 C.3     2  FBI2        0.1239
      9  C9        18.3750    9.0560   13.3650 C.2     2  FBI2        0.1102
     10  N2        19.4210    9.6920   13.9170 N.2     2  FBI2       -0.3352
     11  C11       19.5170    9.8090   15.2220 C.1     2  FBI2        0.2212
     12  N1        18.6450    9.3340   16.0770 N.2     2  FBI2       -0.3308
     13  C83       15.2920    8.4100   18.5980 C.ar    2  FBI2        0.0297
     14  C82       16.1400    8.9730   17.6390 C.ar    2  FBI2        0.0046
     15  C81       16.6890    8.1780   16.6080 C.ar    2  FBI2        0.0272
     16  C86       16.3510    6.7930   16.5820 C.ar    2  FBI2        0.0046
     17  C85       15.5070    6.2350   17.5370 C.ar    2  FBI2        0.0297
     18  C84       14.9800    7.0450   18.5430 C.ar    2  FBI2        0.1401
     19  F1        14.1570    6.4940   19.4900 F       2  FBI2       -0.2042
     20  O1B       14.0170    1.7210   16.2620 O.co2   2  FBI2       -0.2456
     21  O1A       16.0700    2.5220   16.3330 O.co2   2  FBI2       -0.2456
     22  O3        13.6730    4.6530   14.6640 O.3     2  FBI2       -0.2224
     23  C1        14.9380    2.2500   15.7140 C.2     2  FBI2        0.3674
     24  C2        14.9330    2.6730   14.2720 C.3     2  FBI2        0.1469
     25  C3        14.8700    4.1980   14.0750 C.3     2  FBI2        0.1661
     26  C4        14.8610    4.5740   12.5940 C.3     2  FBI2        0.0709
     27  C5        14.8400    6.0950   12.3090 C.3     2  FBI2        0.1763
     28  C6        16.1120    6.7650   12.8000 C.2     2  FBI2        0.0024
     29  C7        16.1100    7.7740   13.6700 C.2     2  FBI2       -0.0147
     30  C91       18.3400    8.9420   11.8070 C.3     2  FBI2        0.0499
     31  C92       18.5170   10.2780   11.0770 C.3     2  FBI2        0.0071
     32  C93       19.4220    7.9530   11.2900 C.3     2  FBI2        0.0071
     33  O5        14.6900    6.2610   10.9160 O.3     2  FBI2       -0.2182
@<TRIPOS>BOND
     1    33    27    1
     2    31    30    1
     3    32    30    1
     4    30     9    1
     5    27    26    1
     6    27    28    1
     7    26    25    1
     8    28    29    2
     9     9    10    2
    10     9     8    1
    11     6     5    1
    12    29     8    1
    13    10    11    2
    14    25    24    1
    15    25    22    1
    16     8     7    1
    17     1     5    2
    18    24    23    1
    19     5     2    2
    20     5     3    1
    21    11     3    1
    22    11    12    2
    23     7    12    2
    24     7    15    1
    25    23    20   ar
    26    23    21   ar
    27     3     4    1
    28    16    15   ar
    29    16    17   ar
    30    15    14   ar
    31    17    18   ar
    32    14    13   ar
    33    18    13   ar
    34    18    19    1
