@<TRIPOS>MOLECULE
1hwm_NAG_B_1.pdb
 14 14 0 0 0
SMALL
GASTEIGER

@<TRIPOS>ATOM
      1  C1        42.6520   -7.1250   94.1220 C.3   267  NAG267      0.1665
      2  C2        43.9010   -7.8210   94.6640 C.3   267  NAG267      0.1576
      3  C3        45.0320   -6.8110   94.8860 C.3   267  NAG267      0.2069
      4  C4        45.2560   -5.9450   93.6410 C.3   267  NAG267      0.2134
      5  C5        43.9330   -5.3480   93.1570 C.3   267  NAG267      0.1809
      6  C6        44.0810   -4.5820   91.8550 C.3   267  NAG267      0.2141
      7  C7        44.1490   -9.6450   96.2210 C.2   267  NAG267      0.2420
      8  C8        43.7720  -10.2650   97.5570 C.3   267  NAG267      0.0964
      9  N2        43.5870   -8.4790   95.9190 N.am  267  NAG267     -0.2019
     10  O3        46.2280   -7.5100   95.1960 O.3   267  NAG267     -0.2184
     11  O4        46.1740   -4.8740   93.9470 O.3   267  NAG267     -0.2176
     12  O5        42.9650   -6.3950   92.9270 O.3   267  NAG267     -0.3489
     13  O6        44.9820   -5.2370   90.9730 O.3   267  NAG267     -0.2176
     14  O7        44.9370  -10.2260   95.4730 O.2   267  NAG267     -0.2733
@<TRIPOS>BOND
     1    13     6    1
     2     6     5    1
     3    12     5    1
     4    12     1    1
     5     5     4    1
     6     4    11    1
     7     4     3    1
     8     1     2    1
     9     2     3    1
    10     2     9    1
    11     3    10    1
    12    14     7    2
    13     9     7   am
    14     7     8    1
