@<TRIPOS>MOLECULE
1hwm_GAL_B_1.pdb
 12 12 0 0 0
SMALL
GASTEIGER

@<TRIPOS>ATOM
      1  C1        41.9160   21.3370   89.5240 C.3   280  GAL280      0.3024
      2  C2        41.4990   20.6450   90.8290 C.3   280  GAL280      0.2434
      3  C3        40.8790   19.2860   90.4900 C.3   280  GAL280      0.2199
      4  C4        39.7070   19.4820   89.5280 C.3   280  GAL280      0.2144
      5  C5        40.1800   20.2350   88.2840 C.3   280  GAL280      0.1836
      6  C6        39.0390   20.5460   87.3310 C.3   280  GAL280      0.2142
      7  O1        42.4360   22.5950   89.7970 O.3   280  GAL280     -0.1869
      8  O2        42.6310   20.4730   91.6710 O.3   280  GAL280     -0.2148
      9  O3        40.4330   18.6330   91.6690 O.3   280  GAL280     -0.2174
     10  O4        38.6760   20.2230   90.1730 O.3   280  GAL280     -0.2176
     11  O5        40.7790   21.4980   88.6580 O.3   280  GAL280     -0.3236
     12  O6        38.5130   19.3570   86.7510 O.3   280  GAL280     -0.2176
@<TRIPOS>BOND
     1    12     6    1
     2     6     5    1
     3     5    11    1
     4     5     4    1
     5    11     1    1
     6     1     7    1
     7     1     2    1
     8     4    10    1
     9     4     3    1
    10     3     2    1
    11     3     9    1
    12     2     8    1
