@<TRIPOS>MOLECULE
1hwn_NAG_B_1.pdb
 14 14 0 0 0
SMALL
GASTEIGER

@<TRIPOS>ATOM
      1  C1        28.8070   79.9500   82.6230 C.3   267  NAG267      0.1665
      2  C2        29.8470   79.4240   81.6400 C.3   267  NAG267      0.1576
      3  C3        31.2240   79.4030   82.2990 C.3   267  NAG267      0.2069
      4  C4        31.5640   80.7730   82.9010 C.3   267  NAG267      0.2134
      5  C5        30.4190   81.2510   83.8060 C.3   267  NAG267      0.1809
      6  C6        30.6210   82.6590   84.3350 C.3   267  NAG267      0.2141
      7  C7        29.4810   77.7700   79.9280 C.2   267  NAG267      0.2420
      8  C8        29.0860   76.3480   79.5680 C.3   267  NAG267      0.0964
      9  N2        29.4840   78.0860   81.2190 N.am  267  NAG267     -0.2019
     10  O3        32.2010   79.0500   81.3310 O.3   267  NAG267     -0.2184
     11  O4        32.7780   80.6680   83.6720 O.3   267  NAG267     -0.2176
     12  O5        29.1740   81.2540   83.0780 O.3   267  NAG267     -0.3489
     13  O6        29.4210   83.1710   84.8980 O.3   267  NAG267     -0.2176
     14  O7        29.7810   78.5700   79.0410 O.2   267  NAG267     -0.2733
@<TRIPOS>BOND
     1    14     7    2
     2     8     7    1
     3     7     9   am
     4     9     2    1
     5    10     3    1
     6     2     3    1
     7     2     1    1
     8     3     4    1
     9     1    12    1
    10     4    11    1
    11     4     5    1
    12    12     5    1
    13     5     6    1
    14     6    13    1
