@<TRIPOS>MOLECULE
1hwn_GAL_B_1.pdb
 12 12 0 0 0
SMALL
GASTEIGER

@<TRIPOS>ATOM
      1  C1        35.9430   82.3860  109.7030 C.3   280  GAL280      0.3024
      2  C2        36.3920   80.9410  109.4570 C.3   280  GAL280      0.2434
      3  C3        35.4970   80.2770  108.4080 C.3   280  GAL280      0.2199
      4  C4        34.0220   80.4150  108.8010 C.3   280  GAL280      0.2144
      5  C5        33.6940   81.8890  109.0500 C.3   280  GAL280      0.1836
      6  C6        32.2670   82.1290  109.5020 C.3   280  GAL280      0.2142
      7  O1        36.6800   82.9390  110.7390 O.3   280  GAL280     -0.1869
      8  O2        37.7380   80.9290  109.0070 O.3   280  GAL280     -0.2148
      9  O3        35.8370   78.9020  108.2920 O.3   280  GAL280     -0.2174
     10  O4        33.7680   79.6600  109.9750 O.3   280  GAL280     -0.2176
     11  O5        34.5590   82.4200  110.0770 O.3   280  GAL280     -0.3236
     12  O6        31.3310   81.5230  108.6250 O.3   280  GAL280     -0.2176
@<TRIPOS>BOND
     1     9     3    1
     2     3     4    1
     3     3     2    1
     4    12     6    1
     5     4     5    1
     6     4    10    1
     7     8     2    1
     8     5     6    1
     9     5    11    1
    10     2     1    1
    11     1    11    1
    12     1     7    1
