@<TRIPOS>MOLECULE
1hwo_GAL_B_1.pdb
 11 11 0 0 0
SMALL
GASTEIGER

@<TRIPOS>ATOM
      1  C1        32.9820   81.1030  109.7720 C.3   280  GAL280      0.1777
      2  C2        32.9880   79.6320  109.3100 C.3   280  GAL280      0.2141
      3  C3        32.2000   79.4680  108.0080 C.3   280  GAL280      0.2173
      4  C4        30.7950   80.0340  108.1780 C.3   280  GAL280      0.2142
      5  C5        30.8910   81.4920  108.6290 C.3   280  GAL280      0.1810
      6  C6        29.5250   82.1210  108.8600 C.3   280  GAL280      0.2141
      7  O2        34.3200   79.1850  109.1100 O.3   280  GAL280     -0.2176
      8  O3        32.1230   78.0920  107.6640 O.3   280  GAL280     -0.2175
      9  O4        30.0870   79.2720  109.1450 O.3   280  GAL280     -0.2176
     10  O5        31.6260   81.5800  109.8730 O.3   280  GAL280     -0.3481
     11  O6        28.8300   81.4860  109.9240 O.3   280  GAL280     -0.2176
@<TRIPOS>BOND
     1     8     3    1
     2     3     4    1
     3     3     2    1
     4     4     5    1
     5     4     9    1
     6     5     6    1
     7     5    10    1
     8     6    11    1
     9     7     2    1
    10     2     1    1
    11     1    10    1
