@<TRIPOS>MOLECULE
1hwo_NAG_B_1.pdb
 14 14 0 0 0
SMALL
GASTEIGER

@<TRIPOS>ATOM
      1  C1        27.8080   79.8090   82.6830 C.3   267  NAG267      0.1665
      2  C2        29.0730   79.3010   82.0050 C.3   267  NAG267      0.1576
      3  C3        30.2230   79.3220   83.0140 C.3   267  NAG267      0.2069
      4  C4        30.3640   80.7110   83.6610 C.3   267  NAG267      0.2134
      5  C5        29.0070   81.2460   84.1570 C.3   267  NAG267      0.1809
      6  C6        29.0800   82.7060   84.5640 C.3   267  NAG267      0.2141
      7  C7        28.9900   77.6860   80.2190 C.2   267  NAG267      0.2420
      8  C8        28.7430   76.2510   79.7900 C.3   267  NAG267      0.0964
      9  N2        28.8600   77.9540   81.5140 N.am  267  NAG267     -0.2019
     10  O3        31.4340   78.9780   82.3570 O.3   267  NAG267     -0.2184
     11  O4        31.2660   80.6260   84.7870 O.3   267  NAG267     -0.2176
     12  O5        28.0050   81.1530   83.1220 O.3   267  NAG267     -0.3489
     13  O6        27.7960   83.2120   84.9010 O.3   267  NAG267     -0.2176
     14  O7        29.2960   78.5350   79.3810 O.2   267  NAG267     -0.2733
@<TRIPOS>BOND
     1    14     7    2
     2     8     7    1
     3     7     9   am
     4     9     2    1
     5     2     1    1
     6     2     3    1
     7    10     3    1
     8     1    12    1
     9     3     4    1
    10    12     5    1
    11     4     5    1
    12     4    11    1
    13     5     6    1
    14     6    13    1
