@<TRIPOS>MOLECULE
1hwp_GAL_B_1.pdb
 11 11 0 0 0
SMALL
GASTEIGER

@<TRIPOS>ATOM
      1  C1        33.3350   80.1180  108.5540 C.3   280  GAL280      0.1777
      2  C2        33.1080   78.7820  107.7920 C.3   280  GAL280      0.2141
      3  C3        31.6660   78.5020  107.3740 C.3   280  GAL280      0.2173
      4  C4        30.7100   79.2750  108.2390 C.3   280  GAL280      0.2142
      5  C5        30.9820   80.7430  107.9800 C.3   280  GAL280      0.1810
      6  C6        30.0030   81.6710  108.6810 C.3   280  GAL280      0.2141
      7  O2        33.9290   78.7500  106.6350 O.3   280  GAL280     -0.2176
      8  O3        31.3870   77.1140  107.4710 O.3   280  GAL280     -0.2175
      9  O4        30.9070   78.9520  109.6090 O.3   280  GAL280     -0.2176
     10  O5        32.3230   81.1520  108.3730 O.3   280  GAL280     -0.3481
     11  O6        29.7800   81.2750  110.0290 O.3   280  GAL280     -0.2176
@<TRIPOS>BOND
     1     7     2    1
     2     3     8    1
     3     3     2    1
     4     3     4    1
     5     2     1    1
     6     5     4    1
     7     5    10    1
     8     5     6    1
     9     4     9    1
    10    10     1    1
    11     6    11    1
