@<TRIPOS>MOLECULE
1hwp_BGC_B_1.pdb
 12 12 0 0 0
SMALL
GASTEIGER

@<TRIPOS>ATOM
      1  C2        36.9030   78.6500  111.0540 C.3   281  BGC281      0.2434
      2  C3        35.5400   78.5780  110.3620 C.3   281  BGC281      0.2199
      3  C4        34.8440   79.9320  110.5120 C.3   281  BGC281      0.2144
      4  C5        35.7410   81.0310  109.8980 C.3   281  BGC281      0.1836
      5  C6        35.1830   82.4400  110.0330 C.3   281  BGC281      0.2142
      6  C1        37.7310   79.7880  110.4420 C.3   281  BGC281      0.3024
      7  O1        38.9290   79.9120  111.1280 O.3   281  BGC281     -0.1869
      8  O2        37.5900   77.4120  110.9150 O.3   281  BGC281     -0.2148
      9  O3        34.7530   77.5550  110.9570 O.3   281  BGC281     -0.2174
     10  O4        33.5120   79.9010  109.9200 O.3   281  BGC281     -0.2176
     11  O5        37.0300   81.0370  110.5600 O.3   281  BGC281     -0.3236
     12  O6        34.2190   82.7190  109.0280 O.3   281  BGC281     -0.2176
@<TRIPOS>BOND
     1    12     5    1
     2     4     5    1
     3     4     3    1
     4     4    11    1
     5    10     3    1
     6     2     3    1
     7     2     9    1
     8     2     1    1
     9     6    11    1
    10     6     1    1
    11     6     7    1
    12     8     1    1
