@<TRIPOS>MOLECULE
1hwp_PT1_A_1.pdb
 23 25 0 0 0
SMALL
GASTEIGER

@<TRIPOS>ATOM
      1  C2        23.0550   44.9880   74.6060 C.1   321  PT1321      0.2569
      2  C3        24.1800   45.6060   75.2480 C.2   321  PT1321      0.2988
      3  C5        25.4400   44.9230   74.9830 C.1   321  PT1321      0.1401
      4  N6        24.1610   46.7490   76.0530 N.2   321  PT1321     -0.3839
      5  C7        24.4100   43.3100   73.6460 C.1   321  PT1321      0.2609
      6  N9        25.5590   43.7880   74.1890 N.2   321  PT1321     -0.2672
      7  C10       25.3590   47.2420   76.5950 C.2   321  PT1321      0.1356
      8  N11       24.5580   42.1990   72.8760 N.pl3 321  PT1321     -0.0220
      9  C12       26.5850   46.5620   76.3260 C.3   321  PT1321      0.1931
     10  C21       25.2930   44.5010   82.9160 C.2   321  PT1321      0.3878
     11  O22       26.3720   44.3480   83.6060 O.co2 321  PT1321     -0.2406
     12  O1        21.8080   45.5010   74.7800 O.2   321  PT1321     -0.2052
     13  N4        23.1640   43.8380   73.8050 N.2   321  PT1321     -0.2466
     14  N8        26.5980   45.4250   75.5310 N.2   321  PT1321     -0.1992
     15  C13       25.4120   48.4890   77.4680 C.3   321  PT1321      0.1683
     16  N14       24.6340   48.4330   78.6830 N.pl3 321  PT1321     -0.2303
     17  C15       24.8870   47.5340   79.7010 C.ar  321  PT1321      0.0658
     18  C16       26.1790   47.3440   80.3420 C.ar  321  PT1321      0.0163
     19  C17       23.7780   46.7420   80.1170 C.ar  321  PT1321      0.0163
     20  C18       26.3110   46.3540   81.3850 C.ar  321  PT1321      0.0079
     21  C19       23.9090   45.7570   81.1540 C.ar  321  PT1321      0.0079
     22  C20       25.1740   45.5490   81.8070 C.ar  321  PT1321      0.0799
     23  O23       24.3080   43.7280   83.2090 O.co2 321  PT1321     -0.2406
@<TRIPOS>BOND
     1     8     5    1
     2     5    13    2
     3     5     6    2
     4    13     1    2
     5     6     3    2
     6     1    12    2
     7     1     2    1
     8     3     2    1
     9     3    14    2
    10     2     4    2
    11    14     9    1
    12     4     7    2
    13     9     7    1
    14     7    15    1
    15    15    16    1
    16    16    17    1
    17    17    19   ar
    18    17    18   ar
    19    19    21   ar
    20    18    20   ar
    21    21    22   ar
    22    20    22   ar
    23    22    10    1
    24    10    23   ar
    25    10    11   ar
