@<TRIPOS>MOLECULE
1hwp_NAG_B_1.pdb
 14 14 0 0 0
SMALL
GASTEIGER

@<TRIPOS>ATOM
      1  C1        27.9770   79.8770   82.4390 C.3   267  NAG267      0.1665
      2  C2        29.2430   79.4140   81.7290 C.3   267  NAG267      0.1576
      3  C3        30.4140   79.4550   82.7150 C.3   267  NAG267      0.2069
      4  C4        30.5310   80.8320   83.3890 C.3   267  NAG267      0.2134
      5  C5        29.1690   81.3290   83.9100 C.3   267  NAG267      0.1809
      6  C6        29.2070   82.7840   84.3390 C.3   267  NAG267      0.2141
      7  C7        28.9100   77.8660   79.9140 C.2   267  NAG267      0.2420
      8  C8        28.7410   76.4280   79.4500 C.3   267  NAG267      0.0964
      9  N2        29.0720   78.0680   81.2180 N.am  267  NAG267     -0.2019
     10  O3        31.6230   79.1640   82.0290 O.3   267  NAG267     -0.2184
     11  O4        31.4420   80.7380   84.5090 O.3   267  NAG267     -0.2176
     12  O5        28.1500   81.2210   82.8910 O.3   267  NAG267     -0.3489
     13  O6        27.9270   83.2260   84.7670 O.3   267  NAG267     -0.2176
     14  O7        28.8910   78.7820   79.0920 O.2   267  NAG267     -0.2733
@<TRIPOS>BOND
     1    14     7    2
     2     8     7    1
     3     7     9   am
     4     9     2    1
     5     2     1    1
     6     2     3    1
     7    10     3    1
     8     1    12    1
     9     3     4    1
    10    12     5    1
    11     4     5    1
    12     4    11    1
    13     5     6    1
    14     6    13    1
