@<TRIPOS>MOLECULE
1hwr_216_B_1.pdb
 30 32 0 0 0
SMALL
GASTEIGER

@<TRIPOS>ATOM
      1  O1        -8.0280   14.2810   27.7780 O.2   216  216216     -0.2523
      2  O4       -10.1210   19.3420   26.7660 O.3   216  216216     -0.2186
      3  O5       -11.7890   18.3830   28.8790 O.3   216  216216     -0.2186
      4  N2        -8.6520   16.0650   26.7760 N.am  216  216216     -0.2586
      5  N7        -9.4270   15.5680   28.9380 N.am  216  216216     -0.2586
      6  C1        -8.7000   15.2840   27.8370 C.2   216  216216      0.3077
      7  C3        -8.8280   17.5220   26.8240 C.3   216  216216      0.1144
      8  C4       -10.2040   18.0170   27.1390 C.3   216  216216      0.2021
      9  C5       -10.5430   17.8310   28.5730 C.3   216  216216      0.2021
     10  C6       -10.6770   16.3590   28.9200 C.3   216  216216      0.1144
     11  C21       -8.2430   15.4760   25.4990 C.3   216  216216      0.1215
     12  C22       -9.1850   15.8620   24.3840 C.2   216  216216     -0.0046
     13  C23       -8.7490   16.3800   23.2310 C.2   216  216216     -0.0031
     14  C31       -7.6840   18.1830   27.6090 C.3   216  216216      0.0489
     15  C32       -6.3600   17.9800   26.9280 C.ar  216  216216     -0.0204
     16  C33       -5.5520   16.8720   27.2700 C.ar  216  216216     -0.0042
     17  C34       -4.3000   16.6710   26.6470 C.ar  216  216216     -0.0003
     18  C35       -3.8480   17.5700   25.6680 C.ar  216  216216     -0.0000
     19  C36       -4.6680   18.6860   25.3170 C.ar  216  216216     -0.0003
     20  C37       -5.9270   18.8980   25.9450 C.ar  216  216216     -0.0042
     21  C61      -11.7870   15.5540   28.1750 C.3   216  216216      0.0489
     22  C62      -12.3910   14.3920   28.9530 C.ar  216  216216     -0.0204
     23  C63      -13.2790   14.6880   30.0160 C.ar  216  216216     -0.0042
     24  C64      -13.9120   13.6630   30.7380 C.ar  216  216216     -0.0003
     25  C65      -13.6380   12.3260   30.3710 C.ar  216  216216     -0.0000
     26  C66      -12.7500   12.0180   29.3060 C.ar  216  216216     -0.0003
     27  C67      -12.1100   13.0510   28.5850 C.ar  216  216216     -0.0042
     28  C71       -9.1190   15.0180   30.2720 C.3   216  216216      0.1215
     29  C72       -9.0070   16.0630   31.3700 C.2   216  216216     -0.0046
     30  C73       -9.4480   15.8760   32.6200 C.2   216  216216     -0.0031
@<TRIPOS>BOND
     1    13    12    2
     2    12    11    1
     3    19    18   ar
     4    19    20   ar
     5    11     4    1
     6    18    17   ar
     7    20    15   ar
     8    17    16   ar
     9     2     8    1
    10     4     7    1
    11     4     6   am
    12     7     8    1
    13     7    14    1
    14    15    16   ar
    15    15    14    1
    16     8     9    1
    17     1     6    2
    18     6     5   am
    19    21    10    1
    20    21    22    1
    21     9     3    1
    22     9    10    1
    23    27    22   ar
    24    27    26   ar
    25    10     5    1
    26     5    28    1
    27    22    23   ar
    28    26    25   ar
    29    23    24   ar
    30    28    29    1
    31    25    24   ar
    32    29    30    2
