@<TRIPOS>MOLECULE
1hww_SWA_A_1.pdb
 12 13 0 0 0
SMALL
GASTEIGER

@<TRIPOS>ATOM
      1  C1        31.0850   66.8500    6.1040 C.3   1103  SWA1103     0.1691
      2  O1        31.6160   67.9930    5.4120 O.3   1103  SWA1103    -0.2216
      3  C3        31.2910   67.0030    7.6490 C.3   1103  SWA1103     0.1214
      4  N4        30.7310   65.8070    8.3070 N.3   1103  SWA1103    -0.2674
      5  C5        29.2560   65.6700    8.1360 C.3   1103  SWA1103     0.0724
      6  C6        28.9520   65.4970    6.6230 C.3   1103  SWA1103     0.0200
      7  C2        29.5540   66.6860    5.8180 C.3   1103  SWA1103     0.0358
      8  C9        31.2840   65.7130    9.6520 C.3   1103  SWA1103     0.1082
      9  C8        32.6480   66.4480    9.5970 C.3   1103  SWA1103     0.1994
     10  O13       33.7150   65.5340    9.8330 O.3   1103  SWA1103    -0.2189
     11  C7        32.7550   67.0820    8.1610 C.3   1103  SWA1103     0.2004
     12  O11       33.6410   66.3140    7.3190 O.3   1103  SWA1103    -0.2188
@<TRIPOS>BOND
     1     2     1    1
     2     7     1    1
     3     7     6    1
     4     1     3    1
     5     6     5    1
     6    12    11    1
     7     3    11    1
     8     3     4    1
     9     5     4    1
    10    11     9    1
    11     4     8    1
    12     9     8    1
    13     9    10    1
