@<TRIPOS>MOLECULE
1hwy_NAD_A_1.pdb
 44 48 0 0 0
SMALL
GASTEIGER

@<TRIPOS>ATOM
      1  PA        23.5110   17.1270   56.4860 P.3   507  NAD507      0.2189
      2  O1A       23.8950   18.2550   57.7370 O.3   507  NAD507     -0.4371
      3  O2A       24.6320   16.2050   55.8510 O.2   507  NAD507     -0.5170
      4  O5B       22.4490   16.2450   56.9430 O.3   507  NAD507     -0.3112
      5  C5B       22.7130   15.3880   58.0430 C.3   507  NAD507      0.1813
      6  C4B       21.9570   14.0500   58.0730 C.3   507  NAD507      0.1821
      7  O4B       21.1910   13.6960   56.8460 O.3   507  NAD507     -0.3135
      8  C3B       22.9870   12.8920   58.2400 C.3   507  NAD507      0.2184
      9  O3B       22.5330   11.8780   59.1730 O.3   507  NAD507     -0.2174
     10  C2B       23.2120   12.3310   56.8320 C.3   507  NAD507      0.2570
     11  O2B       23.6720   10.9660   56.7380 O.3   507  NAD507     -0.2130
     12  C1B       21.7150   12.4250   56.4510 C.3   507  NAD507      0.3186
     13  N9A       21.2510   12.3890   55.0210 N.pl3 507  NAD507     -0.1439
     14  C8A       21.6730   13.0650   53.8900 C.3   507  NAD507      0.3377
     15  N7A       20.9870   12.7430   52.8040 N.2   507  NAD507     -0.2095
     16  C5A       20.0560   11.8360   53.2280 C.2   507  NAD507      0.2526
     17  C6A       18.9860   11.0890   52.5330 C.2   507  NAD507      0.4393
     18  N6A       18.7890   11.2030   51.2720 N.pl3 507  NAD507      0.2180
     19  N1A       18.2610   10.2730   53.2870 N.2   507  NAD507      0.0021
     20  C2A       18.3830   10.0630   54.5790 C.3   507  NAD507      0.5254
     21  N3A       19.3650   10.7200   55.3320 N.2   507  NAD507     -0.0055
     22  C4A       20.1790   11.5950   54.5800 C.2   507  NAD507      0.3518
     23  O3        22.8000   17.9070   55.3420 O.3   507  NAD507     -0.2703
     24  PN        21.5340   17.8630   54.2310 P.3   507  NAD507      0.2189
     25  O1N       20.8820   16.6540   54.4630 O.3   507  NAD507     -0.4371
     26  O2N       22.0530   18.2570   52.8410 O.2   507  NAD507     -0.5170
     27  O5D       20.5240   19.0270   54.7790 O.3   507  NAD507     -0.3112
     28  C5D       20.7820   20.3500   54.1580 C.3   507  NAD507      0.1813
     29  C4D       19.9940   20.4020   52.8190 C.3   507  NAD507      0.1799
     30  O4D       19.2520   19.1670   52.6350 O.3   507  NAD507     -0.3327
     31  C3D       19.0180   21.5360   52.6380 C.3   507  NAD507      0.2158
     32  O3D       19.5440   22.3470   51.5600 O.3   507  NAD507     -0.2175
     33  C2D       17.6060   20.9500   52.2370 C.3   507  NAD507      0.2309
     34  O2D       17.0920   21.2630   50.8810 O.3   507  NAD507     -0.2158
     35  C1D       17.9040   19.4460   52.3340 C.3   507  NAD507      0.2263
     36  N1N       17.0520   18.8380   53.3380 N.pl3 507  NAD507     -0.2787
     37  C2N       15.8360   18.3900   52.9380 C.3   507  NAD507      0.1244
     38  C3N       15.0440   17.8470   53.8620 C.2   507  NAD507      0.0544
     39  C7N       13.6070   17.3910   53.4120 C.2   507  NAD507      0.2818
     40  O7N       12.8050   16.8980   54.2610 O.2   507  NAD507     -0.2670
     41  N7N       13.3670   17.5800   52.0180 N.am  507  NAD507     -0.0839
     42  C4N       15.3980   17.7280   55.2220 C.2   507  NAD507      0.0033
     43  C5N       16.6900   18.2040   55.5530 C.2   507  NAD507      0.0157
     44  C6N       17.5680   18.7720   54.6430 C.2   507  NAD507      0.0633
@<TRIPOS>BOND
     1    34    33    1
     2    18    17    1
     3    32    31    1
     4    41    39   am
     5    33    35    1
     6    33    31    1
     7    35    30    1
     8    35    36    1
     9    17    16    1
    10    17    19    2
    11    30    29    1
    12    31    29    1
    13    15    16    2
    14    15    14    1
    15    29    28    1
    16    26    24    2
    17    37    36    1
    18    37    38    1
    19    16    22    1
    20    19    20    1
    21    36    44    1
    22    39    38    1
    23    39    40    2
    24    38    42    2
    25    14    13    1
    26    28    27    1
    27    24    25    1
    28    24    27    1
    29    24    23    1
    30    20    21    1
    31    22    13    1
    32    22    21    2
    33    44    43    2
    34    13    12    1
    35    42    43    1
    36    23     1    1
    37     3     1    2
    38    12    10    1
    39    12     7    1
    40     1     4    1
    41     1     2    1
    42    11    10    1
    43    10     8    1
    44     7     6    1
    45     4     5    1
    46     5     6    1
    47     6     8    1
    48     8     9    1
