@<TRIPOS>MOLECULE
1hwy_AKG_A_1.pdb
 10 9 0 0 0
SMALL
GASTEIGER

@<TRIPOS>ATOM
      1  C1        14.2700   35.4960   69.8470 C.2   506  AKG506      0.4261
      2  O1        15.3730   35.8470   69.3390 O.co2 506  AKG506     -0.2369
      3  O2        13.7260   35.6040   70.9650 O.co2 506  AKG506     -0.2369
      4  C2        13.3170   34.7450   68.8220 C.2   506  AKG506      0.2749
      5  O5        12.2430   34.4150   69.3020 O.2   506  AKG506     -0.2795
      6  C3        13.8360   34.5500   67.3920 C.2   506  AKG506      0.0558
      7  C4        13.9960   33.1550   66.8590 C.2   506  AKG506      0.0896
      8  C5        14.5180   32.9740   65.4660 C.2   506  AKG506      0.3881
      9  O3        14.6350   31.8620   64.9870 O.co2 506  AKG506     -0.2405
     10  O4        14.8100   34.0590   64.8070 O.co2 506  AKG506     -0.2405
@<TRIPOS>BOND
     1    10     8   ar
     2     9     8   ar
     3     8     7    1
     4     7     6    2
     5     6     4    1
     6     4     5    2
     7     4     1    1
     8     2     1   ar
     9     1     3   ar
