@<TRIPOS>MOLECULE
1hwz_NDP_A_1.pdb
 48 52 0 0 0
SMALL
GASTEIGER

@<TRIPOS>ATOM
      1  PA        12.1290   26.3860   79.3060 P.3   551  NDP551      0.2189
      2  O1A       13.2770   26.2500   78.3890 O.2   551  NDP551     -0.5170
      3  O2A       10.9260   25.5890   78.9580 O.3   551  NDP551     -0.4371
      4  O5B       12.5480   26.5460   80.8770 O.3   551  NDP551     -0.3112
      5  C5B       11.6210   26.2990   81.9550 C.3   551  NDP551      0.1813
      6  C4B       12.3380   26.4650   83.2920 C.3   551  NDP551      0.1820
      7  O4B       11.8630   27.8890   83.7250 O.3   551  NDP551     -0.3136
      8  C3B       11.7320   25.7650   84.4620 C.3   551  NDP551      0.2157
      9  O3B       12.7000   25.6570   85.5520 O.3   551  NDP551     -0.2175
     10  C2B       10.5530   26.4220   84.7790 C.3   551  NDP551      0.2314
     11  O2B        9.9160   25.9320   85.9500 O.3   551  NDP551     -0.2630
     12  C1B       11.1740   27.7150   84.9820 C.3   551  NDP551      0.3158
     13  N9A       10.1750   28.7830   85.2160 N.pl3 551  NDP551     -0.1439
     14  C8A        9.1490   29.2560   84.4380 C.3   551  NDP551      0.3377
     15  N7A        8.4560   30.2540   85.0100 N.2   551  NDP551     -0.2095
     16  C5A        9.0570   30.4310   86.2110 C.2   551  NDP551      0.2526
     17  C6A        8.7960   31.3200   87.2400 C.2   551  NDP551      0.4393
     18  N6A        7.8400   32.2120   87.1870 N.pl3 551  NDP551      0.2180
     19  N1A        9.5890   31.2400   88.3410 N.2   551  NDP551      0.0021
     20  C2A       10.5850   30.3390   88.4390 C.3   551  NDP551      0.5254
     21  N3A       10.9030   29.4640   87.4930 N.2   551  NDP551     -0.0055
     22  C4A       10.0970   29.5580   86.3910 C.2   551  NDP551      0.3518
     23  O3        12.0260   27.9080   78.9150 O.3   551  NDP551     -0.2703
     24  PN        13.1790   28.6590   78.0140 P.3   551  NDP551      0.2189
     25  O1N       13.2270   28.0030   76.7140 O.2   551  NDP551     -0.5170
     26  O2N       14.3970   28.4150   78.8290 O.3   551  NDP551     -0.4371
     27  O5D       12.8870   30.2520   78.0150 O.3   551  NDP551     -0.3112
     28  C5D       13.6670   30.9950   78.9170 C.3   551  NDP551      0.1813
     29  C4D       13.0540   32.3690   78.8300 C.3   551  NDP551      0.1799
     30  O4D       14.0040   33.2910   78.1300 O.3   551  NDP551     -0.3327
     31  C3D       11.8900   32.5830   77.8440 C.3   551  NDP551      0.2158
     32  O3D       11.5640   33.9960   77.9670 O.3   551  NDP551     -0.2175
     33  C2D       12.4700   32.4230   76.4690 C.3   551  NDP551      0.2309
     34  O2D       11.5690   32.9760   75.4360 O.3   551  NDP551     -0.2158
     35  C1D       13.6790   33.3900   76.7020 C.3   551  NDP551      0.2263
     36  N1N       14.9710   33.2720   75.9520 N.pl3 551  NDP551     -0.2787
     37  C2N       15.0550   33.1160   74.5170 C.3   551  NDP551      0.1244
     38  C3N       16.3940   33.1170   73.9680 C.2   551  NDP551      0.0544
     39  C7N       16.8000   32.9940   72.5390 C.2   551  NDP551      0.2818
     40  O7N       18.0040   33.0260   72.2570 O.2   551  NDP551     -0.2670
     41  N7N       15.9330   32.8500   71.5980 N.am  551  NDP551     -0.0839
     42  C4N       17.5040   33.2440   74.8130 C.2   551  NDP551      0.0033
     43  C5N       17.3150   33.3700   76.1800 C.2   551  NDP551      0.0157
     44  C6N       16.1090   33.3890   76.7090 C.2   551  NDP551      0.0633
     45  P2B        9.3610   24.3990   85.9830 P.3   551  NDP551      0.5328
     46  O1X       10.4290   23.3670   85.9250 O.3   551  NDP551     -0.1145
     47  O2X        8.6750   24.4520   87.2660 O.3   551  NDP551     -0.1145
     48  O3X        8.4610   24.3840   84.8130 O.2   551  NDP551     -0.2224
@<TRIPOS>BOND
     1    41    39   am
     2    40    39    2
     3    39    38    1
     4    38    37    1
     5    38    42    2
     6    37    36    1
     7    42    43    1
     8    34    33    1
     9    36    35    1
    10    36    44    1
    11    43    44    2
    12    33    35    1
    13    33    31    1
    14    35    30    1
    15    25    24    2
    16    31    32    1
    17    31    29    1
    18    24    27    1
    19    24    26    1
    20    24    23    1
    21    27    28    1
    22    30    29    1
    23     2     1    2
    24    29    28    1
    25    23     1    1
    26     3     1    1
    27     1     4    1
    28     4     5    1
    29     5     6    1
    30     6     7    1
    31     6     8    1
    32     7    12    1
    33    14    15    1
    34    14    13    1
    35     8    10    1
    36     8     9    1
    37    10    12    1
    38    10    11    1
    39    48    45    2
    40    12    13    1
    41    15    16    2
    42    13    22    1
    43    46    45    1
    44    11    45    1
    45    45    47    1
    46    16    22    1
    47    16    17    1
    48    22    21    2
    49    18    17    1
    50    17    19    2
    51    21    20    1
    52    19    20    1
