@<TRIPOS>MOLECULE
1hwz_GLU_A_1.pdb
 10 9 0 0 0
SMALL
GASTEIGER

@<TRIPOS>ATOM
      1  N         12.4640   32.0740   70.8990 N.3   550  GLU550     -0.1208
      2  CA        13.6560   32.7980   70.4900 C.3   550  GLU550      0.1949
      3  C         13.7310   34.2140   71.0280 C.2   550  GLU550      0.3819
      4  O         14.6100   34.9700   70.5540 O.co2 550  GLU550     -0.2441
      5  CB        13.7770   32.8240   68.9960 C.3   550  GLU550      0.0424
      6  CG        14.4830   31.6380   68.4380 C.3   550  GLU550      0.1161
      7  CD        14.6810   31.7880   66.9750 C.2   550  GLU550      0.3649
      8  OE1       14.6550   32.9260   66.4780 O.co2 550  GLU550     -0.2457
      9  OE2       14.8630   30.7720   66.3120 O.co2 550  GLU550     -0.2457
     10  OXT       12.9960   34.5040   71.9930 O.co2 550  GLU550     -0.2441
@<TRIPOS>BOND
     1     9     7   ar
     2     8     7   ar
     3     7     6    1
     4     6     5    1
     5     5     2    1
     6     2     1    1
     7     2     3    1
     8     4     3   ar
     9     3    10   ar
