@<TRIPOS>MOLECULE
1hwz_GTP_A_1.pdb
 32 34 0 0 0
SMALL
GASTEIGER

@<TRIPOS>ATOM
      1  PG        29.2000   21.3810   73.5140 P.3   553  GTP553      0.5373
      2  O1G       30.3990   22.3490   73.3250 O.3   553  GTP553     -0.1143
      3  O2G       27.8060   22.0980   73.1420 O.2   553  GTP553     -0.2221
      4  O3G       29.1510   20.9630   75.0440 O.3   553  GTP553     -0.1143
      5  O3B       29.3080   20.0710   72.8080 O.3   553  GTP553     -0.2258
      6  PB        29.9780   19.9370   71.3530 P.3   553  GTP553      0.2277
      7  O1B       29.6090   21.1390   70.5760 O.2   553  GTP553     -0.5168
      8  O2B       31.4240   19.7770   71.5410 O.3   553  GTP553     -0.4368
      9  O3A       29.3330   18.6610   70.6530 O.3   553  GTP553     -0.2700
     10  PA        28.8250   17.2960   71.4570 P.3   553  GTP553      0.2189
     11  O1A       29.5950   17.2320   72.7770 O.3   553  GTP553     -0.4371
     12  O2A       28.4840   16.0240   70.6780 O.2   553  GTP553     -0.5170
     13  O5'       27.3970   17.8380   71.8250 O.3   553  GTP553     -0.3112
     14  C5'       26.3210   17.8630   70.9040 C.3   553  GTP553      0.1813
     15  C4'       25.1690   18.4190   71.6360 C.3   553  GTP553      0.1799
     16  O4'       24.8460   17.7780   72.9490 O.3   553  GTP553     -0.3326
     17  C3'       25.5440   19.8590   71.9460 C.3   553  GTP553      0.2158
     18  O3'       24.4540   20.6860   71.5430 O.3   553  GTP553     -0.2175
     19  C2'       25.8820   19.8800   73.4490 C.3   553  GTP553      0.2310
     20  O2'       25.6110   21.1260   74.1500 O.3   553  GTP553     -0.2158
     21  C1'       24.9500   18.8230   73.9420 C.3   553  GTP553      0.2293
     22  N9        25.3740   18.2250   75.1980 N.pl3 553  GTP553     -0.2354
     23  C8        26.5730   17.7520   75.6200 C.3   553  GTP553      0.2246
     24  N7        26.6200   17.2710   76.8470 N.2   553  GTP553     -0.2322
     25  C5        25.2930   17.4520   77.2710 C.2   553  GTP553      0.2182
     26  C6        24.6250   17.1510   78.5100 C.1   553  GTP553      0.2372
     27  O6        25.0510   16.6590   79.5130 O.2   553  GTP553     -0.2069
     28  N1        23.3070   17.4950   78.5090 N.2   553  GTP553     -0.2485
     29  C2        22.6580   18.0740   77.4530 C.1   553  GTP553      0.2531
     30  N2        21.3920   18.3800   77.5950 N.pl3 553  GTP553     -0.0226
     31  N3        23.2430   18.3560   76.3080 N.2   553  GTP553     -0.3074
     32  C4        24.5580   18.0280   76.2670 C.2   553  GTP553      0.2300
@<TRIPOS>BOND
     1     7     6    2
     2     9     6    1
     3     9    10    1
     4    12    10    2
     5    14    15    1
     6    14    13    1
     7     6     8    1
     8     6     5    1
     9    10    13    1
    10    10    11    1
    11    18    17    1
    12    15    17    1
    13    15    16    1
    14    17    19    1
    15     5     1    1
    16    16    21    1
    17     3     1    2
    18     2     1    1
    19    19    21    1
    20    19    20    1
    21     1     4    1
    22    21    22    1
    23    22    23    1
    24    22    32    1
    25    23    24    1
    26    32    31    2
    27    32    25    1
    28    31    29    2
    29    24    25    2
    30    25    26    1
    31    29    30    1
    32    29    28    2
    33    28    26    2
    34    26    27    2
