@<TRIPOS>MOLECULE
1hx0_AC1_A_1.pdb
 21 22 0 0 0
SMALL
GASTEIGER

@<TRIPOS>ATOM
      1  C1        30.5580   19.2420   62.4260 C.3   1990  AC11990     0.1775
      2  O2        31.1790   21.4690   63.2350 O.3   1990  AC11990    -0.2177
      3  C2        30.8740   20.1320   63.6440 C.3   1990  AC11990     0.2129
      4  C4        33.5660   14.9230   68.4460 C.3   1990  AC11990     0.1872
      5  C3A       32.0320   19.5770   64.4410 C.3   1990  AC11990     0.2028
      6  O3A       32.2060   20.4170   65.5820 O.3   1990  AC11990    -0.2187
      7  C4A       31.7040   18.1260   64.8230 C.3   1990  AC11990     0.1327
      8  N4A       32.7080   17.5250   65.7310 N.3   1990  AC11990    -0.2131
      9  C5A       31.4150   17.2670   63.5720 C.3   1990  AC11990     0.1339
     10  O5        30.3430   17.9150   62.8710 O.3   1990  AC11990    -0.3519
     11  C6A       30.9750   15.8270   63.8970 C.3   1990  AC11990     0.0336
     12  C1B       32.2060   17.2550   67.1350 C.3   1990  AC11990     0.1060
     13  C2B       33.4100   17.3730   68.0380 C.3   1990  AC11990     0.2005
     14  O2B       34.1050   18.5750   67.7090 O.3   1990  AC11990    -0.2188
     15  C3B       34.3230   16.1470   67.9040 C.3   1990  AC11990     0.2136
     16  O3B       35.5460   16.3920   68.5840 O.3   1990  AC11990    -0.2176
     17  O4        34.3470   13.7130   68.4700 O.3   1990  AC11990    -0.2202
     18  C5B       32.3370   14.7090   67.5220 C.3   1990  AC11990     0.0675
     19  C7B       31.6880   15.8170   67.1120 C.3   1990  AC11990     0.0253
     20  C6B       31.6230   13.3650   67.6680 C.3   1990  AC11990     0.1847
     21  O6B       30.4500   13.2880   66.8590 O.3   1990  AC11990    -0.2203
@<TRIPOS>BOND
     1     1    10    1
     2     1     3    1
     3    10     9    1
     4     2     3    1
     5     9    11    1
     6     9     7    1
     7     3     5    1
     8     5     7    1
     9     5     6    1
    10     7     8    1
    11     8    12    1
    12    21    20    1
    13    19    12    1
    14    19    18    1
    15    12    13    1
    16    18    20    1
    17    18     4    1
    18    14    13    1
    19    15    13    1
    20    15     4    1
    21    15    16    1
    22     4    17    1
