@<TRIPOS>MOLECULE
1hx0_GLC_A_1.pdb
 11 11 0 0 0
SMALL
GASTEIGER

@<TRIPOS>ATOM
      1  C1        31.9670   20.3510   57.4470 C.3   1991  GLC1991     0.1777
      2  C2        32.1350   21.4560   58.4950 C.3   1991  GLC1991     0.2141
      3  C3        32.4590   20.9190   59.8860 C.3   1991  GLC1991     0.2173
      4  C4        31.4150   19.8720   60.2390 C.3   1991  GLC1991     0.2142
      5  C5        31.5240   18.7540   59.2220 C.3   1991  GLC1991     0.1810
      6  C6        30.6480   17.5660   59.5070 C.3   1991  GLC1991     0.2141
      7  O2        33.1580   22.3140   58.0420 O.3   1991  GLC1991    -0.2176
      8  O3        32.4120   21.9460   60.8490 O.3   1991  GLC1991    -0.2175
      9  O4        31.6680   19.3180   61.5380 O.3   1991  GLC1991    -0.2176
     10  O5        31.1000   19.3200   57.9620 O.3   1991  GLC1991    -0.3481
     11  O6        29.3060   17.8740   59.7230 O.3   1991  GLC1991    -0.2176
@<TRIPOS>BOND
     1     1    10    1
     2     1     2    1
     3    10     5    1
     4     7     2    1
     5     2     3    1
     6     5     6    1
     7     5     4    1
     8     6    11    1
     9     3     4    1
    10     3     8    1
    11     4     9    1
