@<TRIPOS>MOLECULE
1hx0_BGC_A_1.pdb
 12 12 0 0 0
SMALL
GASTEIGER

@<TRIPOS>ATOM
      1  C2        43.9540   22.8440   57.1340 C.3   2993  BGC2993     0.2434
      2  C3        42.7480   22.3280   56.3830 C.3   2993  BGC2993     0.2199
      3  C4        41.5370   22.1780   57.3200 C.3   2993  BGC2993     0.2144
      4  C5        41.2390   23.5830   57.8350 C.3   2993  BGC2993     0.1836
      5  C6        39.9800   23.5770   58.7100 C.3   2993  BGC2993     0.2142
      6  C1        43.5660   24.1570   57.8260 C.3   2993  BGC2993     0.3024
      7  O1        44.5820   24.5230   58.7590 O.3   2993  BGC2993    -0.1869
      8  O2        45.0660   23.0260   56.2350 O.3   2993  BGC2993    -0.2148
      9  O3        42.8170   21.0330   55.8430 O.3   2993  BGC2993    -0.2174
     10  O4        40.4410   21.7810   56.4850 O.3   2993  BGC2993    -0.2176
     11  O5        42.3750   23.9600   58.6220 O.3   2993  BGC2993    -0.3236
     12  O6        40.0710   24.5360   59.7460 O.3   2993  BGC2993    -0.2176
@<TRIPOS>BOND
     1     9     2    1
     2     8     1    1
     3     2     1    1
     4     2     3    1
     5    10     3    1
     6     1     6    1
     7     3     4    1
     8     6    11    1
     9     6     7    1
    10     4    11    1
    11     4     5    1
    12     5    12    1
