@<TRIPOS>MOLECULE
1hx0_MAL_A_1.pdb
 22 23 0 0 0
SMALL
GASTEIGER

@<TRIPOS>ATOM
      1  C1        53.5540   35.0170   45.1410 C.3   1994  MAL1994     0.2695
      2  C2        52.9420   34.4170   46.3960 C.3   1994  MAL1994     0.2406
      3  C3        54.0360   33.9000   47.3100 C.3   1994  MAL1994     0.2198
      4  C4        54.7670   32.8020   46.5370 C.3   1994  MAL1994     0.2144
      5  C5        55.3470   33.3610   45.2310 C.3   1994  MAL1994     0.1835
      6  C6        55.8660   32.2870   44.2610 C.3   1994  MAL1994     0.2142
      7  O1        54.1410   36.2650   45.4430 O.3   1994  MAL1994    -0.3257
      8  O2        52.2390   35.4960   46.9960 O.3   1994  MAL1994    -0.2149
      9  O3        53.4600   33.4620   48.5440 O.3   1994  MAL1994    -0.2174
     10  O4        55.8800   32.3390   47.3300 O.3   1994  MAL1994    -0.2176
     11  O5        54.4190   34.1460   44.4650 O.3   1994  MAL1994    -0.3256
     12  O6        56.4690   31.2220   44.9870 O.3   1994  MAL1994    -0.2176
     13  C1'       54.0590   40.2090   44.2860 C.3   1994  MAL1994     0.1777
     14  C2'       53.1910   39.8130   45.4530 C.3   1994  MAL1994     0.2140
     15  C3'       53.5140   38.4570   46.0970 C.3   1994  MAL1994     0.2141
     16  C4'       53.4670   37.4460   44.9740 C.3   1994  MAL1994     0.1802
     17  C5'       54.4000   37.9030   43.8560 C.3   1994  MAL1994     0.1778
     18  C6'       54.3320   36.9760   42.6290 C.3   1994  MAL1994     0.2140
     19  O2'       53.4470   40.6810   46.5270 O.3   1994  MAL1994    -0.2176
     20  O3'       52.6360   38.1990   47.2000 O.3   1994  MAL1994    -0.2176
     21  O5'       54.1250   39.2140   43.2810 O.3   1994  MAL1994    -0.3482
     22  O6'       55.3020   37.6560   41.8110 O.3   1994  MAL1994    -0.2176
@<TRIPOS>BOND
     1    22    18    1
     2    18    17    1
     3    21    17    1
     4    21    13    1
     5    17    16    1
     6     6    12    1
     7     6     5    1
     8    13    14    1
     9    11     1    1
    10    11     5    1
    11    16     7    1
    12    16    15    1
    13     1     7    1
    14     1     2    1
    15     5     4    1
    16    14    15    1
    17    14    19    1
    18    15    20    1
    19     2     8    1
    20     2     3    1
    21     4     3    1
    22     4    10    1
    23     3     9    1
