@<TRIPOS>MOLECULE
1hx9_FHP_A_1.pdb
 20 19 0 0 0
SMALL
GASTEIGER

@<TRIPOS>ATOM
      1  C1       108.0260   41.1290   50.6830 C.3   900  FHP900      0.2242
      2  C2       108.4240   42.2890   49.7280 C.2   900  FHP900      0.0051
      3  C3       109.1400   42.0400   48.6120 C.2   900  FHP900     -0.0453
      4  C4       109.4140   43.1510   47.6120 C.3   900  FHP900      0.0218
      5  C5       110.2160   42.8300   46.3130 C.3   900  FHP900      0.0043
      6  C6       111.3750   41.8310   46.5010 C.3   900  FHP900      0.0003
      7  C7       111.7910   41.0060   45.4920 C.3   900  FHP900      0.0003
      8  C8       112.9450   40.0430   45.7730 C.3   900  FHP900      0.0046
      9  C9       113.1730   38.5240   45.9780 C.3   900  FHP900      0.0254
     10  C10      113.1680   37.9980   47.4220 C.2   900  FHP900     -0.0346
     11  C11      113.5660   36.7410   47.6790 C.2   900  FHP900     -0.0478
     12  C12      113.5540   36.2490   49.0630 C.3   900  FHP900      0.0260
     13  C13      114.3140   35.9750   46.6400 C.3   900  FHP900      0.0260
     14  C14      111.5500   41.4280   44.0780 C.3   900  FHP900      0.0000
     15  C15      109.4850   40.6170   48.2610 C.3   900  FHP900      0.0261
     16  O1       109.0870   40.2680   51.0640 O.3   900  FHP900     -0.2104
     17  O1A      106.6790   39.9740   48.9450 O.2   900  FHP900     -0.4573
     18  O2A      106.6830   39.2190   51.3250 O.3   900  FHP900     -0.3553
     19  O3A      105.2590   41.1500   50.6030 O.3   900  FHP900     -0.3553
     20  PA       106.4450   40.3040   50.3540 P.3   900  FHP900      0.1516
@<TRIPOS>BOND
     1    14     7    1
     2     7     8    1
     3     7     6    1
     4     8     9    1
     5     9    10    1
     6     5     6    1
     7     5     4    1
     8    13    11    1
     9    10    11    2
    10     4     3    1
    11    11    12    1
    12    15     3    1
    13     3     2    2
    14    17    20    2
    15     2     1    1
    16    20    19    1
    17    20     1    1
    18    20    18    1
    19     1    16    1
