@<TRIPOS>MOLECULE
1hxa_FHP_A_1.pdb
 20 19 0 0 0
SMALL
GASTEIGER

@<TRIPOS>ATOM
      1  C1       106.4120   39.0600   48.2740 C.3   900  FHP900      0.2029
      2  C2       108.0090   38.9850   48.0870 C.3   900  FHP900      0.0405
      3  C3       108.7000   37.8360   47.6970 C.3   900  FHP900      0.0030
      4  C4       110.0410   38.0290   46.9300 C.3   900  FHP900      0.0001
      5  C5       111.2210   37.0980   47.4540 C.3   900  FHP900      0.0000
      6  C6       112.6500   37.6300   47.0890 C.3   900  FHP900      0.0000
      7  C7       113.7580   36.8070   47.0500 C.3   900  FHP900      0.0003
      8  C8       115.1150   37.3940   46.6930 C.3   900  FHP900      0.0046
      9  C9       115.7070   38.1990   47.8890 C.3   900  FHP900      0.0254
     10  C10      117.2100   38.5640   47.8000 C.2   900  FHP900     -0.0346
     11  C11      117.7280   39.1200   46.6770 C.2   900  FHP900     -0.0478
     12  C12      119.1770   39.4650   46.6130 C.3   900  FHP900      0.0260
     13  C13      116.8670   39.3310   45.4840 C.3   900  FHP900      0.0260
     14  C14      113.5680   35.3290   46.9380 C.3   900  FHP900      0.0000
     15  C15      107.9190   36.5730   47.4530 C.3   900  FHP900      0.0001
     16  O1       105.6190   38.2150   47.4150 O.3   900  FHP900     -0.2152
     17  O1A      104.2680   39.3890   49.7390 O.2   900  FHP900     -0.4576
     18  O2A      106.1830   38.0840   50.6640 O.3   900  FHP900     -0.3555
     19  O3A      106.3900   40.5570   50.4030 O.3   900  FHP900     -0.3555
     20  PA       105.7460   39.2990   49.9640 P.3   900  FHP900      0.1473
@<TRIPOS>BOND
     1    13    11    1
     2    12    11    1
     3    11    10    2
     4     8     7    1
     5     8     9    1
     6     4     5    1
     7     4     3    1
     8    14     7    1
     9     7     6    1
    10     6     5    1
    11    16     1    1
    12    15     3    1
    13     3     2    1
    14    10     9    1
    15     2     1    1
    16     1    20    1
    17    17    20    2
    18    20    19    1
    19    20    18    1
