@<TRIPOS>MOLECULE
1hxb_ROC_A_1.pdb
 49 53 0 0 0
SMALL
GASTEIGER

@<TRIPOS>ATOM
      1  C         19.0260   -3.5990    6.5160 C.2   100  ROC100      0.2910
      2  O         20.1680   -3.4210    6.0800 O.2   100  ROC100     -0.2659
      3  N1        17.0310   -4.8170    6.8790 N.2   100  ROC100     -0.4013
      4  C2        18.3400   -4.8180    6.5140 C.2   100  ROC100      0.1679
      5  C3        18.9700   -6.0340    6.2250 C.3   100  ROC100      0.0899
      6  C4        18.2400   -7.2190    6.3330 C.2   100  ROC100     -0.0160
      7  C5        16.1460   -8.3330    6.8450 C.ar  100  ROC100      0.0022
      8  C6        14.8060   -8.2410    7.2430 C.ar  100  ROC100      0.0002
      9  C7        14.2170   -7.0010    7.5160 C.ar  100  ROC100      0.0026
     10  C8        14.9660   -5.8350    7.3930 C.ar  100  ROC100      0.0320
     11  C4A       16.8980   -7.1660    6.7210 C.ar  100  ROC100      0.0257
     12  C8A       16.2970   -5.9290    6.9950 C.ar  100  ROC100      0.1309
     13  N         18.2790   -2.6270    7.0450 N.am  100  ROC100     -0.1916
     14  CA        18.7730   -1.2910    7.3000 C.3   100  ROC100      0.1823
     15  C1        18.6260   -0.8980    8.7610 C.2   100  ROC100      0.2618
     16  O1        17.7090   -0.1980    9.2080 O.2   100  ROC100     -0.2715
     17  CB        18.0410   -0.3040    6.4420 C.3   100  ROC100      0.1195
     18  CG        18.4490   -0.5710    5.0140 C.2   100  ROC100      0.2630
     19  OD1       19.6160   -0.6910    4.6750 O.2   100  ROC100     -0.2716
     20  ND2       17.5560   -0.7630    4.0770 N.am  100  ROC100     -0.0877
     21  C9        20.5870    0.0830   11.1880 C.3   100  ROC100      0.1879
     22  O2        21.8770   -0.5100   11.1080 O.3   100  ROC100     -0.2198
     23  CA1       19.5590   -1.0490   10.9830 C.3   100  ROC100      0.1313
     24  N2        19.5670   -1.3870    9.5690 N.am  100  ROC100     -0.2027
     25  CB1       19.8880   -2.3140   11.7920 C.3   100  ROC100      0.0506
     26  CG1       19.0890   -3.5050   11.3210 C.ar  100  ROC100     -0.0204
     27  CD1       17.7280   -3.5760   11.5980 C.ar  100  ROC100     -0.0042
     28  CD2       19.7250   -4.4940   10.5720 C.ar  100  ROC100     -0.0042
     29  CE1       16.9950   -4.6560   11.1170 C.ar  100  ROC100     -0.0003
     30  CE2       18.9830   -5.5600   10.1010 C.ar  100  ROC100     -0.0003
     31  CZ        17.6200   -5.6400   10.3700 C.ar  100  ROC100     -0.0000
     32  N11       19.4210    1.9070   12.4190 N.3   100  ROC100     -0.2643
     33  CM        20.4640    0.8860   12.4880 C.3   100  ROC100      0.1075
     34  C21       18.8880    2.2870   13.7380 C.3   100  ROC100      0.1365
     35  CC        18.2420    1.1880   14.5710 C.2   100  ROC100      0.2558
     36  O3        17.3660    0.4830   14.0690 O.2   100  ROC100     -0.2719
     37  C31       17.8450    3.3900   13.5940 C.3   100  ROC100      0.0254
     38  C3A       18.4400    4.6080   12.9310 C.3   100  ROC100      0.0032
     39  C41       17.3550    5.6530   12.7550 C.3   100  ROC100      0.0001
     40  C51       16.3630    5.2980   11.6560 C.3   100  ROC100      0.0000
     41  C61       17.0720    5.0810   10.3330 C.3   100  ROC100      0.0000
     42  C71       17.9910    3.8940   10.5180 C.3   100  ROC100      0.0014
     43  C7A       19.0660    4.2160   11.5430 C.3   100  ROC100      0.0161
     44  C81       20.0220    3.0510   11.7430 C.3   100  ROC100      0.0725
     45  N3        18.7210    1.1200   15.8140 N.am  100  ROC100     -0.2077
     46  CD        18.3340    0.1420   16.8130 C.3   100  ROC100      0.0788
     47  C11       19.1540    0.4560   18.0370 C.3   100  ROC100      0.0217
     48  C22       16.8870    0.3020   17.1980 C.3   100  ROC100      0.0217
     49  C32       18.6330   -1.2900   16.3650 C.3   100  ROC100      0.0217
@<TRIPOS>BOND
     1    20    18   am
     2    19    18    2
     3    18    17    1
     4     2     1    2
     5     5     6    1
     6     5     4    1
     7     6    11    2
     8    17    14    1
     9     4     1    1
    10     4     3    2
    11     1    13   am
    12    11     7   ar
    13    11    12   ar
    14     7     8   ar
    15     3    12    2
    16    12    10   ar
    17    13    14    1
    18     8     9   ar
    19    14    15    1
    20    10     9   ar
    21    15    16    2
    22    15    24   am
    23    24    23    1
    24    30    31   ar
    25    30    28   ar
    26    41    42    1
    27    41    40    1
    28    31    29   ar
    29    42    43    1
    30    28    26   ar
    31    23    21    1
    32    23    25    1
    33    22    21    1
    34    29    27   ar
    35    21    33    1
    36    26    27   ar
    37    26    25    1
    38    43    44    1
    39    43    38    1
    40    40    39    1
    41    44    32    1
    42    32    33    1
    43    32    34    1
    44    39    38    1
    45    38    37    1
    46    37    34    1
    47    34    35    1
    48    36    35    2
    49    35    45   am
    50    45    46    1
    51    49    46    1
    52    46    48    1
    53    46    47    1
