@<TRIPOS>MOLECULE
1hxc_FHP_A_1.pdb
 20 19 0 0 0
SMALL
GASTEIGER

@<TRIPOS>ATOM
      1  C1       104.2130   41.6290   46.9740 C.3   900  FHP900      0.2242
      2  C2       105.7880   41.8110   47.2090 C.2   900  FHP900      0.0051
      3  C3       106.7170   40.8500   47.0520 C.2   900  FHP900     -0.0450
      4  C4       108.1690   41.1750   47.3140 C.3   900  FHP900      0.0264
      5  C5       109.1170   40.2980   46.4940 C.3   900  FHP900      0.0297
      6  C6       110.5840   40.5190   46.9230 C.2   900  FHP900     -0.0342
      7  C7       111.6320   40.0540   46.1690 C.2   900  FHP900     -0.0478
      8  C8       113.0650   40.3070   46.6250 C.3   900  FHP900      0.0263
      9  C9       113.9000   40.9180   45.5030 C.3   900  FHP900      0.0297
     10  C10      114.2980   42.3780   45.7800 C.2   900  FHP900     -0.0342
     11  C11      114.7530   42.7490   46.9900 C.2   900  FHP900     -0.0478
     12  C12      115.1300   44.1760   47.2340 C.3   900  FHP900      0.0260
     13  C13      114.7320   41.7740   48.1370 C.3   900  FHP900      0.0260
     14  C14      111.3760   39.1370   45.0020 C.3   900  FHP900      0.0260
     15  C15      106.3260   39.5130   46.5980 C.3   900  FHP900      0.0261
     16  O1       103.5990   42.9190   46.7250 O.3   900  FHP900     -0.2104
     17  O1A      103.5270   41.8120   49.3990 O.3   900  FHP900     -0.3553
     18  O2A      101.8820   40.9580   47.6590 O.2   900  FHP900     -0.4573
     19  O3A      103.8030   39.4710   48.4100 O.3   900  FHP900     -0.3553
     20  PA       103.2600   40.8650   48.2650 P.3   900  FHP900      0.1516
@<TRIPOS>BOND
     1    14     7    1
     2     9    10    1
     3     9     8    1
     4    10    11    2
     5     7     8    1
     6     7     6    2
     7     5     6    1
     8     5     4    1
     9    15     3    1
    10    16     1    1
    11     1     2    1
    12     1    20    1
    13    11    12    1
    14    11    13    1
    15     3     2    2
    16     3     4    1
    17    18    20    2
    18    20    19    1
    19    20    17    1
