@<TRIPOS>MOLECULE
1hxd_BTN_A_1.pdb
 16 17 0 0 0
SMALL
GASTEIGER

@<TRIPOS>ATOM
      1  C11       55.0160    4.1070   53.2770 C.2   500  BTN500      0.3649
      2  O11       53.8490    4.2520   52.8860 O.co2 500  BTN500     -0.2457
      3  O12       55.2910    3.6850   54.4270 O.co2 500  BTN500     -0.2457
      4  C10       56.1680    4.3630   52.3540 C.3   500  BTN500      0.1141
      5  C9        56.8550    5.6580   52.7540 C.3   500  BTN500      0.0118
      6  C8        57.9250    6.1000   51.7520 C.3   500  BTN500      0.0015
      7  C7        58.5270    7.4770   52.1100 C.3   500  BTN500      0.0129
      8  C2        59.7940    7.8090   51.3910 C.3   500  BTN500      0.0729
      9  S1        60.6800    9.2820   52.0000 S.3   500  BTN500     -0.1369
     10  C6        61.6260    9.4230   50.4610 C.3   500  BTN500      0.0848
     11  C5        60.6740    9.0250   49.3490 C.3   500  BTN500      0.1509
     12  N1        59.9670   10.1880   48.8710 N.2   500  BTN500     -0.1859
     13  C3        58.7380   10.2510   49.3970 C.1   500  BTN500      0.2386
     14  O3        58.0410   11.2660   49.4780 O.2   500  BTN500     -0.2023
     15  N2        58.3850    9.0330   49.8820 N.2   500  BTN500     -0.1860
     16  C4        59.5220    8.1400   49.9380 C.3   500  BTN500      0.1500
@<TRIPOS>BOND
     1    12    11    1
     2    12    13    2
     3    11    16    1
     4    11    10    1
     5    13    14    2
     6    13    15    2
     7    15    16    1
     8    16     8    1
     9    10     9    1
    10     8     9    1
    11     8     7    1
    12     6     7    1
    13     6     5    1
    14     4     5    1
    15     4     1    1
    16     2     1   ar
    17     1     3   ar
