@<TRIPOS>MOLECULE
1hxk_DMJ_A_1.pdb
 11 11 0 0 0
SMALL
GASTEIGER

@<TRIPOS>ATOM
      1  C4        31.4610   66.5350    7.0130 C.3   1103  DMJ1103     0.2031
      2  O4        31.5280   66.9670    5.6500 O.3   1103  DMJ1103    -0.2187
      3  C3        32.7490   66.8930    7.7560 C.3   1103  DMJ1103     0.2151
      4  O3        33.8270   66.2100    7.1240 O.3   1103  DMJ1103    -0.2176
      5  C2        32.6990   66.5410    9.3050 C.3   1103  DMJ1103     0.2020
      6  O2        32.9200   65.1540    9.5360 O.3   1103  DMJ1103    -0.2188
      7  C1        31.4090   66.9840    9.9570 C.3   1103  DMJ1103     0.1243
      8  N5        30.1880   66.7560    9.1100 N.3   1103  DMJ1103    -0.2113
      9  C5        30.2950   67.1800    7.6790 C.3   1103  DMJ1103     0.1386
     10  C6        28.9460   66.8610    7.0320 C.3   1103  DMJ1103     0.2020
     11  O6        27.7870   66.9630    7.8360 O.3   1103  DMJ1103    -0.2188
@<TRIPOS>BOND
     1     2     1    1
     2     1     9    1
     3     1     3    1
     4    10     9    1
     5    10    11    1
     6     4     3    1
     7     9     8    1
     8     3     5    1
     9     8     7    1
    10     5     6    1
    11     5     7    1
