@<TRIPOS>MOLECULE
1hxp_UDP_B_1.pdb
 25 26 0 0 0
SMALL
GASTEIGER

@<TRIPOS>ATOM
      1  N1        19.4880   72.6130   58.1110 N.am  352  UDP352     -0.1766
      2  C2        19.9090   71.9320   59.2250 C.1   352  UDP352      0.2845
      3  N3        18.9410   71.2030   59.8730 N.2   352  UDP352     -0.2452
      4  C4        17.6000   71.1020   59.4980 C.1   352  UDP352      0.2182
      5  C5        17.2660   71.8390   58.3300 C.2   352  UDP352      0.1242
      6  C6        18.1700   72.5450   57.6940 C.2   352  UDP352      0.0929
      7  O2        21.0810   72.0350   59.5400 O.2   352  UDP352     -0.1918
      8  O4        16.8220   70.4240   60.1450 O.2   352  UDP352     -0.2085
      9  C1'       20.5230   73.4030   57.4160 C.3   352  UDP352      0.2401
     10  C2'       20.9290   73.1310   55.9930 C.3   352  UDP352      0.2319
     11  O2'       22.0720   72.2490   55.8600 O.3   352  UDP352     -0.2157
     12  C3'       21.2660   74.5530   55.5380 C.3   352  UDP352      0.2158
     13  C4'       20.2140   75.3990   56.2120 C.3   352  UDP352      0.1799
     14  O4'       20.0850   74.7410   57.4940 O.3   352  UDP352     -0.3320
     15  O3'       22.5430   74.9530   56.0000 O.3   352  UDP352     -0.2175
     16  C5'       18.9400   75.6400   55.4110 C.3   352  UDP352      0.1813
     17  O5'       17.9740   74.5830   55.2330 O.3   352  UDP352     -0.3111
     18  PA        16.5410   74.8030   54.5410 P.3   352  UDP352      0.2231
     19  O1A       15.7230   75.7300   55.3520 O.3   352  UDP352     -0.4370
     20  O2A       15.8150   73.5800   54.1070 O.2   352  UDP352     -0.5169
     21  O3A       17.1070   75.5320   53.1690 O.3   352  UDP352     -0.2261
     22  PB        18.2050   75.0110   52.2000 P.3   352  UDP352      0.5373
     23  O1B       18.2200   76.2310   51.1570 O.2   352  UDP352     -0.2221
     24  O2B       17.6060   73.7990   51.5700 O.3   352  UDP352     -0.1143
     25  O3B       19.3710   74.5000   52.9660 O.3   352  UDP352     -0.1143
@<TRIPOS>BOND
     1    23    22    2
     2    24    22    1
     3    22    25    1
     4    22    21    1
     5    21    18    1
     6    20    18    2
     7    18    17    1
     8    18    19    1
     9    17    16    1
    10    16    13    1
    11    12    10    1
    12    12    15    1
    13    12    13    1
    14    11    10    1
    15    10     9    1
    16    13    14    1
    17     9    14    1
    18     9     1    1
    19     6     1    1
    20     6     5    2
    21     1     2   am
    22     5     4    1
    23     2     7    2
    24     2     3    2
    25     4     3    2
    26     4     8    2
