@<TRIPOS>MOLECULE
1hxp_U5P_A_1.pdb
 21 22 0 0 0
SMALL
GASTEIGER

@<TRIPOS>ATOM
      1  N1        26.7350   86.5820   18.2070 N.am  355  U5P355     -0.1766
      2  C2        27.2730   87.2130   17.1180 C.1   355  U5P355      0.2845
      3  N3        26.3750   87.7920   16.2600 N.2   355  U5P355     -0.2452
      4  C4        24.9900   87.8000   16.3930 C.1   355  U5P355      0.2182
      5  C5        24.5300   87.1190   17.5520 C.2   355  U5P355      0.1242
      6  C6        25.3690   86.5550   18.3880 C.2   355  U5P355      0.0929
      7  O2        28.4860   87.2500   16.9950 O.2   355  U5P355     -0.1918
      8  O4        24.3180   88.3600   15.5420 O.2   355  U5P355     -0.2085
      9  C1'       27.6670   85.9490   19.1560 C.3   355  U5P355      0.2401
     10  C2'       27.5610   86.5090   20.5670 C.3   355  U5P355      0.2319
     11  O2'       28.3850   87.6750   20.7740 O.3   355  U5P355     -0.2157
     12  C3'       27.9380   85.3160   21.4600 C.3   355  U5P355      0.2158
     13  C4'       27.4200   84.1380   20.6340 C.3   355  U5P355      0.1801
     14  O3'       29.2940   85.3080   21.9800 O.3   355  U5P355     -0.2175
     15  O4'       27.4600   84.5670   19.2440 O.3   355  U5P355     -0.3320
     16  C5'       25.9790   83.6790   20.8320 C.3   355  U5P355      0.1859
     17  O5'       25.6030   83.4100   22.2000 O.3   355  U5P355     -0.2675
     18  P         24.6010   84.4090   22.9890 P.3   355  U5P355      0.5327
     19  O1P       25.0920   85.7930   23.3450 O.3   355  U5P355     -0.1145
     20  O2P       24.2570   83.8270   24.3190 O.3   355  U5P355     -0.1145
     21  O3P       23.2160   84.3130   22.0710 O.2   355  U5P355     -0.2224
@<TRIPOS>BOND
     1     8     4    2
     2     3     4    2
     3     3     2    2
     4     4     5    1
     5     7     2    2
     6     2     1   am
     7     5     6    2
     8     1     6    1
     9     1     9    1
    10     9    15    1
    11     9    10    1
    12    15    13    1
    13    10    11    1
    14    10    12    1
    15    13    16    1
    16    13    12    1
    17    16    17    1
    18    12    14    1
    19    21    18    2
    20    17    18    1
    21    18    19    1
    22    18    20    1
