@<TRIPOS>MOLECULE
1hxq_U5P_A_1.pdb
 20 21 0 0 0
SMALL
GASTEIGER

@<TRIPOS>ATOM
      1  N1        26.2070   85.8670   18.2020 N.am  352  U5P352     -0.1766
      2  C2        26.6920   86.7430   17.2980 C.1   352  U5P352      0.2845
      3  N3        25.7990   87.2330   16.3910 N.2   352  U5P352     -0.2452
      4  C4        24.4560   86.8800   16.3540 C.1   352  U5P352      0.2182
      5  C5        24.0270   85.9410   17.3450 C.2   352  U5P352      0.1242
      6  C6        24.8880   85.4690   18.2220 C.2   352  U5P352      0.0929
      7  O2        27.8940   87.1150   17.2670 O.2   352  U5P352     -0.1918
      8  O4        23.7500   87.3710   15.5050 O.2   352  U5P352     -0.2085
      9  C1'       27.1090   85.2930   19.2180 C.3   352  U5P352      0.2401
     10  C2'       26.4750   85.3380   20.6030 C.3   352  U5P352      0.2319
     11  O2'       26.6160   86.6540   21.1700 O.3   352  U5P352     -0.2157
     12  C3'       27.2800   84.2440   21.2930 C.3   352  U5P352      0.2158
     13  C4'       27.5900   83.2910   20.1560 C.3   352  U5P352      0.1800
     14  O3'       28.5430   84.7410   21.7690 O.3   352  U5P352     -0.2175
     15  O4'       27.0730   83.9370   18.9730 O.3   352  U5P352     -0.3320
     16  C5'       26.8190   82.0070   20.2860 C.3   352  U5P352      0.1830
     17  O5'       27.5380   81.2610   21.2680 O.3   352  U5P352     -0.2926
     18  P         26.8110   80.1180   22.0540 P.3   352  U5P352      0.3942
     19  O1P       25.5540   80.5860   22.6580 O.3   352  U5P352     -0.1425
     20  O2P       27.8810   79.5360   22.8720 O.3   352  U5P352     -0.1425
@<TRIPOS>BOND
     1     8     4    2
     2     4     3    2
     3     4     5    1
     4     3     2    2
     5     7     2    2
     6     2     1   am
     7     5     6    2
     8     1     6    1
     9     1     9    1
    10    15     9    1
    11    15    13    1
    12     9    10    1
    13    13    16    1
    14    13    12    1
    15    16    17    1
    16    10    11    1
    17    10    12    1
    18    17    18    1
    19    12    14    1
    20    18    19    1
    21    18    20    1
