@<TRIPOS>MOLECULE
1hxw_RIT_B_1.pdb
 50 53 0 0 0
SMALL
GASTEIGER

@<TRIPOS>ATOM
      1  C1        16.6620   17.7900    1.4940 C.ar  301  RIT301      0.1053
      2  C2        16.2290   17.9350    2.7840 C.ar  301  RIT301      0.0714
      3  S3        17.3450   17.3240    4.0360 S.2   301  RIT301     -0.0652
      4  C4        18.3160   17.1130    2.5550 C.ar  301  RIT301      0.1343
      5  N5        17.8670   17.3660    1.3770 N.ar  301  RIT301     -0.2350
      6  C6        15.0730   18.4170    3.4890 C.3   301  RIT301      0.2448
      7  O7        15.1860   19.8130    3.7080 O.3   301  RIT301     -0.4279
      8  C10       14.2160   20.6020    4.3390 C.2   301  RIT301      0.4215
      9  O24       13.1030   20.1700    4.6600 O.2   301  RIT301     -0.2246
     10  N11       14.6500   21.8720    4.5250 N.am  301  RIT301     -0.1675
     11  C12       13.8730   22.9120    5.2280 C.3   301  RIT301      0.1333
     12  C13       13.5030   24.1400    4.3920 C.3   301  RIT301      0.1739
     13  C14       12.6720   23.8060    3.1710 C.3   301  RIT301      0.0567
     14  C15       11.1400   23.5720    3.3150 C.3   301  RIT301      0.1023
     15  C26       14.2610   23.2430    6.6710 C.3   301  RIT301      0.0507
     16  C28       14.8160   22.2250    7.5340 C.ar  301  RIT301     -0.0204
     17  C31       13.7990   21.7080    8.3440 C.ar  301  RIT301     -0.0042
     18  C32       14.0980   20.6030    9.1570 C.ar  301  RIT301     -0.0003
     19  C33       15.3740   20.0130    9.1710 C.ar  301  RIT301     -0.0000
     20  C34       16.3920   20.5660    8.3640 C.ar  301  RIT301     -0.0003
     21  C35       16.1150   21.6680    7.5490 C.ar  301  RIT301     -0.0042
     22  O41       14.7540   24.6640    3.9780 O.3   301  RIT301     -0.2212
     23  C44       10.5690   23.5860    1.9290 C.3   301  RIT301      0.0481
     24  C45        9.2540   22.9780    2.0010 C.ar  301  RIT301     -0.0205
     25  C48        8.1490   23.8450    2.0180 C.ar  301  RIT301     -0.0042
     26  C49        6.8360   23.3350    2.0410 C.ar  301  RIT301     -0.0003
     27  C50        6.6600   21.9490    2.0260 C.ar  301  RIT301     -0.0000
     28  C51        7.7560   21.0900    2.0030 C.ar  301  RIT301     -0.0003
     29  C52        9.0590   21.5930    1.9920 C.ar  301  RIT301     -0.0042
     30  N58       10.4690   24.5540    4.1370 N.am  301  RIT301     -0.2053
     31  N20        7.9060   25.6800    5.5030 N.am  301  RIT301     -0.1808
     32  C19        9.2740   25.5150    5.9960 C.3   301  RIT301      0.1742
     33  C18        9.9600   24.2980    5.3480 C.2   301  RIT301      0.2612
     34  O61        9.9680   23.1590    5.8580 O.2   301  RIT301     -0.2715
     35  C62        9.2550   25.5670    7.5570 C.3   301  RIT301      0.0290
     36  C64       10.5960   25.2750    8.2820 C.3   301  RIT301      0.0023
     37  C68        8.5650   26.8410    8.0950 C.3   301  RIT301      0.0023
     38  C21        7.6650   26.5180    4.4810 C.2   301  RIT301      0.3240
     39  N74        6.4230   26.4000    3.9580 N.am  301  RIT301     -0.2546
     40  C75        5.9690   27.3450    2.9380 C.3   301  RIT301      0.1504
     41  O76        8.4710   27.4270    4.1920 O.2   301  RIT301     -0.2507
     42  C77        5.9100   26.8490    1.5590 C.2   301  RIT301      0.1182
     43  C80        7.0240   27.0120    0.7840 C.3   301  RIT301      0.1202
     44  S81        6.6390   26.2570   -0.7850 S.3   301  RIT301     -0.0795
     45  C82        5.0870   25.7360   -0.1240 C.2   301  RIT301      0.1335
     46  N83        4.8710   26.2630    1.0440 N.2   301  RIT301     -0.4061
     47  C85        4.4970   24.8860   -1.0460 C.3   301  RIT301      0.0585
     48  C86        4.1390   25.1310   -2.5060 C.3   301  RIT301      0.0080
     49  C90        3.2450   24.3730   -0.4620 C.3   301  RIT301      0.0080
     50  C95        5.4840   25.5080    4.2400 C.3   301  RIT301      0.1169
@<TRIPOS>BOND
     1    48    47    1
     2    47    49    1
     3    47    45    1
     4    44    45    1
     5    44    43    1
     6    45    46    2
     7    43    42    1
     8    46    42    2
     9     5     1   ar
    10     5     4   ar
    11     1     2   ar
    12    42    40    1
    13    23    24    1
    14    23    14    1
    15    29    24   ar
    16    29    28   ar
    17    24    25   ar
    18    28    27   ar
    19    25    26   ar
    20    27    26   ar
    21     4     3   ar
    22     2     6    1
    23     2     3   ar
    24    40    39    1
    25    13    14    1
    26    13    12    1
    27    14    30    1
    28     6     7    1
    29     7     8    1
    30    39    50    1
    31    39    38   am
    32    22    12    1
    33    30    33   am
    34    41    38    2
    35     8    10   am
    36     8     9    2
    37    12    11    1
    38    38    31   am
    39    10    11    1
    40    11    15    1
    41    33    34    2
    42    33    32    1
    43    31    32    1
    44    32    35    1
    45    15    16    1
    46    16    21   ar
    47    16    17   ar
    48    21    20   ar
    49    35    37    1
    50    35    36    1
    51    17    18   ar
    52    20    19   ar
    53    18    19   ar
