@<TRIPOS>MOLECULE
1hy3_PPS_A_1.pdb
 31 33 0 0 0
SMALL
GASTEIGER

@<TRIPOS>ATOM
      1  S2         5.0400    2.9470   28.5080 S.3   602  PPS602      0.0049
      2  OS1        3.8310    3.6590   28.2970 O.3   602  PPS602     -0.2679
      3  OS2        4.9320    1.5520   28.2050 O.2   602  PPS602     -0.3449
      4  OS3        6.1440    3.5790   27.8640 O.2   602  PPS602     -0.3449
      5  O6P        5.2910    3.0820   30.1150 O.3   602  PPS602     -0.1945
      6  P2         6.6900    2.8110   30.8650 P.3   602  PPS602      0.2383
      7  O4P        7.3220    1.8060   30.1580 O.2   602  PPS602     -0.5161
      8  O5P        7.5220    4.0180   30.9320 O.3   602  PPS602     -0.4361
      9  O5'        6.3470    2.3580   32.3390 O.3   602  PPS602     -0.3102
     10  C5'        5.7280    3.1490   33.3210 C.3   602  PPS602      0.1813
     11  C4'        6.1820    2.5860   34.6540 C.3   602  PPS602      0.1795
     12  O4'        7.5770    2.9710   34.9000 O.3   602  PPS602     -0.3136
     13  C1'        7.6490    3.6570   36.1230 C.3   602  PPS602      0.3185
     14  N9         8.6620    4.7040   36.1370 N.pl3 602  PPS602     -0.1439
     15  C4         9.6160    4.8980   37.1190 C.2   602  PPS602      0.3518
     16  N3         9.8260    4.1590   38.2540 N.2   602  PPS602     -0.0055
     17  C2        10.8530    4.6370   39.0240 C.3   602  PPS602      0.5254
     18  N1        11.6110    5.7300   38.7390 N.2   602  PPS602      0.0021
     19  C6        11.3690    6.4650   37.5690 C.2   602  PPS602      0.4393
     20  N6        12.1340    7.5260   37.3390 N.pl3 602  PPS602      0.2180
     21  C5        10.3120    6.0430   36.6840 C.2   602  PPS602      0.2526
     22  N7         9.8200    6.5140   35.4930 N.2   602  PPS602     -0.2095
     23  C8         8.8520    5.6900   35.2200 C.3   602  PPS602      0.3377
     24  C2'        6.2410    4.2490   36.3390 C.3   602  PPS602      0.2543
     25  O2'        6.0070    4.7020   37.6540 O.3   602  PPS602     -0.2131
     26  C3'        5.3980    3.0970   35.8450 C.3   602  PPS602      0.1928
     27  O3'        5.2990    2.0020   36.7410 O.3   602  PPS602     -0.2673
     28  P1         4.2250    1.8650   37.9250 P.3   602  PPS602      0.5327
     29  O1P        2.9010    1.8710   37.2940 O.2   602  PPS602     -0.2224
     30  O2P        4.3490    2.9740   38.9090 O.3   602  PPS602     -0.1145
     31  O3P        4.5140    0.5650   38.5730 O.3   602  PPS602     -0.1145
@<TRIPOS>BOND
     1     4     1    2
     2     3     1    2
     3     2     1    1
     4     1     5    1
     5     5     6    1
     6     7     6    2
     7     6     8    1
     8     6     9    1
     9     9    10    1
    10    10    11    1
    11    11    12    1
    12    11    26    1
    13    12    13    1
    14    23    22    1
    15    23    14    1
    16    22    21    2
    17    26    24    1
    18    26    27    1
    19    13    14    1
    20    13    24    1
    21    14    15    1
    22    24    25    1
    23    21    15    1
    24    21    19    1
    25    27    28    1
    26    15    16    2
    27    29    28    2
    28    20    19    1
    29    19    18    2
    30    28    31    1
    31    28    30    1
    32    16    17    1
    33    18    17    1
