@<TRIPOS>MOLECULE
1hy7_MBS_B_1.pdb
 28 29 0 0 0
SMALL
GASTEIGER

@<TRIPOS>ATOM
      1  C5        -4.7390   50.0940   46.4700 C.3   901  MBS901      0.1755
      2  O6        -3.4580   49.9780   47.1030 O.3   901  MBS901     -0.3374
      3  C16       -3.5180   50.3600   48.4840 C.3   901  MBS901      0.2179
      4  C12       -2.1650   50.4140   49.1850 C.1   901  MBS901     -0.0585
      5  C4        -1.1020   50.4290   49.7690 C.1   901  MBS901     -0.0865
      6  C3         0.2030   50.4460   50.4360 C.3   901  MBS901      0.1070
      7  C2         0.7610   49.4910   51.4870 C.3   901  MBS901      0.2130
      8  C1         0.0050   49.5450   52.7860 C.2   901  MBS901      0.3832
      9  O2         0.2090   50.4150   53.6330 O.co2 901  MBS901     -0.2440
     10  O1        -0.8660   48.5890   53.0210 O.co2 901  MBS901     -0.2440
     11  N1         2.0810   49.9510   51.8400 N.3   901  MBS901     -0.0666
     12  S11        3.2940   49.0350   52.6110 S.O2  901  MBS901      0.0773
     13  O3         3.4030   47.6230   51.9970 O.2   901  MBS901     -0.1516
     14  O4         4.5890   49.9090   52.3640 O.2   901  MBS901     -0.1516
     15  C21        3.0210   48.7920   54.2990 C.ar  901  MBS901      0.1236
     16  C22        3.2620   49.8260   55.1990 C.ar  901  MBS901      0.0200
     17  C23        3.0870   49.6390   56.5710 C.ar  901  MBS901      0.0014
     18  C24        2.6670   48.4120   57.0600 C.ar  901  MBS901      0.0001
     19  C25        2.4550   47.3620   56.1510 C.ar  901  MBS901      0.0014
     20  C26        2.5970   47.5490   54.7780 C.ar  901  MBS901      0.0200
     21  C6         2.5690   48.2330   58.4290 C.ar  901  MBS901      0.0002
     22  C32        2.5560   46.9260   58.9250 C.ar  901  MBS901      0.0031
     23  C33        2.5300   46.6790   60.2830 C.ar  901  MBS901      0.0369
     24  C34        2.5800   47.7350   61.1610 C.ar  901  MBS901      0.1387
     25  C35        2.6260   49.0600   60.6950 C.ar  901  MBS901      0.0369
     26  C36        2.6510   49.3010   59.3280 C.ar  901  MBS901      0.0031
     27  O5         2.5510   47.4740   62.3710 O.3   901  MBS901     -0.4714
     28  C7         2.9470   48.4090   63.3140 C.3   901  MBS901      0.2525
@<TRIPOS>BOND
     1     1     2    1
     2     2     3    1
     3     3     4    1
     4     4     5    3
     5     5     6    1
     6     6     7    1
     7     7    11    1
     8     7     8    1
     9    11    12    1
    10    13    12    2
    11    14    12    2
    12    12    15    1
    13     8    10   ar
    14     8     9   ar
    15    15    20   ar
    16    15    16   ar
    17    20    19   ar
    18    16    17   ar
    19    19    18   ar
    20    17    18   ar
    21    18    21    1
    22    21    22   ar
    23    21    26   ar
    24    22    23   ar
    25    26    25   ar
    26    23    24   ar
    27    25    24   ar
    28    24    27    1
    29    27    28    1
