@<TRIPOS>MOLECULE
1hyb_NMN_A_1.pdb
 22 23 0 0 0
SMALL
GASTEIGER

@<TRIPOS>ATOM
      1  O3P       29.8490   22.0520   43.6640 O.3   1340  NMN1340    -0.1145
      2  P         28.5640   21.9030   42.9090 P.3   1340  NMN1340     0.5327
      3  O1P       28.1400   20.5030   43.1070 O.2   1340  NMN1340    -0.2224
      4  O2P       27.6060   22.9430   43.3760 O.3   1340  NMN1340    -0.1145
      5  O5R       29.1830   22.0810   41.4900 O.3   1340  NMN1340    -0.2675
      6  C5R       28.8640   23.1940   40.6680 C.3   1340  NMN1340     0.1859
      7  C4R       29.6960   22.9650   39.4250 C.3   1340  NMN1340     0.1801
      8  O4R       29.7480   24.2420   38.7140 O.3   1340  NMN1340    -0.3327
      9  C3R       31.1710   22.5820   39.6690 C.3   1340  NMN1340     0.2158
     10  O3R       31.5910   21.5540   38.7500 O.3   1340  NMN1340    -0.2175
     11  C2R       31.8900   23.8920   39.4060 C.3   1340  NMN1340     0.2309
     12  O2R       33.2570   23.6500   39.0380 O.3   1340  NMN1340    -0.2158
     13  C1R       31.0660   24.4340   38.2770 C.3   1340  NMN1340     0.2263
     14  N1        31.3560   25.8360   38.0330 N.pl3 1340  NMN1340    -0.2787
     15  C2        32.3230   26.1780   37.0900 C.3   1340  NMN1340     0.1244
     16  C3        32.8030   27.5650   36.9480 C.2   1340  NMN1340     0.0544
     17  C7        33.9300   27.7720   36.0170 C.2   1340  NMN1340     0.2818
     18  O7        34.3770   28.9390   35.9090 O.2   1340  NMN1340    -0.2670
     19  N7        34.4670   26.7730   35.3000 N.am  1340  NMN1340    -0.0839
     20  C4        32.0360   28.6700   37.6340 C.2   1340  NMN1340     0.0033
     21  C5        30.9620   28.1460   38.5410 C.2   1340  NMN1340     0.0157
     22  C6        30.6740   26.8710   38.7380 C.2   1340  NMN1340     0.0633
@<TRIPOS>BOND
     1    19    17   am
     2    18    17    2
     3    17    16    1
     4    16    15    1
     5    16    20    2
     6    15    14    1
     7    20    21    1
     8    14    13    1
     9    14    22    1
    10    13     8    1
    11    13    11    1
    12    21    22    2
    13     8     7    1
    14    10     9    1
    15    12    11    1
    16    11     9    1
    17     7     9    1
    18     7     6    1
    19     6     5    1
    20     5     2    1
    21     2     3    2
    22     2     4    1
    23     2     1    1
