@<TRIPOS>MOLECULE
1hye_NAP_A_1.pdb
 48 52 0 0 0
SMALL
GASTEIGER

@<TRIPOS>ATOM
      1  PA         4.3590   31.4930   22.9770 P.3   748  NAP748      0.2189
      2  O1A        3.3450   32.5690   23.3790 O.2   748  NAP748     -0.5170
      3  O2A        4.1190   30.4240   23.8630 O.3   748  NAP748     -0.4371
      4  O5B        5.8730   31.8740   23.4010 O.3   748  NAP748     -0.3112
      5  C5B        7.0340   31.1380   23.0240 C.3   748  NAP748      0.1813
      6  C4B        7.9900   31.6960   23.9120 C.3   748  NAP748      0.1820
      7  O4B        8.8250   32.2870   22.8480 O.3   748  NAP748     -0.3136
      8  C3B        8.9600   32.1050   24.9530 C.3   748  NAP748      0.2157
      9  O3B        9.8450   30.8500   25.1590 O.3   748  NAP748     -0.2175
     10  C2B        9.7120   33.2000   24.5990 C.3   748  NAP748      0.2314
     11  O2B       10.7160   33.6460   25.3930 O.3   748  NAP748     -0.2630
     12  C1B       10.1390   32.7880   23.2670 C.3   748  NAP748      0.3158
     13  N9A       10.5310   34.0690   22.4380 N.pl3 748  NAP748     -0.1439
     14  C8A        9.7450   35.0070   21.8610 C.3   748  NAP748      0.3377
     15  N7A       10.4050   35.9450   21.3100 N.2   748  NAP748     -0.2095
     16  C5A       11.7360   35.6550   21.5430 C.2   748  NAP748      0.2526
     17  C6A       12.9790   36.3000   21.1880 C.2   748  NAP748      0.4393
     18  N6A       13.0340   37.4420   20.5040 N.pl3 748  NAP748      0.2180
     19  N1A       14.1500   35.7130   21.5680 N.2   748  NAP748      0.0021
     20  C2A       14.1430   34.5450   22.2720 C.3   748  NAP748      0.5254
     21  N3A       13.0240   33.8850   22.6590 N.2   748  NAP748     -0.0055
     22  C4A       11.8550   34.5000   22.2110 C.2   748  NAP748      0.3518
     23  O3         4.2730   30.7680   21.5910 O.3   748  NAP748     -0.2703
     24  PN         4.0330   29.1670   21.2650 P.3   748  NAP748      0.2189
     25  O1N        2.5850   28.9460   21.1120 O.2   748  NAP748     -0.5170
     26  O2N        4.6940   28.3550   22.3540 O.3   748  NAP748     -0.4371
     27  O5D        4.8430   28.7360   19.9670 O.3   748  NAP748     -0.3112
     28  C5D        6.2640   28.9060   19.8860 C.3   748  NAP748      0.1813
     29  C4D        6.8040   28.7840   18.4460 C.3   748  NAP748      0.1799
     30  O4D        6.6600   27.4570   17.9620 O.3   748  NAP748     -0.3327
     31  C3D        6.1060   29.6670   17.3900 C.3   748  NAP748      0.2158
     32  O3D        6.9770   30.1380   16.3480 O.3   748  NAP748     -0.2175
     33  C2D        5.0180   28.8020   16.8220 C.3   748  NAP748      0.2309
     34  O2D        4.6600   29.0990   15.5050 O.3   748  NAP748     -0.2158
     35  C1D        5.6660   27.3980   16.9280 C.3   748  NAP748      0.2263
     36  N1N        4.6870   26.3310   17.1270 N.pl3 748  NAP748     -0.2787
     37  C2N        4.7680   25.2970   16.1700 C.3   748  NAP748      0.1244
     38  C3N        3.8290   24.2070   16.2890 C.2   748  NAP748      0.0544
     39  C7N        3.8480   23.0800   15.3370 C.2   748  NAP748      0.2818
     40  O7N        3.0560   22.1360   15.4120 O.2   748  NAP748     -0.2670
     41  N7N        4.7440   23.0470   14.3380 N.am  748  NAP748     -0.0839
     42  C4N        2.8880   24.2460   17.3500 C.2   748  NAP748      0.0033
     43  C5N        2.8210   25.2640   18.2630 C.2   748  NAP748      0.0157
     44  C6N        3.7170   26.3080   18.1610 C.2   748  NAP748      0.0633
     45  P2B       10.3810   34.6010   26.6610 P.3   748  NAP748      0.5328
     46  O1X        9.2430   34.1210   27.3830 O.3   748  NAP748     -0.1145
     47  O2X       11.7030   34.4670   27.2150 O.3   748  NAP748     -0.1145
     48  O3X       10.1650   35.9890   26.0730 O.2   748  NAP748     -0.2224
@<TRIPOS>BOND
     1    41    39   am
     2    39    40    2
     3    39    38    1
     4    34    33    1
     5    37    38    1
     6    37    36    1
     7    38    42    2
     8    32    31    1
     9    33    35    1
    10    33    31    1
    11    35    36    1
    12    35    30    1
    13    36    44    1
    14    42    43    1
    15    31    29    1
    16    30    29    1
    17    44    43    2
    18    29    28    1
    19    28    27    1
    20    27    24    1
    21    18    17    1
    22    25    24    2
    23    17    16    1
    24    17    19    2
    25    24    23    1
    26    24    26    1
    27    15    16    2
    28    15    14    1
    29    16    22    1
    30    19    20    1
    31    23     1    1
    32    14    13    1
    33    22    13    1
    34    22    21    2
    35    20    21    1
    36    13    12    1
    37     7    12    1
    38     7     6    1
    39     1     2    2
    40     1     4    1
    41     1     3    1
    42     5     4    1
    43     5     6    1
    44    12    10    1
    45     6     8    1
    46    10     8    1
    47    10    11    1
    48     8     9    1
    49    11    45    1
    50    48    45    2
    51    45    47    1
    52    45    46    1
