@<TRIPOS>MOLECULE
1hyf_2GP_A_1.pdb
 24 26 0 0 0
SMALL
GASTEIGER

@<TRIPOS>ATOM
      1  P         19.4490   19.9710   10.0080 P.3   106  2GP106      0.5327
      2  O1P       20.5020   20.6380   10.8070 O.3   106  2GP106     -0.1145
      3  O2P       18.2420   20.8130    9.8580 O.2   106  2GP106     -0.2224
      4  O3P       19.1570   18.5810   10.3820 O.3   106  2GP106     -0.1145
      5  O5'       24.2690   17.9210    9.1870 O.3   106  2GP106     -0.2176
      6  C5'       24.6670   18.8690    8.1740 C.3   106  2GP106      0.2142
      7  C4'       23.5350   19.5100    7.3220 C.3   106  2GP106      0.1827
      8  O4'       22.7590   18.5050    6.6320 O.3   106  2GP106     -0.3326
      9  C3'       22.5220   20.2830    8.1620 C.3   106  2GP106      0.2132
     10  O3'       22.1670   21.4590    7.3920 O.3   106  2GP106     -0.2176
     11  C2'       21.3580   19.2720    8.3040 C.3   106  2GP106      0.2054
     12  O2'       20.0620   19.8830    8.5180 O.3   106  2GP106     -0.2657
     13  C1'       21.3560   18.5630    7.0020 C.3   106  2GP106      0.2266
     14  N9        20.8590   17.1440    7.0030 N.pl3 106  2GP106     -0.2354
     15  C8        20.0830   16.6400    6.0050 C.3   106  2GP106      0.2246
     16  N7        19.9370   15.3500    6.0160 N.2   106  2GP106     -0.2322
     17  C5        20.6760   14.9560    7.1280 C.2   106  2GP106      0.2182
     18  C6        20.9240   13.6590    7.6220 C.1   106  2GP106      0.2372
     19  O6        20.5870   12.6200    7.0760 O.2   106  2GP106     -0.2069
     20  N1        21.7190   13.6410    8.7530 N.2   106  2GP106     -0.2485
     21  C2        22.2450   14.7590    9.3520 C.1   106  2GP106      0.2531
     22  N2        23.0160   14.5350   10.4230 N.pl3 106  2GP106     -0.0226
     23  N3        22.0360   16.0010    8.8910 N.2   106  2GP106     -0.3074
     24  C4        21.2390   16.0320    7.7670 C.2   106  2GP106      0.2300
@<TRIPOS>BOND
     1    15    16    1
     2    15    14    1
     3    16    17    2
     4     8    13    1
     5     8     7    1
     6    13    14    1
     7    13    11    1
     8    14    24    1
     9    19    18    2
    10    17    18    1
    11    17    24    1
    12     7     9    1
    13     7     6    1
    14    10     9    1
    15    18    20    2
    16    24    23    2
    17     9    11    1
    18     6     5    1
    19    11    12    1
    20    12     1    1
    21    20    21    2
    22    23    21    2
    23    21    22    1
    24     3     1    2
    25     1     4    1
    26     1     2    1
