@<TRIPOS>MOLECULE
1hyg_NAP_A_1.pdb
 48 52 0 0 0
SMALL
GASTEIGER

@<TRIPOS>ATOM
      1  PA        75.5420   16.9940   37.4660 P.3   900  NAP900      0.2189
      2  O1A       75.3760   17.4190   36.0400 O.2   900  NAP900     -0.5170
      3  O2A       76.0930   17.9190   38.4440 O.3   900  NAP900     -0.4371
      4  O5B       76.3590   15.6020   37.4430 O.3   900  NAP900     -0.3112
      5  C5B       76.7220   14.9860   38.6740 C.3   900  NAP900      0.1813
      6  C4B       77.4060   13.6930   38.3680 C.3   900  NAP900      0.1820
      7  O4B       78.5380   13.8960   37.5020 O.3   900  NAP900     -0.3136
      8  C3B       77.8690   13.0020   39.5850 C.3   900  NAP900      0.2157
      9  O3B       77.7330   11.5890   39.4890 O.3   900  NAP900     -0.2175
     10  C2B       79.3280   13.3590   39.6150 C.3   900  NAP900      0.2314
     11  O2B       80.1710   12.4240   40.3200 O.3   900  NAP900     -0.2630
     12  C1B       79.6690   13.2950   38.1420 C.3   900  NAP900      0.3158
     13  N9A       80.9050   14.0260   37.7360 N.pl3 900  NAP900     -0.1439
     14  C8A       81.1390   15.3920   37.6390 C.3   900  NAP900      0.3377
     15  N7A       82.3570   15.6680   37.2500 N.2   900  NAP900     -0.2095
     16  C5A       82.9630   14.4360   37.0790 C.2   900  NAP900      0.2526
     17  C6A       84.2700   14.0550   36.6730 C.2   900  NAP900      0.4393
     18  N6A       85.1920   14.9630   36.3700 N.pl3 900  NAP900      0.2180
     19  N1A       84.5680   12.7070   36.6010 N.2   900  NAP900      0.0021
     20  C2A       83.6290   11.7820   36.9100 C.3   900  NAP900      0.5254
     21  N3A       82.3720   12.0580   37.3020 N.2   900  NAP900     -0.0055
     22  C4A       82.1000   13.4220   37.3650 C.2   900  NAP900      0.3518
     23  O3        74.0950   16.3550   37.8960 O.3   900  NAP900     -0.2703
     24  PN        72.9200   15.5150   37.1340 P.3   900  NAP900      0.2189
     25  O1N       71.7350   16.3820   37.1610 O.2   900  NAP900     -0.5170
     26  O2N       72.8420   14.1790   37.8560 O.3   900  NAP900     -0.4371
     27  O5D       73.4130   15.1090   35.6530 O.3   900  NAP900     -0.3112
     28  C5D       72.5640   14.3320   34.7660 C.3   900  NAP900      0.1813
     29  C4D       73.3550   13.3990   33.8030 C.3   900  NAP900      0.1799
     30  O4D       72.4340   12.9420   32.8180 O.3   900  NAP900     -0.3327
     31  C3D       74.4730   14.0890   32.9740 C.3   900  NAP900      0.2158
     32  O3D       75.5280   13.2140   32.5220 O.3   900  NAP900     -0.2175
     33  C2D       73.7530   14.6980   31.8030 C.3   900  NAP900      0.2309
     34  O2D       74.5740   14.8190   30.6610 O.3   900  NAP900     -0.2158
     35  C1D       72.5770   13.6620   31.5810 C.3   900  NAP900      0.2263
     36  N1N       71.2730   14.3420   31.2700 N.pl3 900  NAP900     -0.2787
     37  C2N       70.3560   13.5480   30.5270 C.3   900  NAP900      0.1244
     38  C3N       69.0780   14.1390   30.1920 C.2   900  NAP900      0.0544
     39  C7N       68.0730   13.3900   29.4230 C.2   900  NAP900      0.2818
     40  O7N       66.9710   13.8720   29.1190 O.2   900  NAP900     -0.2670
     41  N7N       68.3220   12.1320   29.0120 N.am  900  NAP900     -0.0839
     42  C4N       68.8120   15.4640   30.6200 C.2   900  NAP900      0.0033
     43  C5N       69.6990   16.2160   31.3330 C.2   900  NAP900      0.0157
     44  C6N       70.9270   15.6670   31.6630 C.2   900  NAP900      0.0633
     45  P2B       80.9950   12.8690   41.6130 P.3   900  NAP900      0.5328
     46  O1X       80.0660   13.3140   42.6860 O.3   900  NAP900     -0.1145
     47  O2X       81.7010   11.6010   41.8820 O.3   900  NAP900     -0.1145
     48  O3X       81.8670   13.9440   41.0770 O.2   900  NAP900     -0.2224
@<TRIPOS>BOND
     1    41    39   am
     2    40    39    2
     3    39    38    1
     4    38    37    1
     5    38    42    2
     6    37    36    1
     7    42    43    1
     8    34    33    1
     9    36    35    1
    10    36    44    1
    11    43    44    2
    12    35    33    1
    13    35    30    1
    14    33    31    1
    15    32    31    1
    16    30    29    1
    17    31    29    1
    18    29    28    1
    19    28    27    1
    20    27    24    1
    21     2     1    2
    22    18    17    1
    23    19    17    2
    24    19    20    1
    25    17    16    1
    26    20    21    1
    27    16    15    2
    28    16    22    1
    29    24    25    2
    30    24    26    1
    31    24    23    1
    32    15    14    1
    33    21    22    2
    34    22    13    1
    35     4     1    1
    36     4     5    1
    37     1    23    1
    38     1     3    1
    39     7    12    1
    40     7     6    1
    41    14    13    1
    42    13    12    1
    43    12    10    1
    44     6     5    1
    45     6     8    1
    46     9     8    1
    47     8    10    1
    48    10    11    1
    49    11    45    1
    50    48    45    2
    51    45    47    1
    52    45    46    1
