@<TRIPOS>MOLECULE
1hyh_NAD_A_1.pdb
 44 48 0 0 0
SMALL
GASTEIGER

@<TRIPOS>ATOM
      1  PA         4.9030   26.8250    7.6280 P.3   330  NAD330      0.2189
      2  O1A        5.2270   28.1930    8.0430 O.3   330  NAD330     -0.4371
      3  O2A        4.0830   26.5950    6.4220 O.2   330  NAD330     -0.5170
      4  O5B        4.1810   26.0160    8.7840 O.3   330  NAD330     -0.3112
      5  C5B        4.5380   26.1260   10.1730 C.3   330  NAD330      0.1813
      6  C4B        3.2570   25.6510   10.8940 C.3   330  NAD330      0.1821
      7  O4B        3.6960   25.5770   12.3070 O.3   330  NAD330     -0.3135
      8  C3B        2.1930   26.7740   10.8970 C.3   330  NAD330      0.2184
      9  O3B        0.8680   26.2620   10.6180 O.3   330  NAD330     -0.2174
     10  C2B        2.2190   27.3860   12.2810 C.3   330  NAD330      0.2570
     11  O2B        0.9830   27.7520   12.7420 O.3   330  NAD330     -0.2130
     12  C1B        2.6660   26.0950   13.0660 C.3   330  NAD330      0.3186
     13  N9A        3.2150   26.5080   14.3190 N.pl3 330  NAD330     -0.1439
     14  C8A        4.0470   27.5300   14.6710 C.3   330  NAD330      0.3377
     15  N7A        4.3350   27.6380   15.9540 N.2   330  NAD330     -0.2095
     16  C5A        3.6670   26.6090   16.5290 C.2   330  NAD330      0.2526
     17  C6A        3.5930   26.2130   17.9240 C.2   330  NAD330      0.4393
     18  N6A        4.2020   26.8240   18.9200 N.pl3 330  NAD330      0.2180
     19  N1A        2.8270   25.1300   18.1110 N.2   330  NAD330      0.0021
     20  C2A        2.1610   24.4590   17.1460 C.3   330  NAD330      0.5254
     21  N3A        2.1810   24.7990   15.8330 N.2   330  NAD330     -0.0055
     22  C4A        2.9580   25.9060   15.5550 C.2   330  NAD330      0.3518
     23  O3         6.2960   26.0710    7.5040 O.3   330  NAD330     -0.2703
     24  PN         6.7190   24.7850    6.6630 P.3   330  NAD330      0.2189
     25  O1N        7.0630   25.1240    5.2400 O.2   330  NAD330     -0.5170
     26  O2N        5.6550   23.7800    6.7760 O.3   330  NAD330     -0.4371
     27  O5D        8.0320   24.2700    7.4070 O.3   330  NAD330     -0.3112
     28  C5D        7.9550   24.0340    8.8240 C.3   330  NAD330      0.1813
     29  C4D        9.3100   23.9250    9.3910 C.3   330  NAD330      0.1799
     30  O4D        9.9890   22.8780    8.5060 O.3   330  NAD330     -0.3327
     31  C3D       10.2090   25.1710    9.1780 C.3   330  NAD330      0.2158
     32  O3D       11.0250   25.2230   10.3070 O.3   330  NAD330     -0.2175
     33  C2D       11.0910   24.8550    7.9250 C.3   330  NAD330      0.2309
     34  O2D       12.3310   25.4500    8.0840 O.3   330  NAD330     -0.2158
     35  C1D       11.3110   23.3500    8.2740 C.3   330  NAD330      0.2263
     36  N1N       11.8490   22.5480    7.1160 N.pl3 330  NAD330     -0.2787
     37  C2N       12.8780   21.6900    7.4620 C.3   330  NAD330      0.1244
     38  C3N       13.3710   20.9500    6.4130 C.2   330  NAD330      0.0544
     39  C7N       14.5320   19.9770    6.8550 C.2   330  NAD330      0.2818
     40  O7N       15.0560   19.2600    6.0090 O.2   330  NAD330     -0.2670
     41  N7N       14.8250   19.9710    8.1920 N.am  330  NAD330     -0.0839
     42  C4N       12.9200   20.9790    5.1170 C.2   330  NAD330      0.0033
     43  C5N       11.8770   21.9110    4.8770 C.2   330  NAD330      0.0157
     44  C6N       11.3330   22.6830    5.8810 C.2   330  NAD330      0.0633
@<TRIPOS>BOND
     1    43    42    1
     2    43    44    2
     3    42    38    2
     4    25    24    2
     5    44    36    1
     6    40    39    2
     7    38    39    1
     8    38    37    1
     9     3     1    2
    10    24    26    1
    11    24    27    1
    12    24    23    1
    13    39    41   am
    14    36    37    1
    15    36    35    1
    16    27    28    1
    17    23     1    1
    18     1     2    1
    19     1     4    1
    20    33    34    1
    21    33    35    1
    22    33    31    1
    23    35    30    1
    24    30    29    1
    25     4     5    1
    26    28    29    1
    27    31    29    1
    28    31    32    1
    29     5     6    1
    30     9     8    1
    31     6     8    1
    32     6     7    1
    33     8    10    1
    34    10    11    1
    35    10    12    1
    36     7    12    1
    37    12    13    1
    38    13    14    1
    39    13    22    1
    40    14    15    1
    41    22    21    2
    42    22    16    1
    43    21    20    1
    44    15    16    2
    45    16    17    1
    46    20    19    1
    47    17    19    2
    48    17    18    1
