@<TRIPOS>MOLECULE
1hyi_ITP_A_1.pdb
 30 30 0 0 0
SMALL
GASTEIGER

@<TRIPOS>ATOM
      1  C1         2.7560    2.8290    1.1930 C.3    68  ITP68       0.1267
      2  O1         3.2680    3.9960    2.0000 O.3    68  ITP68      -0.2749
      3  C2         2.6220    1.4650    1.8240 C.3    68  ITP68       0.1135
      4  O2         3.8930    0.8080    2.0790 O.3    68  ITP68      -0.3864
      5  C3         1.7560    0.6880    0.8770 C.3    68  ITP68       0.1267
      6  O3         1.4290   -0.5390    1.4710 O.3    68  ITP68      -0.2749
      7  C4         2.4390    0.5090   -0.5680 C.3    68  ITP68       0.1126
      8  O4         1.4360   -0.0020   -1.4280 O.3    68  ITP68      -0.3865
      9  C5         2.8660    1.8220   -1.1710 C.3    68  ITP68       0.1119
     10  O5         3.8570    1.5080   -2.2130 O.3    68  ITP68      -0.3865
     11  C6         3.5470    2.7630   -0.1440 C.3    68  ITP68       0.1126
     12  O6         3.5020    4.0340   -0.6860 O.3    68  ITP68      -0.3865
     13  P1         2.8340    5.5900    1.8350 P.3    68  ITP68       0.5323
     14  OP1        3.9750    6.3470    1.3130 O.3    68  ITP68      -0.1145
     15  OP2        2.4370    6.1080    3.1730 O.3    68  ITP68      -0.1145
     16  OP3        1.6710    5.3160    0.9260 O.2    68  ITP68      -0.2224
     17  P3         0.1340   -1.3070    1.1480 P.3    68  ITP68       0.5323
     18  O10        0.2320   -2.3090    2.1250 O.3    68  ITP68      -0.1145
     19  O11       -0.8270   -0.2310    1.2750 O.3    68  ITP68      -0.1145
     20  O12        0.2950   -1.7340   -0.2070 O.2    68  ITP68      -0.2224
     21  H1         1.7870    3.0930    0.7690 H      68  ITP68       0.0655
     22  H2         2.1240    1.5890    2.7860 H      68  ITP68       0.0647
     23  HO2        4.0920    0.1390    1.3200 H      68  ITP68       0.2100
     24  H3         0.8500    1.2460    0.6450 H      68  ITP68       0.0655
     25  H4         3.2400   -0.2230   -0.4720 H      68  ITP68       0.0647
     26  HO4        1.4520   -1.0310   -1.4020 H      68  ITP68       0.2100
     27  H5         1.9830    2.2780   -1.6180 H      68  ITP68       0.0647
     28  HO5        4.1220    2.3720   -2.7070 H      68  ITP68       0.2100
     29  H6         4.5510    2.3640    0.0130 H      68  ITP68       0.0647
     30  HO6        2.5400    4.2500   -0.9800 H      68  ITP68       0.2100
@<TRIPOS>BOND
     1    28    10    1
     2    10     9    1
     3    27     9    1
     4     8    26    1
     5     8     7    1
     6     9     7    1
     7     9    11    1
     8    30    12    1
     9    12    11    1
    10     7    25    1
    11     7     5    1
    12    20    17    2
    13    11    29    1
    14    11     1    1
    15    24     5    1
    16    21     1    1
    17     5     6    1
    18     5     3    1
    19    16    13    2
    20    17    19    1
    21    17     6    1
    22    17    18    1
    23     1     3    1
    24     1     2    1
    25    14    13    1
    26    23     4    1
    27     3     4    1
    28     3    22    1
    29    13     2    1
    30    13    15    1
