@<TRIPOS>MOLECULE
1hyo_HBU_A_1.pdb
 11 10 0 0 0
SMALL
GASTEIGER

@<TRIPOS>ATOM
      1  O1        47.4330   44.7450   61.8840 O.co2 1012  HBU1012    -0.2452
      2  C2        47.6030   43.5510   62.1160 C.2   1012  HBU1012     0.3723
      3  O3        47.1170   43.1040   63.1270 O.co2 1012  HBU1012    -0.2452
      4  C4        48.3800   42.7230   61.1120 C.3   1012  HBU1012     0.1788
      5  C5        47.9740   42.9670   59.6700 C.2   1012  HBU1012     0.1719
      6  O8        48.0730   43.9910   59.0670 O.2   1012  HBU1012    -0.2949
      7  C9        47.3170   41.8060   58.9220 C.3   1012  HBU1012     0.1542
      8  P10       45.4820   42.0780   58.9770 P.3   1012  HBU1012     0.2618
      9  O13       45.1150   43.0380   57.9080 O.2   1012  HBU1012    -0.2864
     10  O14       45.1120   42.5280   60.3260 O.3   1012  HBU1012    -0.1674
     11  C15       44.8680   40.5860   58.7290 C.3   1012  HBU1012     0.1002
@<TRIPOS>BOND
     1     9     8    2
     2    11     8    1
     3     7     8    1
     4     7     5    1
     5     8    10    1
     6     6     5    2
     7     5     4    1
     8     4     2    1
     9     1     2   ar
    10     2     3   ar
