@<TRIPOS>MOLECULE
1hyt_BZS_A_1.pdb
 15 15 0 0 0
SMALL
GASTEIGER

@<TRIPOS>ATOM
      1  C1        35.7020   42.4860   -5.8790 C.2   807  BZS807      0.3654
      2  C2        35.6010   41.2570   -5.0520 C.3   807  BZS807      0.1256
      3  CA        36.4200   41.3010   -3.7440 C.3   807  BZS807      0.1189
      4  C         37.9680   41.0650   -3.8420 C.2   807  BZS807      0.3652
      5  CB        35.9910   42.4740   -2.9230 C.3   807  BZS807      0.0382
      6  CG        36.7100   42.5820   -1.6470 C.ar  807  BZS807     -0.0216
      7  CD1       36.5600   41.6190   -0.6470 C.ar  807  BZS807     -0.0043
      8  CD2       37.4690   43.7280   -1.3990 C.ar  807  BZS807     -0.0043
      9  CE1       37.2570   41.7330    0.5610 C.ar  807  BZS807     -0.0003
     10  CE2       38.1630   43.8580   -0.1950 C.ar  807  BZS807     -0.0003
     11  CZ        38.0480   42.8710    0.7840 C.ar  807  BZS807     -0.0000
     12  O1        36.7230   42.5360   -6.5600 O.co2 807  BZS807     -0.2456
     13  O2        34.8360   43.4240   -5.7800 O.co2 807  BZS807     -0.2456
     14  O3        38.7640   42.0370   -3.8280 O.co2 807  BZS807     -0.2456
     15  O4        38.3770   39.8750   -3.7830 O.co2 807  BZS807     -0.2456
@<TRIPOS>BOND
     1    12     1   ar
     2     1    13   ar
     3     1     2    1
     4     2     3    1
     5     4    14   ar
     6     4    15   ar
     7     4     3    1
     8     3     5    1
     9     5     6    1
    10     6     8   ar
    11     6     7   ar
    12     8    10   ar
    13     7     9   ar
    14    10    11   ar
    15     9    11   ar
