@<TRIPOS>MOLECULE
1hyv_TTA_A_1.pdb
 25 27 0 0 0
SMALL
GASTEIGER

@<TRIPOS>ATOM
      1 AS          6.3270   46.1270  -10.7860 As    304  TTA304      0.0000
      2  C1         5.5690   44.8690  -12.0190 C.ar  304  TTA304      0.0000
      3  C2         5.7010   43.4810  -11.9250 C.ar  304  TTA304      0.0000
      4  C3         5.0660   42.6850  -12.8860 C.ar  304  TTA304      0.0000
      5  C4         4.3080   43.2630  -13.8660 C.ar  304  TTA304      0.0000
      6  C5         4.1390   44.6550  -13.9800 C.ar  304  TTA304      0.0000
      7  C6         4.7740   45.5280  -13.0170 C.ar  304  TTA304      0.0000
      8  C7         4.9020   46.8720   -9.8160 C.ar  304  TTA304      0.0000
      9  C8         4.9700   47.3130   -8.4480 C.ar  304  TTA304      0.0000
     10  C9         3.8510   47.8310   -7.8040 C.ar  304  TTA304      0.0000
     11  C10        2.6150   47.8910   -8.5340 C.ar  304  TTA304      0.0000
     12  C11        2.5430   47.4240   -9.9100 C.ar  304  TTA304      0.0000
     13  C12        3.6600   46.9110  -10.5540 C.ar  304  TTA304      0.0000
     14  C13        7.4300   47.1920  -11.8940 C.ar  304  TTA304      0.0000
     15  C14        8.4130   48.1080  -11.2880 C.ar  304  TTA304      0.0000
     16  C15        9.3460   48.7900  -12.2120 C.ar  304  TTA304      0.0000
     17  C16        9.3010   48.4700  -13.6240 C.ar  304  TTA304      0.0000
     18  C17        8.4240   47.5120  -14.1910 C.ar  304  TTA304      0.0000
     19  C18        7.5240   46.8430  -13.3230 C.ar  304  TTA304      0.0000
     20  C19        7.4860   45.3330   -9.4720 C.ar  304  TTA304      0.0000
     21  C20        6.9520   45.1140   -8.1830 C.ar  304  TTA304      0.0000
     22  C21        7.8620   44.5340   -7.2500 C.ar  304  TTA304      0.0000
     23  C22        9.1260   44.2360   -7.5950 C.ar  304  TTA304      0.0000
     24  C23        9.7070   44.4610   -8.8980 C.ar  304  TTA304      0.0000
     25  C24        8.7880   45.0610   -9.8940 C.ar  304  TTA304      0.0000
@<TRIPOS>BOND
     1    18    17   ar
     2    18    19   ar
     3     6     5   ar
     4     6     7   ar
     5     5     4   ar
     6    17    16   ar
     7    19    14   ar
     8     7     2   ar
     9     4     3   ar
    10    16    15   ar
    11     2     3   ar
    12     2     1    1
    13    14    15   ar
    14    14     1    1
    15     1     8    1
    16    13    12   ar
    17    13     8   ar
    18    12    11   ar
    19    25    20   ar
    20    25    24   ar
    21     8     9   ar
    22    20    21   ar
    23    24    23   ar
    24    11    10   ar
    25     9    10   ar
    26    21    22   ar
    27    23    22   ar
