@<TRIPOS>MOLECULE
1hz1_2GP_A_1.pdb
 24 26 0 0 0
SMALL
GASTEIGER

@<TRIPOS>ATOM
      1  P         19.4650   20.0640   10.0460 P.3   106  2GP106      0.5327
      2  O1P       20.4990   20.7400   10.8650 O.3   106  2GP106     -0.1145
      3  O2P       19.1900   18.6700   10.4210 O.3   106  2GP106     -0.1145
      4  O3P       18.2500   20.8710    9.8610 O.2   106  2GP106     -0.2224
      5  O5'       24.3570   18.1390    9.1880 O.3   106  2GP106     -0.2176
      6  C5'       24.7080   19.0600    8.1390 C.3   106  2GP106      0.2142
      7  C4'       23.5340   19.6400    7.2860 C.3   106  2GP106      0.1827
      8  O4'       22.7740   18.5840    6.6360 O.3   106  2GP106     -0.3326
      9  C3'       22.5190   20.4170    8.1380 C.3   106  2GP106      0.2132
     10  O3'       22.1610   21.5730    7.3370 O.3   106  2GP106     -0.2176
     11  C2'       21.3730   19.3860    8.3280 C.3   106  2GP106      0.2054
     12  O2'       20.0760   19.9850    8.5520 O.3   106  2GP106     -0.2657
     13  C1'       21.3670   18.6570    7.0250 C.3   106  2GP106      0.2266
     14  N9        20.8770   17.2360    7.0200 N.pl3 106  2GP106     -0.2354
     15  C8        20.1060   16.7210    6.0030 C.3   106  2GP106      0.2246
     16  N7        19.9890   15.4360    6.0190 N.2   106  2GP106     -0.2322
     17  C5        20.7300   15.0540    7.1380 C.2   106  2GP106      0.2182
     18  C6        20.9960   13.7620    7.6340 C.1   106  2GP106      0.2372
     19  O6        20.6390   12.7280    7.0890 O.2   106  2GP106     -0.2069
     20  N1        21.7950   13.7450    8.7720 N.2   106  2GP106     -0.2485
     21  C2        22.2990   14.8720    9.3700 C.1   106  2GP106      0.2531
     22  N2        23.0690   14.6670   10.4500 N.pl3 106  2GP106     -0.0226
     23  N3        22.0610   16.1050    8.9020 N.2   106  2GP106     -0.3074
     24  C4        21.2700   16.1300    7.7800 C.2   106  2GP106      0.2300
@<TRIPOS>BOND
     1    15    16    1
     2    15    14    1
     3    16    17    2
     4     8    13    1
     5     8     7    1
     6    14    13    1
     7    14    24    1
     8    13    11    1
     9    19    18    2
    10    17    18    1
    11    17    24    1
    12     7     9    1
    13     7     6    1
    14    10     9    1
    15    18    20    2
    16    24    23    2
    17     9    11    1
    18     6     5    1
    19    11    12    1
    20    12     1    1
    21    20    21    2
    22    23    21    2
    23    21    22    1
    24     4     1    2
    25     1     3    1
    26     1     2    1
