@<TRIPOS>MOLECULE
1hze_RBF_A_1.pdb
 47 49 0 0 0
SMALL
GASTEIGER

@<TRIPOS>ATOM
      1  N1        -7.1120   -7.1700   -8.4560 N.2    98  RBF98      -0.3025
      2  C2        -6.8980   -6.8540   -9.7470 C.1    98  RBF98       0.2727
      3  O2        -7.9410   -6.6550  -10.5680 O.2    98  RBF98      -0.1927
      4  N3        -5.6040   -6.7380  -10.2320 N.am   98  RBF98      -0.1956
      5  C4        -4.5280   -6.9510   -9.3840 C.2    98  RBF98       0.2930
      6  O4        -3.2770   -6.8400   -9.8480 O.2    98  RBF98      -0.2661
      7  C4A       -4.7600   -7.2830   -8.0430 C.2    98  RBF98       0.2302
      8  N5        -3.7470   -7.4990   -7.1870 N.2    98  RBF98      -0.3926
      9  C5A       -3.9530   -7.8150   -5.8940 C.2    98  RBF98       0.1360
     10  C6        -2.8590   -8.0320   -5.0470 C.2    98  RBF98      -0.0226
     11  C7        -3.0680   -8.3610   -3.7020 C.2    98  RBF98      -0.0587
     12  C7M       -1.8880   -8.5980   -2.7910 C.3    98  RBF98      -0.0425
     13  C8        -4.3730   -8.4710   -3.2020 C.3    98  RBF98       0.0216
     14  C8M       -4.5960   -8.8310   -1.7520 C.3    98  RBF98      -0.0512
     15  C9        -5.4710   -8.2560   -4.0470 C.2    98  RBF98      -0.0484
     16  C9A       -5.2650   -7.9280   -5.3970 C.2    98  RBF98       0.0706
     17  N10       -6.3390   -7.7090   -6.2640 N.pl3  98  RBF98      -0.2669
     18  C10       -6.0920   -7.3840   -7.6000 C.2    98  RBF98       0.2351
     19  C1'       -7.7280   -7.8140   -5.7780 C.3    98  RBF98       0.0482
     20  C2'       -7.9790   -9.2090   -5.2020 C.3    98  RBF98       0.0996
     21  O2'       -6.8820  -10.0670   -5.5290 O.3    98  RBF98      -0.3876
     22  C3'       -9.2690   -9.7800   -5.7880 C.3    98  RBF98       0.1104
     23  O3'       -9.3020   -9.5380   -7.1970 O.3    98  RBF98      -0.3865
     24  C4'      -10.4690   -9.1050   -5.1260 C.3    98  RBF98       0.1065
     25  O4'      -10.4310   -9.3440   -3.7160 O.3    98  RBF98      -0.3869
     26  C5'      -11.7610   -9.6780   -5.7050 C.3    98  RBF98       0.0726
     27  O5'      -11.7980  -11.0900   -5.4830 O.3    98  RBF98      -0.3924
     28  HN3       -5.4430   -6.4930  -11.2000 H      98  RBF98       0.1693
     29  HC6       -1.8530   -7.9470   -5.4310 H      98  RBF98       0.0650
     30 HC71       -2.1920   -8.4530   -1.7570 H      98  RBF98       0.0275
     31 HC72       -1.0930   -7.8970   -3.0370 H      98  RBF98       0.0275
     32 HC73       -1.5260   -9.6160   -2.9230 H      98  RBF98       0.0275
     33 HC81       -4.2840   -8.0030   -1.1200 H      98  RBF98       0.0241
     34 HC82       -4.0120   -9.7160   -1.5040 H      98  RBF98       0.0241
     35 HC83       -5.6520   -9.0360   -1.5870 H      98  RBF98       0.0241
     36  HC9       -6.4710   -8.3400   -3.6570 H      98  RBF98       0.0600
     37 HC11       -8.4140   -7.6360   -6.6030 H      98  RBF98       0.0495
     38 HC12       -7.8960   -7.0690   -5.0030 H      98  RBF98       0.0495
     39 HC2'       -8.0780   -9.1390   -4.1170 H      98  RBF98       0.0636
     40 HO2'       -7.1130  -10.9890   -5.3350 H      98  RBF98       0.2100
     41 HC3'       -9.3080  -10.8520   -5.6030 H      98  RBF98       0.0646
     42 HO3'       -8.7520  -10.1900   -7.6580 H      98  RBF98       0.2100
     43 HC4'      -10.4310   -8.0340   -5.3130 H      98  RBF98       0.0643
     44 HO4'      -10.1080   -8.5550   -3.2540 H      98  RBF98       0.2100
     45 HC51      -12.6140   -9.2120   -5.2160 H      98  RBF98       0.0584
     46 HC52      -11.8010   -9.4770   -6.7730 H      98  RBF98       0.0584
     47 HO5'      -12.7130  -11.4100   -5.5360 H      98  RBF98       0.2095
@<TRIPOS>BOND
     1    28     4    1
     2     3     2    2
     3     4     2   am
     4     4     5   am
     5     6     5    2
     6     2     1    2
     7     5     7    1
     8     1    18    2
     9     7    18    1
    10     7     8    2
    11    42    23    1
    12    18    17    1
    13    23    22    1
    14     8     9    2
    15    46    26    1
    16    37    19    1
    17    17    19    1
    18    17    16    1
    19     9    16    1
    20     9    10    1
    21    22    41    1
    22    22    20    1
    23    22    24    1
    24    19    20    1
    25    19    38    1
    26    26    27    1
    27    26    45    1
    28    26    24    1
    29    47    27    1
    30    21    40    1
    31    21    20    1
    32    29    10    1
    33    16    15    2
    34    43    24    1
    35    20    39    1
    36    24    25    1
    37    10    11    2
    38    15    36    1
    39    15    13    1
    40    25    44    1
    41    11    13    1
    42    11    12    1
    43    13    14    1
    44    31    12    1
    45    32    12    1
    46    12    30    1
    47    14    35    1
    48    14    34    1
    49    14    33    1
