@<TRIPOS>MOLECULE
1hzh_GAL_H_1.pdb
 11 11 0 0 0
SMALL
GASTEIGER

@<TRIPOS>ATOM
      1  C1        60.5720  137.5390  122.7680 C.3   487  GAL487      0.1777
      2  C2        60.5550  138.8850  122.0100 C.3   487  GAL487      0.2141
      3  C3        60.7820  140.0430  122.9890 C.3   487  GAL487      0.2173
      4  C4        59.7740  139.9650  124.1420 C.3   487  GAL487      0.2142
      5  C5        59.8180  138.5720  124.7930 C.3   487  GAL487      0.1810
      6  C6        58.7740  138.3980  125.8830 C.3   487  GAL487      0.2141
      7  O2        61.5650  138.9070  121.0110 O.3   487  GAL487     -0.2176
      8  O3        60.6500  141.2850  122.3110 O.3   487  GAL487     -0.2175
      9  O4        58.4640  140.2320  123.6600 O.3   487  GAL487     -0.2176
     10  O5        59.5760  137.5520  123.8010 O.3   487  GAL487     -0.3481
     11  O6        57.7450  137.5070  125.4790 O.3   487  GAL487     -0.2176
@<TRIPOS>BOND
     1     7     2    1
     2     2     1    1
     3     2     3    1
     4     8     3    1
     5     1    10    1
     6     3     4    1
     7     9     4    1
     8    10     5    1
     9     4     5    1
    10     5     6    1
    11    11     6    1
