@<TRIPOS>MOLECULE
1hzh_BMA_K_1.pdb
 11 11 0 0 0
SMALL
GASTEIGER

@<TRIPOS>ATOM
      1  C1        55.4770  119.7210  112.7130 C.3   481  BMA481      0.1777
      2  C2        55.8070  120.6320  113.9190 C.3   481  BMA481      0.2141
      3  C3        54.8320  120.3460  115.0560 C.3   481  BMA481      0.2173
      4  C4        53.4020  120.5740  114.5220 C.3   481  BMA481      0.2142
      5  C5        53.1750  119.6610  113.3230 C.3   481  BMA481      0.1810
      6  C6        51.7950  119.7750  112.7410 C.3   481  BMA481      0.2141
      7  O2        55.6500  121.9810  113.5120 O.3   481  BMA481     -0.2176
      8  O3        55.1060  121.1990  116.1940 O.3   481  BMA481     -0.2175
      9  O4        52.4420  120.2800  115.5100 O.3   481  BMA481     -0.2176
     10  O5        54.1250  119.9620  112.2830 O.3   481  BMA481     -0.3481
     11  O6        51.6880  118.9530  111.5600 O.3   481  BMA481     -0.2176
@<TRIPOS>BOND
     1    11     6    1
     2    10     1    1
     3    10     5    1
     4     1     2    1
     5     6     5    1
     6     5     4    1
     7     7     2    1
     8     2     3    1
     9     4     3    1
    10     4     9    1
    11     3     8    1
