@<TRIPOS>MOLECULE
1hzj_UD1_A_1.pdb
 39 41 0 0 0
SMALL
GASTEIGER

@<TRIPOS>ATOM
      1  C1'       23.9670   12.7500   45.1970 C.3   401  UD1401      0.2633
      2  C2'       23.0510   13.6680   44.3960 C.3   401  UD1401      0.1845
      3  C3'       23.7690   14.2230   43.1640 C.3   401  UD1401      0.2094
      4  C4'       25.1050   14.8740   43.5360 C.3   401  UD1401      0.2136
      5  C5'       25.9630   13.8580   44.2910 C.3   401  UD1401      0.1834
      6  C6'       27.1540   14.5330   44.9430 C.3   401  UD1401      0.2142
      7  C7'       20.8310   12.8140   44.7670 C.2   401  UD1401      0.2420
      8  C8'       19.5670   12.1270   44.3160 C.3   401  UD1401      0.0964
      9  N2'       21.8560   12.9410   43.9140 N.am  401  UD1401     -0.1992
     10  O1'       24.1890   11.5720   44.4660 O.3   401  UD1401     -0.2864
     11  O3'       22.9610   15.2310   42.5600 O.3   401  UD1401     -0.2183
     12  O4'       25.8110   15.4090   42.4060 O.3   401  UD1401     -0.2176
     13  O5'       25.2340   13.3770   45.4390 O.3   401  UD1401     -0.3260
     14  O6'       26.6210   15.5420   45.8070 O.3   401  UD1401     -0.2176
     15  O7'       20.9180   13.2250   45.9060 O.2   401  UD1401     -0.2733
     16  N1        22.8280    7.0530   51.0230 N.am  401  UD1401     -0.1766
     17  C2        22.2530    6.3010   52.0410 C.1   401  UD1401      0.2845
     18  N3        21.8350    7.0460   53.1020 N.2   401  UD1401     -0.2452
     19  C4        21.9650    8.4350   53.2460 C.1   401  UD1401      0.2182
     20  C5        22.5720    9.1040   52.1330 C.2   401  UD1401      0.1242
     21  C6        22.9530    8.4230   51.0890 C.2   401  UD1401      0.0929
     22  O2        22.1400    5.0750   51.9950 O.2   401  UD1401     -0.1918
     23  O4        21.5610    8.9600   54.2650 O.2   401  UD1401     -0.2085
     24  C1B       23.3660    6.3340   49.8520 C.3   401  UD1401      0.2401
     25  C2B       22.7780    6.7200   48.5270 C.3   401  UD1401      0.2319
     26  O2'       21.6840    5.8650   48.2180 O.3   401  UD1401     -0.2157
     27  C3B       23.9480    6.3420   47.5840 C.3   401  UD1401      0.2158
     28  C4B       25.1800    6.7230   48.3920 C.3   401  UD1401      0.1799
     29  O4B       24.7370    6.6680   49.7730 O.3   401  UD1401     -0.3320
     30  O3B       23.9660    4.9560   47.2220 O.3   401  UD1401     -0.2175
     31  C5B       25.7820    8.0910   48.1430 C.3   401  UD1401      0.1813
     32  O5B       24.7270    9.0300   48.3000 O.3   401  UD1401     -0.3112
     33  PA        24.9260   10.5720   48.1070 P.3   401  UD1401      0.2189
     34  O1A       23.6490   11.3200   48.2490 O.2   401  UD1401     -0.5170
     35  O2A       25.9650   11.1320   48.9880 O.3   401  UD1401     -0.4371
     36  O3A       25.5060   10.6990   46.5780 O.3   401  UD1401     -0.2703
     37  PB        24.8560   10.3070   45.1950 P.3   401  UD1401      0.2208
     38  O1B       26.0040    9.7670   44.4120 O.2   401  UD1401     -0.5170
     39  O2B       23.8480    9.2020   45.3760 O.3   401  UD1401     -0.4371
@<TRIPOS>BOND
     1    12     4    1
     2    11     3    1
     3     3     4    1
     4     3     2    1
     5     4     5    1
     6     9     2    1
     7     9     7   am
     8     5     6    1
     9     5    13    1
    10     8     7    1
    11     2     1    1
    12    38    37    2
    13    10    37    1
    14    10     1    1
    15     7    15    2
    16     6    14    1
    17    37    39    1
    18    37    36    1
    19     1    13    1
    20    36    33    1
    21    30    27    1
    22    27    28    1
    23    27    25    1
    24    33    34    2
    25    33    32    1
    26    33    35    1
    27    31    32    1
    28    31    28    1
    29    26    25    1
    30    28    29    1
    31    25    24    1
    32    29    24    1
    33    24    16    1
    34    16    21    1
    35    16    17   am
    36    21    20    2
    37    22    17    2
    38    17    18    2
    39    20    19    1
    40    18    19    2
    41    19    23    2
