@<TRIPOS>MOLECULE
1hzj_NAD_A_1.pdb
 44 48 0 0 0
SMALL
GASTEIGER

@<TRIPOS>ATOM
      1  PA        28.4430   24.8220   48.6190 P.3   400  NAD400      0.2189
      2  O1A       29.1740   24.5710   49.9030 O.3   400  NAD400     -0.4371
      3  O2A       27.0170   25.1470   48.8000 O.2   400  NAD400     -0.5170
      4  O5B       29.1940   26.0220   47.9510 O.3   400  NAD400     -0.3112
      5  C5B       28.5370   26.8790   46.9950 C.3   400  NAD400      0.1813
      6  C4B       28.7760   28.2850   47.4230 C.3   400  NAD400      0.1821
      7  O4B       28.0210   29.1540   46.5290 O.3   400  NAD400     -0.3135
      8  C3B       28.2270   28.5560   48.8400 C.3   400  NAD400      0.2184
      9  O3B       29.2580   29.1060   49.6580 O.3   400  NAD400     -0.2174
     10  C2B       27.0540   29.5180   48.5440 C.3   400  NAD400      0.2570
     11  O2B       26.7630   30.4890   49.5680 O.3   400  NAD400     -0.2130
     12  C1B       27.4880   30.2070   47.2560 C.3   400  NAD400      0.3186
     13  N9A       26.3620   30.7240   46.4900 N.pl3 400  NAD400     -0.1439
     14  C8A       25.1390   30.1340   46.2280 C.3   400  NAD400      0.3377
     15  N7A       24.3540   30.8900   45.4470 N.2   400  NAD400     -0.2095
     16  C5A       25.1270   32.0110   45.1890 C.2   400  NAD400      0.2526
     17  C6A       24.8760   33.1710   44.4170 C.2   400  NAD400      0.4393
     18  N6A       23.7320   33.4290   43.7640 N.pl3 400  NAD400      0.2180
     19  N1A       25.8580   34.0880   44.3800 N.2   400  NAD400      0.0021
     20  C2A       27.0450   33.8760   45.0680 C.3   400  NAD400      0.5254
     21  N3A       27.3630   32.8630   45.8140 N.2   400  NAD400     -0.0055
     22  C4A       26.3580   31.9460   45.8380 C.2   400  NAD400      0.3518
     23  O3        28.5560   23.5830   47.6940 O.3   400  NAD400     -0.2703
     24  PN        29.8330   22.6850   47.2460 P.3   400  NAD400      0.2189
     25  O1N       29.6750   21.3240   47.7520 O.3   400  NAD400     -0.4371
     26  O2N       31.0550   23.4470   47.6080 O.2   400  NAD400     -0.5170
     27  O5D       29.7110   22.6490   45.6280 O.3   400  NAD400     -0.3112
     28  C5D       30.4720   23.5980   44.8500 C.3   400  NAD400      0.1813
     29  C4D       29.9270   23.4810   43.4380 C.3   400  NAD400      0.1799
     30  O4D       30.1960   22.1370   43.0150 O.3   400  NAD400     -0.3327
     31  C3D       28.4110   23.7200   43.2000 C.3   400  NAD400      0.2158
     32  O3D       28.1500   24.4190   41.9600 O.3   400  NAD400     -0.2175
     33  C2D       27.8860   22.2790   43.1520 C.3   400  NAD400      0.2309
     34  O2D       26.6660   22.2690   42.3830 O.3   400  NAD400     -0.2158
     35  C1D       29.0380   21.5300   42.5000 C.3   400  NAD400      0.2263
     36  N1N       29.0750   20.0760   42.7790 N.pl3 400  NAD400     -0.2787
     37  C2N       29.1150   19.7200   44.1030 C.3   400  NAD400      0.1244
     38  C3N       29.0180   18.3840   44.4500 C.2   400  NAD400      0.0544
     39  C7N       29.0930   17.9490   45.9420 C.2   400  NAD400      0.2818
     40  O7N       28.9420   16.7680   46.2470 O.2   400  NAD400     -0.2670
     41  N7N       29.3680   18.8490   46.8960 N.am  400  NAD400     -0.0839
     42  C4N       29.0360   17.3490   43.4410 C.2   400  NAD400      0.0033
     43  C5N       29.1310   17.8620   42.1420 C.2   400  NAD400      0.0157
     44  C6N       29.1260   19.1630   41.7260 C.2   400  NAD400      0.0633
@<TRIPOS>BOND
     1    44    43    2
     2    44    36    1
     3    32    31    1
     4    43    42    1
     5    34    33    1
     6    35    36    1
     7    35    30    1
     8    35    33    1
     9    36    37    1
    10    30    29    1
    11    33    31    1
    12    31    29    1
    13    29    28    1
    14    42    38    2
    15    18    17    1
    16    37    38    1
    17    19    17    2
    18    19    20    1
    19    17    16    1
    20    38    39    1
    21    28    27    1
    22    20    21    1
    23    16    15    2
    24    16    22    1
    25    15    14    1
    26    27    24    1
    27    21    22    2
    28    22    13    1
    29    39    40    2
    30    39    41   am
    31    14    13    1
    32    13    12    1
    33     7    12    1
    34     7     6    1
    35     5     6    1
    36     5     4    1
    37    24    26    2
    38    24    23    1
    39    24    25    1
    40    12    10    1
    41     6     8    1
    42    23     1    1
    43     4     1    1
    44    10     8    1
    45    10    11    1
    46     1     3    2
    47     1     2    1
    48     8     9    1
