@<TRIPOS>MOLECULE
1hzp_DAO_A_1.pdb
 14 13 0 0 0
SMALL
GASTEIGER

@<TRIPOS>ATOM
      1  O1         2.1860   41.0820   56.5380 O.co2 408  DAO408     -0.2457
      2  O2         2.6850   42.6000   55.0470 O.co2 408  DAO408     -0.2457
      3  C1         1.8520   41.9990   55.7590 C.2   408  DAO408      0.3649
      4  C2         0.3750   42.4010   55.6660 C.3   408  DAO408      0.1141
      5  C3        -0.3880   41.7100   54.5270 C.3   408  DAO408      0.0118
      6  C4        -1.7840   42.2860   54.3530 C.3   408  DAO408      0.0006
      7  C5        -1.7760   43.4580   53.3830 C.3   408  DAO408      0.0000
      8  C6        -2.8890   43.3660   52.3600 C.3   408  DAO408      0.0000
      9  C7        -4.1900   43.9390   52.8830 C.3   408  DAO408      0.0000
     10  C8        -5.3520   43.0350   52.5460 C.3   408  DAO408      0.0000
     11  C9        -6.3940   43.0600   53.6440 C.3   408  DAO408      0.0000
     12  C10       -7.6730   42.3890   53.1960 C.3   408  DAO408      0.0000
     13  C11       -8.7280   43.4140   52.8220 C.3   408  DAO408      0.0000
     14  C12       -9.0350   43.3790   51.3310 C.3   408  DAO408      0.0000
@<TRIPOS>BOND
     1    14    13    1
     2     8     9    1
     3     8     7    1
     4    10     9    1
     5    10    11    1
     6    13    12    1
     7    12    11    1
     8     7     6    1
     9     6     5    1
    10     5     4    1
    11     2     3   ar
    12     4     3    1
    13     3     1   ar
