@<TRIPOS>MOLECULE
1hzu_HEC_A_1.pdb
 43 50 0 0 0
SMALL
GASTEIGER

@<TRIPOS>ATOM
      1 FE         -3.5920   64.1330  113.3550 Fe    601  HEC601      0.0000
      2  CHA       -0.9830   65.5480  111.7740 C.2   601  HEC601      0.0000
      3  CHB       -4.2770   67.1610  114.7820 C.2   601  HEC601      0.0000
      4  CHC       -6.3090   62.8550  114.8100 C.2   601  HEC601      0.0000
      5  CHD       -2.5660   61.0840  112.3600 C.2   601  HEC601      0.0000
      6  NA        -2.8520   65.9460  113.2270 N.2   601  HEC601      0.0000
      7  C1A       -1.7630   66.3530  112.5240 C.2   601  HEC601      0.0000
      8  C2A       -1.3560   67.6630  112.8930 C.2   601  HEC601      0.0000
      9  C3A       -2.2800   68.1730  113.7250 C.2   601  HEC601      0.0000
     10  C4A       -3.2140   67.0900  113.9210 C.2   601  HEC601      0.0000
     11  CMA       -2.3110   69.4940  114.4410 C.3   601  HEC601      0.0000
     12  CAA        0.0740   68.0120  112.6380 C.3   601  HEC601      0.0000
     13  CBA        0.5710   69.4120  112.4630 C.3   601  HEC601      0.0000
     14  CGA        1.9380   69.4340  111.8390 C.2   601  HEC601      0.0000
     15  O1A        2.9170   69.0990  112.5400 O.co2 601  HEC601      0.0000
     16  O2A        2.0220   69.7710  110.6400 O.co2 601  HEC601      0.0000
     17  NB        -4.9590   64.8440  114.5530 N.ar  601  HEC601      0.0000
     18  C1B       -5.1020   66.1100  115.0800 C.ar  601  HEC601      0.0000
     19  C2B       -6.3040   66.2430  115.8550 C.ar  601  HEC601      0.0000
     20  C3B       -6.9490   65.0380  115.7810 C.ar  601  HEC601      0.0000
     21  C4B       -6.0900   64.1980  114.9880 C.ar  601  HEC601      0.0000
     22  CMB       -6.6600   67.4720  116.6690 C.3   601  HEC601      0.0000
     23  CAB       -8.2240   64.5260  116.4820 C.3   601  HEC601      0.0000
     24  CBB       -9.4610   65.3930  116.4840 C.3   601  HEC601      0.0000
     25  NC        -4.2260   62.3660  113.5590 N.2   601  HEC601      0.0000
     26  C1C       -5.4100   61.9900  114.1780 C.2   601  HEC601      0.0000
     27  C2C       -5.6170   60.5590  114.1010 C.2   601  HEC601      0.0000
     28  C3C       -4.5520   60.0460  113.4070 C.2   601  HEC601      0.0000
     29  C4C       -3.7170   61.1820  113.0690 C.2   601  HEC601      0.0000
     30  CMC       -6.7970   59.8010  114.7040 C.3   601  HEC601      0.0000
     31  CAC       -4.1920   58.5480  113.2510 C.3   601  HEC601      0.0000
     32  CBC       -5.2370   57.4910  112.9050 C.3   601  HEC601      0.0000
     33  ND        -2.0920   63.4930  112.3490 N.ar  601  HEC601      0.0000
     34  C1D       -1.7830   62.1700  112.0530 C.ar  601  HEC601      0.0000
     35  C2D       -0.5630   62.0570  111.2900 C.ar  601  HEC601      0.0000
     36  C3D       -0.1160   63.3220  111.0960 C.ar  601  HEC601      0.0000
     37  C4D       -1.0950   64.2050  111.7280 C.ar  601  HEC601      0.0000
     38  CMD        0.0770   60.7590  110.8060 C.3   601  HEC601      0.0000
     39  CAD        1.1060   63.6900  110.2740 C.3   601  HEC601      0.0000
     40  CBD        0.5630   64.0150  108.8840 C.3   601  HEC601      0.0000
     41  CGD        1.6430   64.1120  107.8250 C.2   601  HEC601      0.0000
     42  O1D        1.4330   63.5590  106.7330 O.co2 601  HEC601      0.0000
     43  O2D        2.6960   64.7310  108.0740 O.co2 601  HEC601      0.0000
@<TRIPOS>BOND
     1    42    41   ar
     2    41    43   ar
     3    41    40    1
     4    40    39    1
     5    39    36    1
     6    16    14   ar
     7    38    35    1
     8    36    35   ar
     9    36    37   ar
    10    35    34   ar
    11    37     2    2
    12    37    33   ar
    13     2     7    1
    14    14    13    1
    15    14    15   ar
    16    34    33   ar
    17    34     5    2
    18    33     1    1
    19     5    29    1
    20    13    12    1
    21     7     8    1
    22     7     6    2
    23    12     8    1
    24     8     9    2
    25    32    31    1
    26    29    28    1
    27    29    25    2
    28     6     1    1
    29     6    10    1
    30    31    28    1
    31     1    25    1
    32     1    17    1
    33    28    27    2
    34    25    26    1
    35     9    10    1
    36     9    11    1
    37    10     3    2
    38    27    26    1
    39    27    30    1
    40    26     4    2
    41    17    21   ar
    42    17    18   ar
    43     3    18    1
    44     4    21    1
    45    21    20   ar
    46    18    19   ar
    47    20    19   ar
    48    20    23    1
    49    19    22    1
    50    23    24    1
