@<TRIPOS>MOLECULE
1hzu_DHE_A_1.pdb
 49 56 0 0 0
SMALL
GASTEIGER

@<TRIPOS>ATOM
      1 FE          2.4080   46.7740  114.3780 Fe    602  DHE602      0.0000
      2  CHA        2.2880   43.5830  115.5190 C.2   602  DHE602      0.0000
      3  CHB        3.3290   47.9120  117.4440 C.2   602  DHE602      0.0000
      4  CHC        4.0100   49.3120  112.9480 C.2   602  DHE602      0.0000
      5  CHD        1.3990   45.7280  111.2880 C.2   602  DHE602      0.0000
      6  NA         2.8630   45.8550  116.1830 N.2   602  DHE602      0.0000
      7  C1A        2.5740   44.5460  116.4870 C.2   602  DHE602      0.0000
      8  C2A        2.6460   44.4120  117.9170 C.2   602  DHE602      0.0000
      9  C3A        3.2260   45.5620  118.3950 C.2   602  DHE602      0.0000
     10  C4A        3.1540   46.5270  117.3560 C.2   602  DHE602      0.0000
     11  CMA        3.8560   45.8080  119.7270 C.3   602  DHE602      0.0000
     12  CAA        2.2040   43.2120  118.7210 C.3   602  DHE602      0.0000
     13  CBA        0.7830   43.1850  119.0540 C.3   602  DHE602      0.0000
     14  CGA        0.2580   41.9690  119.6990 C.2   602  DHE602      0.0000
     15  O1A        1.0080   41.3270  120.4670 O.co2 602  DHE602      0.0000
     16  O2A       -0.9210   41.6200  119.4580 O.co2 602  DHE602      0.0000
     17  NB         3.2280   48.5280  115.0620 N.pl3 602  DHE602      0.0000
     18  C1B        3.4760   48.7750  116.3820 C.2   602  DHE602      0.0000
     19  C2B        4.0000   50.1500  116.4860 C.2   602  DHE602      0.0000
     20  OMB        3.9070   50.9160  117.4180 O.2   602  DHE602      0.0000
     21  C3B        4.6840   50.4120  115.1590 C.2   602  DHE602      0.0000
     22  CGB        6.2260   49.9640  115.3280 C.3   602  DHE602      0.0000
     23  CAB        4.6000   51.8200  114.7060 C.3   602  DHE602      0.0000
     24  CBB        3.3000   52.2270  114.1500 C.2   602  DHE602      0.0000
     25  O1B        3.0600   52.0090  112.9360 O.co2 602  DHE602      0.0000
     26  O2B        2.4820   52.7810  114.9090 O.co2 602  DHE602      0.0000
     27  C4B        3.9510   49.3800  114.3030 C.2   602  DHE602      0.0000
     28  NC         2.3250   47.6380  112.4100 N.2   602  DHE602      0.0000
     29  C1C        3.3200   48.5340  112.0850 C.2   602  DHE602      0.0000
     30  C2C        3.6250   48.5100  110.6370 C.2   602  DHE602      0.0000
     31  OMC        4.4790   49.1490  110.0600 O.2   602  DHE602      0.0000
     32  C3C        2.6820   47.5340  110.0020 C.2   602  DHE602      0.0000
     33  CGC        3.5960   46.4490  109.2330 C.3   602  DHE602      0.0000
     34  CAC        1.7690   48.1720  109.0430 C.3   602  DHE602      0.0000
     35  CBC        0.5760   48.7600  109.6410 C.2   602  DHE602      0.0000
     36  O1C       -0.5330   48.2620  109.3660 O.co2 602  DHE602      0.0000
     37  O2C        0.7100   49.7370  110.4100 O.co2 602  DHE602      0.0000
     38  C4C        2.0630   46.9070  111.2690 C.2   602  DHE602      0.0000
     39  ND         1.7440   44.9540  113.5700 N.ar  602  DHE602      0.0000
     40  C1D        1.6270   44.7300  112.2030 C.ar  602  DHE602      0.0000
     41  C2D        1.8260   43.3520  111.9440 C.ar  602  DHE602      0.0000
     42  C3D        1.8800   42.7250  113.1580 C.ar  602  DHE602      0.0000
     43  C4D        1.9890   43.7350  114.1640 C.ar  602  DHE602      0.0000
     44  CMD        1.9390   42.7690  110.5720 C.3   602  DHE602      0.0000
     45  CAD        1.8190   41.2940  113.4210 C.3   602  DHE602      0.0000
     46  CBD        1.9660   40.3750  112.5640 C.3   602  DHE602      0.0000
     47  CGD        3.2340   39.9200  112.0330 C.2   602  DHE602      0.0000
     48  O1D        3.4780   40.1540  110.8340 O.co2 602  DHE602      0.0000
     49  O2D        4.0230   39.3170  112.7980 O.co2 602  DHE602      0.0000
@<TRIPOS>BOND
     1    34    35    1
     2    34    32    1
     3    33    32    1
     4    36    35   ar
     5    35    37   ar
     6    32    30    2
     7    32    38    1
     8    31    30    1
     9    44    41    1
    10    30    29    1
    11    48    47   ar
    12    38     5    1
    13    38    28    2
    14     5    40    2
    15    41    40   ar
    16    41    42   ar
    17    47    46    1
    18    47    49   ar
    19    29    28    1
    20    29     4    2
    21    40    39   ar
    22    28     1    1
    23    46    45    1
    24    25    24   ar
    25     4    27    1
    26    42    45    1
    27    42    43   ar
    28    39    43   ar
    29    39     1    1
    30    24    23    1
    31    24    26   ar
    32    43     2    2
    33    27    17    1
    34    27    21    2
    35     1    17    1
    36     1     6    1
    37    23    21    1
    38    17    18    1
    39    21    22    1
    40    21    19    1
    41     2     7    1
    42     6     7    2
    43     6    10    1
    44    18    19    2
    45    18     3    1
    46    19    20    1
    47     7     8    1
    48    10     3    2
    49    10     9    1
    50     8     9    2
    51     8    12    1
    52     9    11    1
    53    12    13    1
    54    13    14    1
    55    16    14   ar
    56    14    15   ar
