@<TRIPOS>MOLECULE
1hzv_HEC_A_1.pdb
 43 50 0 0 0
SMALL
GASTEIGER

@<TRIPOS>ATOM
      1 FE          0.2750   -2.7990   53.6970 Fe    601  HEC601      0.0000
      2  CHA       -2.7360   -1.6030   52.2820 C.2   601  HEC601      0.0000
      3  CHB       -1.4580   -4.6480   55.9300 C.2   601  HEC601      0.0000
      4  CHC        3.2290   -4.1030   54.8190 C.2   601  HEC601      0.0000
      5  CHD        1.8340   -0.3810   52.1800 C.2   601  HEC601      0.0000
      6  NA        -1.7000   -3.1650   53.9500 N.2   601  HEC601      0.0000
      7  C1A       -2.8210   -2.6130   53.2800 C.2   601  HEC601      0.0000
      8  C2A       -4.0670   -3.1560   53.8410 C.2   601  HEC601      0.0000
      9  C3A       -3.6910   -4.0040   54.8610 C.2   601  HEC601      0.0000
     10  C4A       -2.2290   -3.9910   54.9350 C.2   601  HEC601      0.0000
     11  CMA       -4.6230   -4.8950   55.6970 C.3   601  HEC601      0.0000
     12  CAA       -5.5000   -3.0320   53.2940 C.3   601  HEC601      0.0000
     13  CBA       -6.2150   -1.6970   53.3580 C.3   601  HEC601      0.0000
     14  CGA       -7.6990   -1.8330   53.1370 C.2   601  HEC601      0.0000
     15  O1A       -8.1510   -1.6870   51.9840 O.co2 601  HEC601      0.0000
     16  O2A       -8.4170   -2.0910   54.1220 O.co2 601  HEC601      0.0000
     17  NB         0.7960   -4.1320   55.1130 N.ar  601  HEC601      0.0000
     18  C1B       -0.0560   -4.6720   56.0580 C.ar  601  HEC601      0.0000
     19  C2B        0.6790   -5.2960   57.1440 C.ar  601  HEC601      0.0000
     20  C3B        2.0180   -5.3310   56.7240 C.ar  601  HEC601      0.0000
     21  C4B        2.0650   -4.5840   55.4510 C.ar  601  HEC601      0.0000
     22  CMB        0.0420   -5.5650   58.5090 C.3   601  HEC601      0.0000
     23  CAB        3.3000   -6.0010   57.2980 C.3   601  HEC601      0.0000
     24  CBB        3.3310   -7.3380   58.0300 C.3   601  HEC601      0.0000
     25  NC         2.0990   -2.3720   53.4870 N.2   601  HEC601      0.0000
     26  C1C        3.2540   -3.0320   53.9070 C.2   601  HEC601      0.0000
     27  C2C        4.4200   -2.5340   53.1630 C.2   601  HEC601      0.0000
     28  C3C        3.9480   -1.4630   52.4360 C.2   601  HEC601      0.0000
     29  C4C        2.5890   -1.4060   52.6720 C.2   601  HEC601      0.0000
     30  CMC        5.7770   -3.2560   53.0650 C.3   601  HEC601      0.0000
     31  CAC        4.5740   -0.2400   52.0010 C.3   601  HEC601      0.0000
     32  CBC        5.4460   -0.7580   50.6100 C.3   601  HEC601      0.0000
     33  ND        -0.3510   -1.2700   52.5190 N.ar  601  HEC601      0.0000
     34  C1D        0.5070   -0.3390   52.0280 C.ar  601  HEC601      0.0000
     35  C2D       -0.0280    0.3240   50.9070 C.ar  601  HEC601      0.0000
     36  C3D       -1.3050   -0.1010   50.7610 C.ar  601  HEC601      0.0000
     37  C4D       -1.5460   -1.0300   51.8520 C.ar  601  HEC601      0.0000
     38  CMD        0.7720    1.3420   50.0570 C.3   601  HEC601      0.0000
     39  CAD       -2.2880    0.5280   49.8150 C.3   601  HEC601      0.0000
     40  CBD       -2.2300    0.1430   48.3850 C.3   601  HEC601      0.0000
     41  CGD       -2.7770   -1.1850   48.0930 C.2   601  HEC601      0.0000
     42  O1D       -2.3840   -1.6580   47.0210 O.co2 601  HEC601      0.0000
     43  O2D       -3.5750   -1.7640   48.8700 O.co2 601  HEC601      0.0000
@<TRIPOS>BOND
     1    42    41   ar
     2    41    40    1
     3    41    43   ar
     4    40    39    1
     5    39    36    1
     6    38    35    1
     7    32    31    1
     8    36    35   ar
     9    36    37   ar
    10    35    34   ar
    11    37     2    2
    12    37    33   ar
    13    15    14   ar
    14    31    28    1
    15    34     5    2
    16    34    33   ar
    17     5    29    1
    18     2     7    1
    19    28    29    1
    20    28    27    2
    21    33     1    1
    22    29    25    2
    23    30    27    1
    24    14    13    1
    25    14    16   ar
    26    27    26    1
    27     7     8    1
    28     7     6    2
    29    12    13    1
    30    12     8    1
    31    25     1    1
    32    25    26    1
    33     1     6    1
    34     1    17    1
    35     8     9    2
    36    26     4    2
    37     6    10    1
    38     4    21    1
    39     9    10    1
    40     9    11    1
    41    10     3    2
    42    17    21   ar
    43    17    18   ar
    44    21    20   ar
    45     3    18    1
    46    18    19   ar
    47    20    19   ar
    48    20    23    1
    49    19    22    1
    50    23    24    1
