@<TRIPOS>MOLECULE
1hzv_DHE_A_1.pdb
 49 56 0 0 0
SMALL
GASTEIGER

@<TRIPOS>ATOM
      1 FE          7.4470   17.3950   56.0120 Fe    602  DHE602      0.0000
      2  CHA       10.2150   19.4200   56.2520 C.2   602  DHE602      0.0000
      3  CHB        7.4900   16.8300   59.3800 C.2   602  DHE602      0.0000
      4  CHC        4.4010   16.0670   55.7790 C.2   602  DHE602      0.0000
      5  CHD        8.1020   16.6980   52.7420 C.2   602  DHE602      0.0000
      6  NA         8.5750   18.1970   57.6180 N.2   602  DHE602      0.0000
      7  C1A        9.7280   18.9540   57.4840 C.2   602  DHE602      0.0000
      8  C2A       10.2890   19.1190   58.8010 C.2   602  DHE602      0.0000
      9  C3A        9.5050   18.3940   59.6850 C.2   602  DHE602      0.0000
     10  C4A        8.4690   17.7520   58.9250 C.2   602  DHE602      0.0000
     11  CMA        9.6390   18.2730   61.1740 C.3   602  DHE602      0.0000
     12  CAA       11.4910   19.9630   59.1350 C.3   602  DHE602      0.0000
     13  CBA       12.7630   19.2690   59.0330 C.3   602  DHE602      0.0000
     14  CGA       13.9420   20.0920   59.1930 C.2   602  DHE602      0.0000
     15  O1A       14.1360   21.0260   58.3820 O.co2 602  DHE602      0.0000
     16  O2A       14.7230   19.8390   60.1370 O.co2 602  DHE602      0.0000
     17  NB         5.9820   16.8470   57.4210 N.pl3 602  DHE602      0.0000
     18  C1B        6.3020   16.5460   58.7390 C.2   602  DHE602      0.0000
     19  C2B        5.1270   15.8420   59.3830 C.2   602  DHE602      0.0000
     20  OMB        5.0910   15.3230   60.4860 O.2   602  DHE602      0.0000
     21  C3B        3.9740   15.9020   58.3750 C.2   602  DHE602      0.0000
     22  CGB        3.0520   17.1600   58.8200 C.3   602  DHE602      0.0000
     23  CAB        3.1190   14.6520   58.3550 C.3   602  DHE602      0.0000
     24  CBB        3.6780   13.4160   57.7580 C.2   602  DHE602      0.0000
     25  O1B        2.9220   12.6870   57.0840 O.co2 602  DHE602      0.0000
     26  O2B        4.8860   13.1410   57.9340 O.co2 602  DHE602      0.0000
     27  C4B        4.7920   16.2820   57.0950 C.2   602  DHE602      0.0000
     28  NC         6.3050   16.7430   54.3930 N.2   602  DHE602      0.0000
     29  C1C        5.0740   16.1960   54.5860 C.2   602  DHE602      0.0000
     30  C2C        4.5390   15.6910   53.2920 C.2   602  DHE602      0.0000
     31  OMC        3.4260   15.2610   53.0790 O.2   602  DHE602      0.0000
     32  C3C        5.6550   15.7740   52.2810 C.2   602  DHE602      0.0000
     33  CGC        5.1890   16.8300   51.1610 C.3   602  DHE602      0.0000
     34  CAC        5.9000   14.4550   51.6470 C.3   602  DHE602      0.0000
     35  CBC        6.4720   13.4060   52.4840 C.2   602  DHE602      0.0000
     36  O1C        7.5370   12.9310   52.1240 O.co2 602  DHE602      0.0000
     37  O2C        5.8730   13.0300   53.5150 O.co2 602  DHE602      0.0000
     38  C4C        6.7870   16.4310   53.1510 C.2   602  DHE602      0.0000
     39  ND         8.9050   18.0540   54.6580 N.ar  602  DHE602      0.0000
     40  C1D        9.0140   17.6090   53.3590 C.ar  602  DHE602      0.0000
     41  C2D       10.1850   18.2350   52.7980 C.ar  602  DHE602      0.0000
     42  C3D       10.6720   19.1450   53.7370 C.ar  602  DHE602      0.0000
     43  C4D        9.9530   18.9180   54.9620 C.ar  602  DHE602      0.0000
     44  CMD       10.7250   17.9140   51.4490 C.3   602  DHE602      0.0000
     45  CAD       11.7340   20.1510   53.5680 C.2   602  DHE602      0.0000
     46  CBD       11.7550   21.1210   52.7510 C.2   602  DHE602      0.0000
     47  CGD       12.6420   22.2560   52.8210 C.2   602  DHE602      0.0000
     48  O1D       13.4360   22.4460   51.9080 O.co2 602  DHE602      0.0000
     49  O2D       12.5700   23.0120   53.7820 O.co2 602  DHE602      0.0000
@<TRIPOS>BOND
     1    33    32    1
     2    44    41    1
     3    34    32    1
     4    34    35    1
     5    48    47   ar
     6    36    35   ar
     7    32    38    1
     8    32    30    2
     9    35    37   ar
    10     5    38    1
    11     5    40    2
    12    46    47    1
    13    46    45    2
    14    41    40   ar
    15    41    42   ar
    16    47    49   ar
    17    31    30    1
    18    38    28    2
    19    30    29    1
    20    40    39   ar
    21    45    42    1
    22    42    43   ar
    23    28    29    1
    24    28     1    1
    25    29     4    2
    26    39    43   ar
    27    39     1    1
    28    43     2    2
    29     4    27    1
    30     1    17    1
    31     1     6    1
    32     2     7    1
    33    25    24   ar
    34    27    17    1
    35    27    21    2
    36    17    18    1
    37     7     6    2
    38     7     8    1
    39     6    10    1
    40    24    26   ar
    41    24    23    1
    42    23    21    1
    43    21    22    1
    44    21    19    1
    45    15    14   ar
    46    18     3    1
    47    18    19    2
    48     8    12    1
    49     8     9    2
    50    10     3    2
    51    10     9    1
    52    13    12    1
    53    13    14    1
    54    14    16   ar
    55    19    20    1
    56     9    11    1
