@<TRIPOS>MOLECULE
1hzx_RET_A_1.pdb
 20 20 0 0 0
SMALL
GASTEIGER

@<TRIPOS>ATOM
      1  C1        62.5710    7.0540  -11.0200 C.3   1296  RET1296     0.0037
      2  C2        63.3060    6.2940   -9.8030 C.3   1296  RET1296     0.0003
      3  C3        63.7040    7.2230   -8.6730 C.3   1296  RET1296     0.0000
      4  C4        62.5400    8.1910   -8.2190 C.3   1296  RET1296     0.0003
      5  C5        61.9710    8.9150   -9.4100 C.3   1296  RET1296     0.0040
      6  C6        61.8620    8.3210  -10.6510 C.3   1296  RET1296     0.0220
      7  C7        61.0270    8.8410  -11.7810 C.2   1296  RET1296    -0.0268
      8  C8        59.6720    9.0590  -11.6370 C.2   1296  RET1296    -0.0088
      9  C9        58.7020    9.7550  -12.5270 C.2   1296  RET1296    -0.0222
     10  C10       57.5800   10.3530  -12.0680 C.2   1296  RET1296    -0.0046
     11  C11       56.6010   11.1240  -12.8430 C.2   1296  RET1296    -0.0049
     12  C12       55.3000   11.4040  -12.5740 C.2   1296  RET1296    -0.0265
     13  C13       54.3110   11.2570  -11.4630 C.3   1296  RET1296     0.0220
     14  C14       53.2410   12.1020  -11.4310 C.3   1296  RET1296     0.0043
     15  C15       52.5490   12.7030  -10.2500 C.3   1296  RET1296     0.0003
     16  C16       63.6560    7.3010  -12.0670 C.3   1296  RET1296     0.0003
     17  C17       61.6720    5.8840  -11.5880 C.3   1296  RET1296     0.0003
     18  C18       61.5940   10.3890   -9.0780 C.3   1296  RET1296     0.0003
     19  C19       59.0870    9.7310  -13.9690 C.3   1296  RET1296     0.0310
     20  C20       54.5400   10.1450  -10.4640 C.3   1296  RET1296     0.0047
@<TRIPOS>BOND
     1    19     9    1
     2    11    12    2
     3    11    10    1
     4    12    13    1
     5     9    10    2
     6     9     8    1
     7    16     1    1
     8     7     8    2
     9     7     6    1
    10    17     1    1
    11    13    14    1
    12    13    20    1
    13    14    15    1
    14     1     6    1
    15     1     2    1
    16     6     5    1
    17     2     3    1
    18     5    18    1
    19     5     4    1
    20     3     4    1
