@<TRIPOS>MOLECULE
1hzz_NAD_A_1.pdb
 44 48 0 0 0
SMALL
GASTEIGER

@<TRIPOS>ATOM
      1  PA        -7.7350    6.0130   26.8070 P.3   400  NAD400      0.2189
      2  O1A       -7.4090    4.6300   27.3190 O.2   400  NAD400     -0.5170
      3  O2A       -7.3610    7.0730   27.7850 O.3   400  NAD400     -0.4371
      4  O5B       -9.2970    6.1590   26.4460 O.3   400  NAD400     -0.3112
      5  C5B      -10.2610    5.1120   26.6340 C.3   400  NAD400      0.1813
      6  C4B      -11.5530    5.5420   25.9900 C.3   400  NAD400      0.1821
      7  O4B      -12.3040    6.2890   26.9840 O.3   400  NAD400     -0.3135
      8  C3B      -11.4800    6.5350   24.8040 C.3   400  NAD400      0.2184
      9  O3B      -11.9390    6.0670   23.5690 O.3   400  NAD400     -0.2174
     10  C2B      -12.2440    7.7410   25.3030 C.3   400  NAD400      0.2570
     11  O2B      -12.7460    8.5810   24.3000 O.3   400  NAD400     -0.2130
     12  C1B      -13.2440    7.0220   26.2040 C.3   400  NAD400      0.3186
     13  N9A      -14.0580    7.8460   27.1740 N.pl3 400  NAD400     -0.1439
     14  C8A      -13.6410    8.7080   28.1830 C.3   400  NAD400      0.3377
     15  N7A      -14.6670    9.2730   28.8660 N.2   400  NAD400     -0.2095
     16  C5A      -15.7930    8.7440   28.2570 C.2   400  NAD400      0.2526
     17  C6A      -17.2130    8.9160   28.4820 C.2   400  NAD400      0.4393
     18  N6A      -17.7300    9.7120   29.4250 N.pl3 400  NAD400      0.2180
     19  N1A      -18.1080    8.1950   27.6440 N.2   400  NAD400      0.0021
     20  C2A      -17.6070    7.3510   26.6440 C.3   400  NAD400      0.5254
     21  N3A      -16.3150    7.1440   26.3810 N.2   400  NAD400     -0.0055
     22  C4A      -15.4420    7.8600   27.2120 C.2   400  NAD400      0.3518
     23  O3        -7.2640    6.2650   25.3050 O.3   400  NAD400     -0.2703
     24  PN        -6.5140    5.3370   24.3320 P.3   400  NAD400      0.2189
     25  O1N       -7.2770    4.0690   24.1270 O.2   400  NAD400     -0.5170
     26  O2N       -5.1670    5.0060   24.8940 O.3   400  NAD400     -0.4371
     27  O5D       -6.3530    6.0450   23.0380 O.3   400  NAD400     -0.3112
     28  C5D       -7.3380    6.5360   22.2170 C.3   400  NAD400      0.1813
     29  C4D       -7.1510    7.1180   21.0980 C.3   400  NAD400      0.1799
     30  O4D       -5.8290    7.7530   21.1620 O.3   400  NAD400     -0.3327
     31  C3D       -7.1150    6.0150   20.0350 C.3   400  NAD400      0.2158
     32  O3D       -7.9120    6.4330   18.9190 O.3   400  NAD400     -0.2175
     33  C2D       -5.6030    5.8420   19.7560 C.3   400  NAD400      0.2309
     34  O2D       -5.2910    5.6190   18.6950 O.3   400  NAD400     -0.2158
     35  C1D       -4.9410    7.1450   20.1900 C.3   400  NAD400      0.2263
     36  N1N       -3.6080    6.9930   20.7240 N.pl3 400  NAD400     -0.2787
     37  C2N       -2.5460    7.1670   19.8150 C.3   400  NAD400      0.1244
     38  C3N       -1.2240    7.0270   20.2810 C.2   400  NAD400      0.0544
     39  C7N        0.1300    7.1710   19.4580 C.2   400  NAD400      0.2818
     40  O7N        0.2340    6.5970   18.3590 O.2   400  NAD400     -0.2670
     41  N7N        1.1130    7.9180   19.9940 N.am  400  NAD400     -0.0839
     42  C4N       -0.9510    6.7050   21.6920 C.2   400  NAD400      0.0033
     43  C5N       -2.0740    6.5440   22.5480 C.2   400  NAD400      0.0157
     44  C6N       -3.4090    6.6640   22.1680 C.2   400  NAD400      0.0633
@<TRIPOS>BOND
     1    40    39    2
     2    34    33    1
     3    32    31    1
     4    39    41   am
     5    39    38    1
     6    33    31    1
     7    33    35    1
     8    37    38    1
     9    37    36    1
    10    31    29    1
    11    35    36    1
    12    35    30    1
    13    38    42    2
    14    36    44    1
    15    29    30    1
    16    29    28    1
    17    42    43    1
    18    44    43    2
    19    28    27    1
    20    27    24    1
    21     9     8    1
    22    25    24    2
    23    11    10    1
    24    24    26    1
    25    24    23    1
    26     8    10    1
    27     8     6    1
    28    10    12    1
    29    23     1    1
    30     6     5    1
    31     6     7    1
    32    12     7    1
    33    12    13    1
    34    21    20    1
    35    21    22    2
    36     4     5    1
    37     4     1    1
    38    20    19    1
    39     1     2    2
    40     1     3    1
    41    13    22    1
    42    13    14    1
    43    22    16    1
    44    19    17    2
    45    14    15    1
    46    16    17    1
    47    16    15    2
    48    17    18    1
