@<TRIPOS>MOLECULE
1hzz_NAP_C_1.pdb
 48 52 0 0 0
SMALL
GASTEIGER

@<TRIPOS>ATOM
      1  PA       -24.9070  -36.8670    7.8470 P.3   300  NAP300      0.2189
      2  O1A      -25.9070  -37.9570    7.8650 O.2   300  NAP300     -0.5170
      3  O2A      -24.1030  -36.2830    8.9410 O.3   300  NAP300     -0.4371
      4  O5B      -24.8260  -36.1280    6.4460 O.3   300  NAP300     -0.3112
      5  C5B      -23.5120  -36.0280    5.9050 C.3   300  NAP300      0.1813
      6  C4B      -23.4980  -35.3830    4.5310 C.3   300  NAP300      0.1820
      7  O4B      -22.2240  -34.8490    4.1970 O.3   300  NAP300     -0.3136
      8  C3B      -23.5980  -36.5130    3.4910 C.3   300  NAP300      0.2157
      9  O3B      -24.3840  -35.9500    2.4250 O.3   300  NAP300     -0.2175
     10  C2B      -22.1640  -36.9010    3.0890 C.3   300  NAP300      0.2314
     11  O2B      -22.1790  -37.6740    1.8510 O.3   300  NAP300     -0.2630
     12  C1B      -21.6410  -35.4650    3.0400 C.3   300  NAP300      0.3158
     13  N9A      -20.2210  -35.1850    2.8920 N.pl3 300  NAP300     -0.1439
     14  C8A      -19.1120  -35.7660    3.4500 C.3   300  NAP300      0.3377
     15  N7A      -18.0170  -35.1020    2.9940 N.2   300  NAP300     -0.2095
     16  C5A      -18.4700  -34.1360    2.1880 C.2   300  NAP300      0.2526
     17  C6A      -17.8110  -33.1450    1.4720 C.2   300  NAP300      0.4393
     18  N6A      -16.4960  -33.0370    1.5140 N.pl3 300  NAP300      0.2180
     19  N1A      -18.5220  -32.2390    0.6990 N.2   300  NAP300      0.0021
     20  C2A      -19.8630  -32.3080    0.6090 C.3   300  NAP300      0.5254
     21  N3A      -20.5000  -33.2610    1.3030 N.2   300  NAP300     -0.0055
     22  C4A      -19.8410  -34.1730    2.0990 C.2   300  NAP300      0.3518
     23  O3       -26.1300  -35.8380    8.3020 O.3   300  NAP300     -0.2703
     24  PN       -26.3420  -34.2910    8.6890 P.3   300  NAP300      0.2189
     25  O1N      -27.3720  -33.7170    7.8400 O.2   300  NAP300     -0.5170
     26  O2N      -25.0640  -33.5230    8.6490 O.3   300  NAP300     -0.4371
     27  O5D      -26.8610  -34.4760   10.1980 O.3   300  NAP300     -0.3112
     28  C5D      -25.9620  -34.9690   11.2010 C.3   300  NAP300      0.1813
     29  C4D      -26.2680  -36.4210   11.5310 C.3   300  NAP300      0.1799
     30  O4D      -25.2920  -36.9530   12.4280 O.3   300  NAP300     -0.3327
     31  C3D      -27.6250  -36.7480   12.1960 C.3   300  NAP300      0.2158
     32  O3D      -28.0470  -38.0010   11.5920 O.3   300  NAP300     -0.2175
     33  C2D      -27.3380  -37.0520   13.6870 C.3   300  NAP300      0.2309
     34  O2D      -28.1430  -38.1430   14.1520 O.3   300  NAP300     -0.2158
     35  C1D      -25.8920  -37.4340   13.6610 C.3   300  NAP300      0.2263
     36  N1N      -25.1180  -36.9730   14.7990 N.pl3 300  NAP300     -0.2787
     37  C2N      -25.1320  -35.5940   15.1740 C.3   300  NAP300      0.1244
     38  C3N      -24.3730  -35.2200   16.2960 C.2   300  NAP300      0.0544
     39  C7N      -24.3210  -33.7580   16.7730 C.2   300  NAP300      0.2818
     40  O7N      -23.6540  -33.4600   17.7540 O.2   300  NAP300     -0.2670
     41  N7N      -25.0180  -32.8840   16.0720 N.am  300  NAP300     -0.0839
     42  C4N      -23.6290  -36.2190   17.0010 C.2   300  NAP300      0.0033
     43  C5N      -23.5930  -37.6030   16.6200 C.2   300  NAP300      0.0157
     44  C6N      -24.3590  -37.9620   15.4930 C.2   300  NAP300      0.0633
     45  P2B      -20.9310  -37.9220    0.7870 P.3   300  NAP300      0.5328
     46  O1X      -21.5490  -38.8370   -0.2780 O.2   300  NAP300     -0.2224
     47  O2X      -20.4700  -36.5920    0.3280 O.3   300  NAP300     -0.1145
     48  O3X      -19.9000  -38.7180    1.5770 O.3   300  NAP300     -0.1145
@<TRIPOS>BOND
     1    46    45    2
     2    47    45    1
     3    20    19    1
     4    20    21    1
     5    19    17    2
     6    45    48    1
     7    45    11    1
     8    21    22    2
     9    17    18    1
    10    17    16    1
    11    11    10    1
    12    22    16    1
    13    22    13    1
    14    16    15    2
    15     9     8    1
    16    13    12    1
    17    13    14    1
    18    15    14    1
    19    12    10    1
    20    12     7    1
    21    10     8    1
    22     8     6    1
    23     7     6    1
    24     6     5    1
    25     5     4    1
    26     4     1    1
    27    25    24    2
    28     1     2    2
    29     1    23    1
    30     1     3    1
    31    23    24    1
    32    26    24    1
    33    24    27    1
    34    27    28    1
    35    28    29    1
    36    29    31    1
    37    29    30    1
    38    32    31    1
    39    31    33    1
    40    30    35    1
    41    35    33    1
    42    35    36    1
    43    33    34    1
    44    36    37    1
    45    36    44    1
    46    37    38    1
    47    44    43    2
    48    41    39   am
    49    38    39    1
    50    38    42    2
    51    43    42    1
    52    39    40    2
