@<TRIPOS>MOLECULE
1i00_D16_A_1.pdb
 32 34 0 0 0
SMALL
GASTEIGER

@<TRIPOS>ATOM
      1  N1        38.3940   58.0230   47.2850 N.2   315  D16315     -0.3460
      2  C2        38.5690   56.8360   47.9710 C.1   315  D16315      0.1266
      3  CM2       39.8520   56.0670   47.8810 C.3   315  D16315      0.1438
      4  N3        37.5000   56.3680   48.7640 N.2   315  D16315     -0.2706
      5  C4        36.2640   57.0580   48.8890 C.1   315  D16315      0.2162
      6  O4        35.3670   56.6160   49.5870 O.2   315  D16315     -0.2085
      7  C4A       36.1340   58.2770   48.1650 C.2   315  D16315      0.1216
      8  C5        34.9740   59.0690   48.1950 C.2   315  D16315      0.0121
      9  C6        34.8190   60.2930   47.4820 C.2   315  D16315     -0.0054
     10  C7        35.9210   60.7260   46.6910 C.2   315  D16315     -0.0212
     11  C8        37.1340   59.9730   46.6110 C.3   315  D16315      0.0864
     12  C8A       37.2130   58.7550   47.3580 C.2   315  D16315      0.1373
     13  C9        33.5140   61.1320   47.5520 C.3   315  D16315      0.1178
     14  N10       32.3680   60.7160   48.5220 N.pl3 315  D16315     -0.2969
     15  C11       33.1580   61.3090   52.3440 C.ar  315  D16315      0.0856
     16  S13       33.8710   61.4920   50.7740 S.2   315  D16315     -0.0677
     17  C14       32.4890   60.8590   49.9640 C.ar  315  D16315      0.0787
     18  C15       31.5560   60.5310   50.9080 C.ar  315  D16315      0.0219
     19  C16       31.9190   60.7790   52.2390 C.ar  315  D16315      0.0129
     20  C         34.0060   61.7590   53.5680 C.2   315  D16315      0.2713
     21  O         35.1570   62.2250   53.3430 O.2   315  D16315     -0.2678
     22  N         33.4510   61.6230   54.8440 N.am  315  D16315     -0.1914
     23  CA        34.2460   62.0290   56.0340 C.3   315  D16315      0.1986
     24  CB        34.3380   63.5200   56.2880 C.3   315  D16315      0.0451
     25  CG        33.2210   64.5000   56.0330 C.3   315  D16315      0.1164
     26  CD        33.0590   65.5730   57.0820 C.2   315  D16315      0.3649
     27  OE1       33.5380   66.6960   56.7950 O.co2 315  D16315     -0.2457
     28  OE2       32.4620   65.2440   58.1350 O.co2 315  D16315     -0.2457
     29  CT        33.7060   61.1800   57.1640 C.2   315  D16315      0.3842
     30  O1        34.5400   60.4310   57.7170 O.co2 315  D16315     -0.2437
     31  O2        32.4780   61.3010   57.4240 O.co2 315  D16315     -0.2437
     32  CP1       31.1480   60.2040   47.8920 C.3   315  D16315      0.1129
@<TRIPOS>BOND
     1    11    10    1
     2    11    12    1
     3    10     9    2
     4     1    12    2
     5     1     2    2
     6    12     7    1
     7     9    13    1
     8     9     8    1
     9    13    14    1
    10     3     2    1
    11    32    14    1
    12     2     4    2
    13     7     8    2
    14     7     5    1
    15    14    17    1
    16     4     5    2
    17     5     6    2
    18    17    16   ar
    19    17    18   ar
    20    16    15   ar
    21    18    19   ar
    22    19    15   ar
    23    15    20    1
    24    21    20    2
    25    20    22   am
    26    22    23    1
    27    25    24    1
    28    25    26    1
    29    23    24    1
    30    23    29    1
    31    27    26   ar
    32    26    28   ar
    33    29    31   ar
    34    29    30   ar
