@<TRIPOS>MOLECULE
1i00_UMP_A_1.pdb
 20 21 0 0 0
SMALL
GASTEIGER

@<TRIPOS>ATOM
      1  N1        34.2420   55.8640   45.9550 N.am  314  UMP314     -0.1790
      2  C2        33.1500   55.2510   46.6530 C.1   314  UMP314      0.2844
      3  N3        31.9430   55.9660   46.5460 N.2   314  UMP314     -0.2452
      4  C4        31.7260   57.1890   45.8390 C.1   314  UMP314      0.2182
      5  C5        32.8780   57.7340   45.1700 C.2   314  UMP314      0.1242
      6  C6        34.0440   57.0820   45.2470 C.2   314  UMP314      0.0928
      7  O2        33.2260   54.1980   47.2960 O.2   314  UMP314     -0.1918
      8  O4        30.6070   57.7130   45.8280 O.2   314  UMP314     -0.2085
      9  C1'       35.6220   55.2300   45.9630 C.3   314  UMP314      0.2090
     10  C2'       35.7590   53.9160   45.4220 C.3   314  UMP314      0.0874
     11  C3'       37.1430   53.8880   44.9960 C.3   314  UMP314      0.1857
     12  C4'       37.4450   55.2340   44.5510 C.3   314  UMP314      0.1774
     13  O3'       37.9330   53.5300   46.1610 O.3   314  UMP314     -0.2203
     14  O4'       36.4760   56.0320   45.2210 O.3   314  UMP314     -0.3339
     15  C5'       37.1110   55.5470   43.1320 C.3   314  UMP314      0.1858
     16  O5'       38.1520   55.6160   42.1960 O.3   314  UMP314     -0.2675
     17  P         38.2740   54.4820   41.0550 P.3   314  UMP314      0.5327
     18  OP1       38.0390   55.2550   39.7990 O.2   314  UMP314     -0.2224
     19  OP2       39.6640   53.9110   41.1930 O.3   314  UMP314     -0.1145
     20  OP3       37.1800   53.4630   41.2970 O.3   314  UMP314     -0.1145
@<TRIPOS>BOND
     1    18    17    2
     2    17    19    1
     3    17    20    1
     4    17    16    1
     5    16    15    1
     6    15    12    1
     7    12    11    1
     8    12    14    1
     9    11    10    1
    10    11    13    1
    11     5     6    2
    12     5     4    1
    13    14     9    1
    14     6     1    1
    15    10     9    1
    16     8     4    2
    17     4     3    2
    18     1     9    1
    19     1     2   am
    20     3     2    2
    21     2     7    2
