@<TRIPOS>MOLECULE
1i05_LTL_A_1.pdb
 10 9 0 0 0
SMALL
GASTEIGER

@<TRIPOS>ATOM
      1  C1        20.1960   18.1540   29.5420 C.3   408  LTL408      0.0375
      2  C2        21.2600   17.5080   30.4290 C.3   408  LTL408      0.1453
      3  C6        22.4170   17.3430   29.4480 C.2   408  LTL408      0.0063
      4  C7        23.7500   16.6730   30.0110 C.2   408  LTL408      0.0353
      5  C10       24.8640   16.4570   29.0660 C.2   408  LTL408      0.1729
      6  C13       25.3020   17.5420   27.9330 C.3   408  LTL408      0.0692
      7  C14       26.5600   17.1030   27.0360 C.3   408  LTL408      0.0086
      8  O20       25.3600   15.3990   29.1920 O.2   408  LTL408     -0.2913
      9  O21       20.7850   16.2590   30.7370 O.3   408  LTL408     -0.2212
     10  C22       21.5610   18.4670   31.6430 C.3   408  LTL408      0.0375
@<TRIPOS>BOND
     1     7     6    1
     2     6     5    1
     3     5     8    2
     4     5     4    1
     5     3     4    2
     6     3     2    1
     7     1     2    1
     8     2     9    1
     9     2    10    1
