@<TRIPOS>MOLECULE
1i0i_PRP_A_1.pdb
 22 22 0 0 0
SMALL
GASTEIGER

@<TRIPOS>ATOM
      1  C1        39.9450   60.5310   30.0770 C.3   801  PRP801      0.2742
      2  C2        38.9600   59.4300   29.8070 C.3   801  PRP801      0.2408
      3  C3        39.8730   58.5360   28.9470 C.3   801  PRP801      0.2167
      4  C4        40.6650   59.4870   28.0770 C.3   801  PRP801      0.1808
      5  C5        39.8210   59.8480   26.8390 C.3   801  PRP801      0.1859
      6  O1        40.5300   60.1870   31.3640 O.3   801  PRP801     -0.2857
      7  O2        38.5780   58.8560   31.1010 O.3   801  PRP801     -0.2149
      8  O3        40.9630   58.0040   29.6420 O.3   801  PRP801     -0.2175
      9  O4        40.9120   60.5660   28.9990 O.3   801  PRP801     -0.3255
     10  O5        40.4110   60.8710   26.0280 O.3   801  PRP801     -0.2675
     11  P         41.6910   60.6070   25.0430 P.3   801  PRP801      0.5327
     12  O1P       41.4350   59.3560   24.2750 O.3   801  PRP801     -0.1145
     13  O2P       42.8500   60.5810   25.9770 O.3   801  PRP801     -0.1145
     14  O3P       41.6570   61.7550   24.1280 O.2   801  PRP801     -0.2224
     15  PA        41.1240   61.1900   32.4120 P.3   801  PRP801      0.2249
     16  O1A       42.4100   61.6160   31.8660 O.2   801  PRP801     -0.5169
     17  O2A       40.1220   62.2480   32.4450 O.3   801  PRP801     -0.4370
     18  O3A       41.2770   60.3110   33.6340 O.3   801  PRP801     -0.2260
     19  PB        40.2000   59.7230   34.4940 P.3   801  PRP801      0.5373
     20  O1B       39.0960   60.6860   34.7000 O.3   801  PRP801     -0.1143
     21  O2B       40.7660   59.3360   35.7800 O.3   801  PRP801     -0.1143
     22  O3B       39.6300   58.4820   33.8290 O.2   801  PRP801     -0.2221
@<TRIPOS>BOND
     1    14    11    2
     2    12    11    1
     3    11    13    1
     4    11    10    1
     5    10     5    1
     6     5     4    1
     7     4     3    1
     8     4     9    1
     9     3     8    1
    10     3     2    1
    11     9     1    1
    12     2     1    1
    13     2     7    1
    14     1     6    1
    15     6    15    1
    16    16    15    2
    17    15    17    1
    18    15    18    1
    19    18    19    1
    20    22    19    2
    21    19    20    1
    22    19    21    1
