@<TRIPOS>MOLECULE
1i0i_7HP_A_1.pdb
 10 11 0 0 0
SMALL
GASTEIGER

@<TRIPOS>ATOM
      1  C9        37.7380   62.5280   27.8810 C.2   800  7HP800      0.1431
      2  C4        36.4850   62.9180   28.4040 C.2   800  7HP800      0.1297
      3  N3        36.0580   62.7860   29.6880 N.2   800  7HP800     -0.2396
      4  C2        34.7140   62.9640   29.7800 C.3   800  7HP800      0.2626
      5  N1        33.9410   63.3820   28.7400 N.2   800  7HP800     -0.1739
      6  C6        34.3630   63.6080   27.4660 C.1   800  7HP800      0.1734
      7  O6        33.5500   63.9700   26.6210 O.2   800  7HP800     -0.2205
      8  C5        35.7350   63.3540   27.3250 C.2   800  7HP800      0.2035
      9  N7        36.5760   63.4360   26.2120 N.2   800  7HP800     -0.1344
     10  N8        37.7170   62.8910   26.5830 N.2   800  7HP800     -0.1440
@<TRIPOS>BOND
     1     9    10    1
     2     9     8    2
     3    10     1    2
     4     7     6    2
     5     8     6    1
     6     8     2    1
     7     6     5    2
     8     1     2    1
     9     2     3    2
    10     5     4    1
    11     3     4    1
