@<TRIPOS>MOLECULE
1i0l_7HP_A_1.pdb
 10 11 0 0 0
SMALL
GASTEIGER

@<TRIPOS>ATOM
      1  C9        38.7860   63.4660   28.4430 C.2   800  7HP800      0.1431
      2  C4        37.5150   63.5930   28.9980 C.2   800  7HP800      0.1297
      3  N3        37.1740   63.3800   30.2890 N.2   800  7HP800     -0.2396
      4  C2        35.8280   63.5470   30.4610 C.3   800  7HP800      0.2626
      5  N1        34.9650   63.9040   29.4460 N.2   800  7HP800     -0.1739
      6  C6        35.3290   64.1450   28.1450 C.1   800  7HP800      0.1734
      7  O6        34.5160   64.5360   27.3370 O.2   800  7HP800     -0.2205
      8  C5        36.6800   63.9600   27.9620 C.2   800  7HP800      0.2035
      9  N7        37.4440   64.0620   26.8250 N.2   800  7HP800     -0.1344
     10  N8        38.6510   63.7620   27.1740 N.2   800  7HP800     -0.1440
@<TRIPOS>BOND
     1     9    10    1
     2     9     8    2
     3    10     1    2
     4     7     6    2
     5     8     6    1
     6     8     2    1
     7     6     5    2
     8     1     2    1
     9     2     3    2
    10     5     4    1
    11     3     4    1
