@<TRIPOS>MOLECULE
1i0l_PRP_A_1.pdb
 22 22 0 0 0
SMALL
GASTEIGER

@<TRIPOS>ATOM
      1  C1        41.0850   61.7530   30.6330 C.3   801  PRP801      0.2742
      2  C2        40.2730   60.9400   29.7770 C.3   801  PRP801      0.2408
      3  C3        41.3180   60.3320   28.8490 C.3   801  PRP801      0.2167
      4  C4        42.4490   61.3650   28.8830 C.3   801  PRP801      0.1808
      5  C5        42.5970   61.9470   27.4990 C.3   801  PRP801      0.1859
      6  O1        41.7530   60.9830   31.6860 O.3   801  PRP801     -0.2857
      7  O2        39.5950   60.1520   30.7370 O.3   801  PRP801     -0.2149
      8  O3        41.6690   59.0480   29.2910 O.3   801  PRP801     -0.2175
      9  O4        41.8940   62.4160   29.7360 O.3   801  PRP801     -0.3255
     10  O5        42.0880   63.2840   27.2750 O.3   801  PRP801     -0.2675
     11  P         42.0330   63.8950   25.7300 P.3   801  PRP801      0.5327
     12  O1P       42.4090   62.6970   24.9170 O.2   801  PRP801     -0.2224
     13  O2P       42.9750   65.0200   25.7970 O.3   801  PRP801     -0.1145
     14  O3P       40.6500   64.4180   25.5440 O.3   801  PRP801     -0.1145
     15  PA        41.9770   61.8490   33.0030 P.3   801  PRP801      0.2249
     16  O1A       43.2210   62.5690   32.8250 O.2   801  PRP801     -0.5169
     17  O2A       40.8570   62.7740   33.0640 O.3   801  PRP801     -0.4370
     18  O3A       42.0330   60.7970   34.0650 O.3   801  PRP801     -0.2260
     19  PB        40.8930   60.3150   34.9150 P.3   801  PRP801      0.5373
     20  O1B       39.8410   61.3480   34.9760 O.3   801  PRP801     -0.1143
     21  O2B       41.4140   60.0000   36.2860 O.3   801  PRP801     -0.1143
     22  O3B       40.3770   59.0110   34.4270 O.2   801  PRP801     -0.2221
@<TRIPOS>BOND
     1    12    11    2
     2    14    11    1
     3    11    13    1
     4    11    10    1
     5    10     5    1
     6     5     4    1
     7     3     4    1
     8     3     8    1
     9     3     2    1
    10     4     9    1
    11     9     1    1
    12     2     1    1
    13     2     7    1
    14     1     6    1
    15     6    15    1
    16    16    15    2
    17    15    17    1
    18    15    18    1
    19    18    19    1
    20    22    19    2
    21    19    20    1
    22    19    21    1
