@<TRIPOS>MOLECULE
1i0r_FMN_A_1.pdb
 31 33 0 0 0
SMALL
GASTEIGER

@<TRIPOS>ATOM
      1  N1        23.8920  -10.0800   72.8420 N.2   2000  FMN2000    -0.2890
      2  C2        22.6490   -9.7930   72.4040 C.1   2000  FMN2000     0.3669
      3  O2        21.7580  -10.6330   72.3040 O.2   2000  FMN2000    -0.1744
      4  N3        22.3610   -8.4430   72.0750 N.2   2000  FMN2000    -0.2300
      5  C4        23.2550   -7.3940   72.1320 C.1   2000  FMN2000     0.2513
      6  O4        22.8970   -6.2450   71.8390 O.2   2000  FMN2000    -0.2057
      7  C4A       24.5780   -7.7220   72.5740 C.2   2000  FMN2000     0.2700
      8  N5        25.5280   -6.7760   72.6720 N.2   2000  FMN2000    -0.3878
      9  C5A       26.7430   -7.1420   73.2270 C.2   2000  FMN2000     0.1320
     10  C6        27.7660   -6.1480   73.4090 C.2   2000  FMN2000     0.0250
     11  C7        28.9660   -6.4020   74.0030 C.2   2000  FMN2000    -0.0238
     12  C7M       30.0320   -5.3080   74.1780 C.3   2000  FMN2000     0.0308
     13  C8        29.2350   -7.7410   74.5250 C.2   2000  FMN2000    -0.0280
     14  C8M       30.5170   -8.0580   75.2390 C.3   2000  FMN2000     0.0304
     15  C9        28.2710   -8.7340   74.3240 C.2   2000  FMN2000    -0.0041
     16  C9A       27.0440   -8.4750   73.6830 C.3   2000  FMN2000     0.1497
     17  N10       26.0410   -9.4440   73.4510 N.pl3 2000  FMN2000    -0.2691
     18  C10       24.8110   -9.1250   72.9500 C.2   2000  FMN2000     0.2416
     19  C1'       26.2860  -10.8590   73.8180 C.3   2000  FMN2000     0.1294
     20  C2'       25.8120  -11.3400   75.1910 C.3   2000  FMN2000     0.2044
     21  O2'       26.1780  -10.4400   76.2300 O.3   2000  FMN2000    -0.2185
     22  C3'       26.5020  -12.6900   75.4500 C.3   2000  FMN2000     0.2164
     23  O3'       26.2160  -13.6340   74.3760 O.3   2000  FMN2000    -0.2175
     24  C4'       26.1730  -13.2830   76.7950 C.3   2000  FMN2000     0.2147
     25  O4'       27.1290  -14.3370   77.0640 O.3   2000  FMN2000    -0.2176
     26  C5'       24.7950  -13.8720   76.8710 C.3   2000  FMN2000     0.1892
     27  O5'       24.6060  -14.3760   78.1820 O.3   2000  FMN2000    -0.2674
     28  P         23.3360  -15.3130   78.5490 P.3   2000  FMN2000     0.5327
     29  O1P       23.4230  -16.5330   77.6990 O.2   2000  FMN2000    -0.2224
     30  O2P       22.0780  -14.5000   78.2740 O.3   2000  FMN2000    -0.1145
     31  O3P       23.5490  -15.6090   80.0450 O.3   2000  FMN2000    -0.1145
@<TRIPOS>BOND
     1     6     5    2
     2     4     5    2
     3     4     2    2
     4     5     7    1
     5     3     2    2
     6     2     1    2
     7     7     8    2
     8     7    18    1
     9     8     9    2
    10     1    18    2
    11    18    17    1
    12     9    10    1
    13     9    16    1
    14    10    11    2
    15    17    16    1
    16    17    19    1
    17    16    15    1
    18    19    20    1
    19    11    12    1
    20    11    13    1
    21    15    13    2
    22    23    22    1
    23    13    14    1
    24    20    22    1
    25    20    21    1
    26    22    24    1
    27    24    26    1
    28    24    25    1
    29    26    27    1
    30    29    28    2
    31    27    28    1
    32    30    28    1
    33    28    31    1
