@<TRIPOS>MOLECULE
1i0s_FMN_A_1.pdb
 31 33 0 0 0
SMALL
GASTEIGER

@<TRIPOS>ATOM
      1  N1        23.5430   -9.9660   72.1350 N.2   2000  FMN2000    -0.2890
      2  C2        22.2930   -9.6840   71.6940 C.1   2000  FMN2000     0.3669
      3  O2        21.4260  -10.5280   71.5680 O.2   2000  FMN2000    -0.1744
      4  N3        21.9660   -8.3260   71.3880 N.2   2000  FMN2000    -0.2300
      5  C4        22.8280   -7.2590   71.4910 C.1   2000  FMN2000     0.2513
      6  O4        22.4520   -6.1120   71.2090 O.2   2000  FMN2000    -0.2057
      7  C4A       24.1820   -7.5780   71.9590 C.2   2000  FMN2000     0.2700
      8  N5        25.1090   -6.6200   72.0960 N.2   2000  FMN2000    -0.3878
      9  C5A       26.3460   -6.9690   72.6110 C.2   2000  FMN2000     0.1320
     10  C6        27.3660   -5.9480   72.8150 C.2   2000  FMN2000     0.0250
     11  C7        28.5970   -6.2030   73.3550 C.2   2000  FMN2000    -0.0238
     12  C7M       29.6620   -5.1080   73.5510 C.3   2000  FMN2000     0.0308
     13  C8        28.9120   -7.5750   73.8060 C.2   2000  FMN2000    -0.0280
     14  C8M       30.2360   -7.9080   74.4590 C.3   2000  FMN2000     0.0304
     15  C9        27.9530   -8.5780   73.5890 C.2   2000  FMN2000    -0.0041
     16  C9A       26.6930   -8.3280   73.0020 C.3   2000  FMN2000     0.1497
     17  N10       25.7020   -9.3120   72.7560 N.pl3 2000  FMN2000    -0.2691
     18  C10       24.4480   -9.0020   72.2800 C.2   2000  FMN2000     0.2416
     19  C1'       25.9810  -10.7320   73.0670 C.3   2000  FMN2000     0.1294
     20  C2'       25.4980  -11.2130   74.4320 C.3   2000  FMN2000     0.2044
     21  O2'       25.7950  -10.2990   75.4850 O.3   2000  FMN2000    -0.2185
     22  C3'       26.1940  -12.5310   74.7180 C.3   2000  FMN2000     0.2164
     23  O3'       25.8950  -13.4990   73.6610 O.3   2000  FMN2000    -0.2175
     24  C4'       25.8460  -13.1250   76.0610 C.3   2000  FMN2000     0.2147
     25  O4'       26.8160  -14.1590   76.3470 O.3   2000  FMN2000    -0.2176
     26  C5'       24.4880  -13.7600   76.1330 C.3   2000  FMN2000     0.1892
     27  O5'       24.2940  -14.2480   77.4780 O.3   2000  FMN2000    -0.2674
     28  P         23.0270  -15.1660   77.8570 P.3   2000  FMN2000     0.5327
     29  O1P       23.1230  -16.4260   77.0500 O.2   2000  FMN2000    -0.2224
     30  O2P       21.7980  -14.3610   77.5850 O.3   2000  FMN2000    -0.1145
     31  O3P       23.2660  -15.4160   79.3580 O.3   2000  FMN2000    -0.1145
@<TRIPOS>BOND
     1     6     5    2
     2     4     5    2
     3     4     2    2
     4     5     7    1
     5     3     2    2
     6     2     1    2
     7     7     8    2
     8     7    18    1
     9     8     9    2
    10     1    18    2
    11    18    17    1
    12     9    10    1
    13     9    16    1
    14    17    16    1
    15    17    19    1
    16    10    11    2
    17    16    15    1
    18    19    20    1
    19    11    12    1
    20    11    13    1
    21    15    13    2
    22    23    22    1
    23    13    14    1
    24    20    22    1
    25    20    21    1
    26    22    24    1
    27    24    26    1
    28    24    25    1
    29    26    27    1
    30    29    28    2
    31    27    28    1
    32    30    28    1
    33    28    31    1
