@<TRIPOS>MOLECULE
1i0s_NAP_A_1.pdb
 48 52 0 0 0
SMALL
GASTEIGER

@<TRIPOS>ATOM
      1  PA        32.4930   -8.1350   66.9240 P.3   3000  NAP3000     0.2189
      2  O1A       31.0840   -7.9730   66.4400 O.2   3000  NAP3000    -0.5170
      3  O2A       32.8330   -9.5530   67.2460 O.3   3000  NAP3000    -0.4371
      4  O5B       33.4740   -7.5330   65.7750 O.3   3000  NAP3000    -0.3112
      5  C5B       34.7050   -8.2750   65.4330 C.3   3000  NAP3000     0.1813
      6  C4B       35.7160   -7.1850   64.9410 C.3   3000  NAP3000     0.1820
      7  O4B       35.0940   -6.3820   63.9120 O.3   3000  NAP3000    -0.3136
      8  C3B       36.1460   -6.1770   66.0470 C.3   3000  NAP3000     0.2157
      9  O3B       37.1220   -6.7750   66.8630 O.3   3000  NAP3000    -0.2175
     10  C2B       36.6770   -5.0410   65.0830 C.3   3000  NAP3000     0.2314
     11  O2B       37.8170   -5.3800   64.3320 O.3   3000  NAP3000    -0.2630
     12  C1B       35.5130   -5.0260   64.1100 C.3   3000  NAP3000     0.3158
     13  N9A       34.3500   -4.2590   64.5090 N.pl3 3000  NAP3000    -0.1439
     14  C8A       33.0510   -4.7090   64.6460 C.3   3000  NAP3000     0.3377
     15  N7A       32.2100   -3.7810   65.0160 N.2   3000  NAP3000    -0.2095
     16  C5A       32.9900   -2.6700   65.1280 C.2   3000  NAP3000     0.2526
     17  C6A       32.6520   -1.3330   65.4990 C.2   3000  NAP3000     0.4393
     18  N6A       31.3880   -1.0410   65.7940 N.pl3 3000  NAP3000     0.2180
     19  N1A       33.6740   -0.3980   65.5290 N.2   3000  NAP3000     0.0021
     20  C2A       34.9610   -0.8080   65.1970 C.3   3000  NAP3000     0.5254
     21  N3A       35.3550   -2.0260   64.8400 N.2   3000  NAP3000    -0.0055
     22  C4A       34.3080   -2.9160   64.8290 C.2   3000  NAP3000     0.3518
     23  O3        32.7300   -7.2090   68.1240 O.3   3000  NAP3000    -0.2703
     24  PN        32.2920   -6.9650   69.6270 P.3   3000  NAP3000     0.2189
     25  O1N       31.4600   -5.7410   69.7630 O.2   3000  NAP3000    -0.5170
     26  O2N       33.4240   -7.0520   70.5970 O.3   3000  NAP3000    -0.4371
     27  O5D       31.3220   -8.2640   69.8670 O.3   3000  NAP3000    -0.3112
     28  C5D       31.4630   -9.0340   71.0850 C.3   3000  NAP3000     0.1813
     29  C4D       30.3600  -10.1130   71.0180 C.3   3000  NAP3000     0.1799
     30  O4D       29.0900   -9.4580   70.8440 O.3   3000  NAP3000    -0.3327
     31  C3D       30.5210  -11.0910   69.8390 C.3   3000  NAP3000     0.2158
     32  O3D       30.1640  -12.3960   70.3070 O.3   3000  NAP3000    -0.2175
     33  C2D       29.5190  -10.4710   68.7900 C.3   3000  NAP3000     0.2309
     34  O2D       29.0610  -11.4830   67.8880 O.3   3000  NAP3000    -0.2158
     35  C1D       28.3940   -9.9600   69.7050 C.3   3000  NAP3000     0.2263
     36  N1N       27.5800   -8.7970   69.2140 N.pl3 3000  NAP3000    -0.2787
     37  C2N       26.1960   -9.0530   69.0370 C.3   3000  NAP3000     0.1244
     38  C3N       25.4060   -7.9580   68.6260 C.2   3000  NAP3000     0.0544
     39  C7N       23.8760   -8.2360   68.4570 C.2   3000  NAP3000     0.2818
     40  O7N       23.1370   -7.2750   68.1930 O.2   3000  NAP3000    -0.2670
     41  N7N       23.4670   -9.5180   68.6830 N.am  3000  NAP3000    -0.0839
     42  C4N       25.9030   -6.6090   68.3820 C.2   3000  NAP3000     0.0033
     43  C5N       27.3300   -6.5090   68.6060 C.2   3000  NAP3000     0.0157
     44  C6N       28.1590   -7.5200   69.0010 C.2   3000  NAP3000     0.0633
     45  P2B       39.3380   -4.8700   64.8880 P.3   3000  NAP3000     0.5328
     46  O1X       40.1430   -5.8260   64.0360 O.2   3000  NAP3000    -0.2224
     47  O2X       39.3610   -3.4450   64.4500 O.3   3000  NAP3000    -0.1145
     48  O3X       39.3490   -5.0880   66.3230 O.3   3000  NAP3000    -0.1145
@<TRIPOS>BOND
     1     7    12    1
     2     7     6    1
     3    46    45    2
     4    12    13    1
     5    12    10    1
     6    11    45    1
     7    11    10    1
     8    47    45    1
     9    13    14    1
    10    13    22    1
    11    14    15    1
    12    22    21    2
    13    22    16    1
    14    21    20    1
    15    45    48    1
    16     6     5    1
    17     6     8    1
    18    15    16    2
    19    10     8    1
    20    16    17    1
    21    20    19    1
    22     5     4    1
    23    17    19    2
    24    17    18    1
    25     4     1    1
    26     8     9    1
    27     2     1    2
    28     1     3    1
    29     1    23    1
    30    34    33    1
    31    23    24    1
    32    40    39    2
    33    42    43    1
    34    42    38    2
    35    39    38    1
    36    39    41   am
    37    43    44    2
    38    38    37    1
    39    33    35    1
    40    33    31    1
    41    44    36    1
    42    37    36    1
    43    36    35    1
    44    24    25    2
    45    24    27    1
    46    24    26    1
    47    35    30    1
    48    31    32    1
    49    31    29    1
    50    27    28    1
    51    30    29    1
    52    29    28    1
