@<TRIPOS>MOLECULE
1i0v_2GP_A_1.pdb
 24 26 0 0 0
SMALL
GASTEIGER

@<TRIPOS>ATOM
      1  P         18.8100   20.3920   11.6010 P.3   106  2GP106      0.5327
      2  O1P       19.5330   20.8280   12.8170 O.3   106  2GP106     -0.1145
      3  O2P       18.3320   18.9980   11.6560 O.3   106  2GP106     -0.1145
      4  O3P       17.8650   21.3600   11.0260 O.2   106  2GP106     -0.2224
      5  O5'       24.8150   19.1450    9.0460 O.3   106  2GP106     -0.2176
      6  C5'       24.3290   20.4700    9.3230 C.3   106  2GP106      0.2142
      7  C4'       22.7970   20.5510    9.4140 C.3   106  2GP106      0.1827
      8  O4'       22.2110   19.8860    8.2700 O.3   106  2GP106     -0.3326
      9  C3'       22.2620   19.7970   10.6200 C.3   106  2GP106      0.2132
     10  O3'       22.2760   20.5840   11.8290 O.3   106  2GP106     -0.2176
     11  C2'       20.8390   19.4580   10.1740 C.3   106  2GP106      0.2054
     12  O2'       19.8910   20.4710   10.4210 O.3   106  2GP106     -0.2657
     13  C1'       20.9390   19.3380    8.6320 C.3   106  2GP106      0.2266
     14  N9        20.8190   17.9270    8.0650 N.pl3 106  2GP106     -0.2354
     15  C8        20.0840   17.5680    6.9550 C.3   106  2GP106      0.2246
     16  N7        20.0830   16.2870    6.6910 N.2   106  2GP106     -0.2322
     17  C5        20.8770   15.7370    7.6930 C.2   106  2GP106      0.2182
     18  C6        21.2440   14.3910    7.9660 C.1   106  2GP106      0.2372
     19  O6        20.9330   13.4120    7.3080 O.2   106  2GP106     -0.2069
     20  N1        22.0460   14.2540    9.0870 N.2   106  2GP106     -0.2485
     21  C2        22.4640   15.2880    9.8690 C.1   106  2GP106      0.2531
     22  N2        23.2180   15.0270   10.9330 N.pl3 106  2GP106     -0.0226
     23  N3        22.1280   16.5320    9.6140 N.2   106  2GP106     -0.3074
     24  C4        21.3360   16.7080    8.5270 C.2   106  2GP106      0.2300
@<TRIPOS>BOND
     1    16    15    1
     2    16    17    2
     3    15    14    1
     4    19    18    2
     5    17    18    1
     6    17    24    1
     7    18    20    2
     8    14    24    1
     9    14    13    1
    10     8    13    1
    11     8     7    1
    12    24    23    2
    13    13    11    1
    14     5     6    1
    15    20    21    2
    16     6     7    1
    17     7     9    1
    18    23    21    2
    19    21    22    1
    20    11    12    1
    21    11     9    1
    22    12     1    1
    23     9    10    1
    24     4     1    2
    25     1     3    1
    26     1     2    1
