@<TRIPOS>MOLECULE
1i0x_2GP_A_1.pdb
 24 26 0 0 0
SMALL
GASTEIGER

@<TRIPOS>ATOM
      1  P         17.9950   29.8660   52.0090 P.3   601  2GP601      0.5327
      2  O1P       16.5920   29.4340   52.2310 O.3   601  2GP601     -0.1145
      3  O2P       18.6760   30.3710   53.2330 O.3   601  2GP601     -0.1145
      4  O3P       18.7970   28.8860   51.2460 O.2   601  2GP601     -0.2224
      5  O5'       22.1700   32.7600   50.8150 O.3   601  2GP601     -0.2176
      6  C5'       21.5270   34.0490   50.9210 C.3   601  2GP601      0.2142
      7  C4'       19.9790   34.1480   50.6190 C.3   601  2GP601      0.1827
      8  O4'       19.7230   33.6590   49.2760 O.3   601  2GP601     -0.3326
      9  C3'       19.0710   33.2980   51.5370 C.3   601  2GP601      0.2132
     10  O3'       17.8000   33.9760   51.6610 O.3   601  2GP601     -0.2176
     11  C2'       18.9480   31.9890   50.7180 C.3   601  2GP601      0.2054
     12  O2'       17.8060   31.1630   51.0430 O.3   601  2GP601     -0.2657
     13  C1'       18.8510   32.4990   49.2940 C.3   601  2GP601      0.2266
     14  N9        19.3540   31.6070   48.2050 N.pl3 601  2GP601     -0.2354
     15  C8        18.7620   31.5500   46.9620 C.3   601  2GP601      0.2246
     16  N7        19.4030   30.8240   46.1010 N.2   601  2GP601     -0.2322
     17  C5        20.5080   30.3460   46.8060 C.2   601  2GP601      0.2182
     18  C6        21.5750   29.5080   46.3710 C.1   601  2GP601      0.2372
     19  O6        21.7290   29.0800   45.2320 O.2   601  2GP601     -0.2069
     20  N1        22.5060   29.2270   47.3550 N.2   601  2GP601     -0.2485
     21  C2        22.4290   29.7090   48.6400 C.1   601  2GP601      0.2531
     22  N2        23.3780   29.2920   49.4670 N.pl3 601  2GP601     -0.0226
     23  N3        21.4380   30.5130   49.0610 N.2   601  2GP601     -0.3074
     24  C4        20.5040   30.7990   48.1030 C.2   601  2GP601      0.2300
@<TRIPOS>BOND
     1    19    18    2
     2    16    17    2
     3    16    15    1
     4    18    17    1
     5    18    20    2
     6    17    24    1
     7    15    14    1
     8    20    21    2
     9    24    14    1
    10    24    23    2
    11    14    13    1
    12    21    23    2
    13    21    22    1
    14     8    13    1
    15     8     7    1
    16    13    11    1
    17     7     6    1
    18     7     9    1
    19    11    12    1
    20    11     9    1
    21     5     6    1
    22    12     1    1
    23     4     1    2
    24     9    10    1
    25     1     2    1
    26     1     3    1
