@<TRIPOS>MOLECULE
1i0z_NAI_A_1.pdb
 44 48 0 0 0
SMALL
GASTEIGER

@<TRIPOS>ATOM
      1  PA        15.5940   42.6460   59.9760 P.3   401  NAI401      0.2189
      2  O1A       15.0670   42.5580   61.3450 O.3   401  NAI401     -0.4371
      3  O2A       16.8990   43.4240   59.8480 O.2   401  NAI401     -0.5170
      4  O5B       14.5310   43.2860   58.9760 O.3   401  NAI401     -0.3112
      5  C5B       13.1760   42.9090   58.9890 C.3   401  NAI401      0.1813
      6  C4B       12.3840   44.1170   58.4990 C.3   401  NAI401      0.1821
      7  O4B       11.0680   43.7020   58.1720 O.3   401  NAI401     -0.3135
      8  C3B       12.2730   45.1660   59.6050 C.3   401  NAI401      0.2184
      9  O3B       12.7380   46.4140   59.0850 O.3   401  NAI401     -0.2174
     10  C2B       10.7840   45.1500   59.9570 C.3   401  NAI401      0.2570
     11  O2B       10.2070   46.4000   60.3810 O.3   401  NAI401     -0.2130
     12  C1B       10.1890   44.6830   58.6360 C.3   401  NAI401      0.3186
     13  N9A        8.8620   44.1420   58.8460 N.pl3 401  NAI401     -0.1439
     14  C8A        8.4400   43.3250   59.8710 C.3   401  NAI401      0.3377
     15  N7A        7.1260   43.0740   59.6750 N.2   401  NAI401     -0.2095
     16  C5A        6.7210   43.7310   58.5540 C.2   401  NAI401      0.2526
     17  C6A        5.5020   43.8260   57.9160 C.2   401  NAI401      0.4393
     18  N6A        4.4230   43.3770   58.5360 N.pl3 401  NAI401      0.2180
     19  N1A        5.3780   44.5860   56.7710 N.2   401  NAI401      0.0021
     20  C2A        6.4780   45.2210   56.2600 C.3   401  NAI401      0.5254
     21  N3A        7.6850   45.1200   56.9050 N.2   401  NAI401     -0.0055
     22  C4A        7.8020   44.3950   58.0260 C.2   401  NAI401      0.3518
     23  O3        15.8000   41.1370   59.4260 O.3   401  NAI401     -0.2703
     24  PN        16.7690   40.7560   58.1890 P.3   401  NAI401      0.2189
     25  O1N       18.0750   40.3970   58.7620 O.3   401  NAI401     -0.4371
     26  O2N       16.6040   41.8140   57.1670 O.2   401  NAI401     -0.5170
     27  O5D       16.0830   39.4040   57.6470 O.3   401  NAI401     -0.3112
     28  C5D       14.8850   39.4610   56.9280 C.3   401  NAI401      0.1813
     29  C4D       14.3410   38.0660   56.5780 C.3   401  NAI401      0.1799
     30  O4D       15.2050   37.4610   55.6080 O.3   401  NAI401     -0.3327
     31  C3D       14.2440   37.1020   57.7620 C.3   401  NAI401      0.2158
     32  O3D       13.0530   36.3110   57.5930 O.3   401  NAI401     -0.2175
     33  C2D       15.4920   36.2600   57.5700 C.3   401  NAI401      0.2309
     34  O2D       15.4680   34.9950   58.2020 O.3   401  NAI401     -0.2158
     35  C1D       15.5660   36.1550   56.0460 C.3   401  NAI401      0.2263
     36  N1N       16.8450   35.7400   55.3950 N.pl3 401  NAI401     -0.2787
     37  C2N       16.7500   34.9110   54.3190 C.3   401  NAI401      0.1244
     38  C3N       17.8560   34.4840   53.6370 C.2   401  NAI401      0.0544
     39  C7N       17.6650   33.5460   52.4930 C.2   401  NAI401      0.2818
     40  O7N       18.8090   33.0120   52.0160 O.2   401  NAI401     -0.2670
     41  N7N       16.4820   33.2660   51.9700 N.am  401  NAI401     -0.0839
     42  C4N       19.1430   34.9140   53.9990 C.2   401  NAI401      0.0033
     43  C5N       19.2460   35.7960   55.0960 C.2   401  NAI401      0.0157
     44  C6N       18.0860   36.1880   55.7830 C.2   401  NAI401      0.0633
@<TRIPOS>BOND
     1    41    39   am
     2    40    39    2
     3    39    38    1
     4    38    42    2
     5    38    37    1
     6    42    43    1
     7    37    36    1
     8    43    44    2
     9    36    44    1
    10    36    35    1
    11    30    35    1
    12    30    29    1
    13    35    33    1
    14    20    19    1
    15    20    21    1
    16    29    28    1
    17    29    31    1
    18    19    17    2
    19    21    22    2
    20    28    27    1
    21    26    24    2
    22    33    31    1
    23    33    34    1
    24    32    31    1
    25    27    24    1
    26    17    18    1
    27    17    16    1
    28    22    16    1
    29    22    13    1
    30     7     6    1
    31     7    12    1
    32    24    25    1
    33    24    23    1
    34     6     5    1
    35     6     8    1
    36    16    15    2
    37    12    13    1
    38    12    10    1
    39    13    14    1
    40     4     5    1
    41     4     1    1
    42     9     8    1
    43    23     1    1
    44     8    10    1
    45    15    14    1
    46     3     1    2
    47    10    11    1
    48     1     2    1
