@<TRIPOS>MOLECULE
1i10_NAI_A_1.pdb
 44 48 0 0 0
SMALL
GASTEIGER

@<TRIPOS>ATOM
      1  PA         9.9730   -7.7610  158.0280 P.3   801  NAI801      0.2189
      2  O1A        9.9120   -8.2320  159.4100 O.3   801  NAI801     -0.4371
      3  O2A       11.4230   -7.3080  157.7470 O.2   801  NAI801     -0.5170
      4  O5B        8.8920   -6.6990  157.6160 O.3   801  NAI801     -0.3112
      5  C5B        7.5210   -6.9750  157.7790 C.3   801  NAI801      0.1813
      6  C4B        6.8180   -5.6410  157.6890 C.3   801  NAI801      0.1821
      7  O4B        5.4200   -5.8370  157.7220 O.3   801  NAI801     -0.3135
      8  C3B        7.1620   -4.7400  158.8890 C.3   801  NAI801      0.2184
      9  O3B        7.6280   -3.4730  158.4080 O.3   801  NAI801     -0.2174
     10  C2B        5.8330   -4.6550  159.6590 C.3   801  NAI801      0.2570
     11  O2B        5.5970   -3.4140  160.2820 O.3   801  NAI801     -0.2130
     12  C1B        4.8470   -4.8280  158.5140 C.3   801  NAI801      0.3186
     13  N9A        3.4880   -5.1370  158.9550 N.pl3 801  NAI801     -0.1439
     14  C8A        3.0950   -6.0690  159.9230 C.3   801  NAI801      0.3377
     15  N7A        1.7410   -6.0150  160.0050 N.2   801  NAI801     -0.2095
     16  C5A        1.2640   -5.0640  159.1250 C.2   801  NAI801      0.2526
     17  C6A       -0.0190   -4.5740  158.8230 C.2   801  NAI801      0.4393
     18  N6A       -1.0340   -4.7540  159.6780 N.pl3 801  NAI801      0.2180
     19  N1A       -0.1680   -3.5630  157.8790 N.2   801  NAI801      0.0021
     20  C2A        0.9420   -3.0580  157.2350 C.3   801  NAI801      0.5254
     21  N3A        2.2030   -3.5250  157.5820 N.2   801  NAI801     -0.0055
     22  C4A        2.3630   -4.4930  158.4940 C.2   801  NAI801      0.3518
     23  O3         9.5800   -9.0930  157.2290 O.3   801  NAI801     -0.2703
     24  PN        10.1950   -9.4340  155.7780 P.3   801  NAI801      0.2189
     25  O1N        9.9900   -8.1970  154.9960 O.2   801  NAI801     -0.5170
     26  O2N       11.5080  -10.0920  155.8900 O.3   801  NAI801     -0.4371
     27  O5D        9.1730  -10.5340  155.2660 O.3   801  NAI801     -0.3112
     28  C5D        7.8360  -10.1820  155.0510 C.3   801  NAI801      0.1813
     29  C4D        7.0320  -11.3740  154.5450 C.3   801  NAI801      0.1799
     30  O4D        7.4780  -11.8690  153.2560 O.3   801  NAI801     -0.3327
     31  C3D        7.1080  -12.5420  155.4880 C.3   801  NAI801      0.2158
     32  O3D        5.7740  -13.0240  155.5240 O.3   801  NAI801     -0.2175
     33  C2D        7.9920  -13.5460  154.7410 C.3   801  NAI801      0.2309
     34  O2D        7.7400  -14.8850  155.1870 O.3   801  NAI801     -0.2158
     35  C1D        7.6550  -13.2680  153.2830 C.3   801  NAI801      0.2263
     36  N1N        8.6460  -13.6670  152.2520 N.pl3 801  NAI801     -0.2787
     37  C2N        8.1250  -14.1610  151.0840 C.3   801  NAI801      0.1244
     38  C3N        8.8990  -14.6000  150.0320 C.2   801  NAI801      0.0544
     39  C7N        8.2330  -15.2630  148.8740 C.2   801  NAI801      0.2818
     40  O7N        9.0560  -15.9220  147.9890 O.2   801  NAI801     -0.2670
     41  N7N        6.9040  -15.2610  148.6780 N.am  801  NAI801     -0.0839
     42  C4N       10.2790  -14.5360  150.1430 C.2   801  NAI801      0.0033
     43  C5N       10.8270  -14.0150  151.3310 C.2   801  NAI801      0.0157
     44  C6N       10.0010  -13.6010  152.3900 C.2   801  NAI801      0.0633
@<TRIPOS>BOND
     1    40    39    2
     2    41    39   am
     3    39    38    1
     4    38    42    2
     5    38    37    1
     6    42    43    1
     7    37    36    1
     8    43    44    2
     9    36    44    1
    10    36    35    1
    11    30    35    1
    12    30    29    1
    13    35    33    1
    14    29    28    1
    15    29    31    1
    16    33    34    1
    17    33    31    1
    18    25    24    2
    19    28    27    1
    20    27    24    1
    21    31    32    1
    22    24    26    1
    23    24    23    1
    24    23     1    1
    25    20    21    1
    26    20    19    1
    27    21    22    2
    28     4     5    1
    29     4     1    1
    30     6     7    1
    31     6     5    1
    32     6     8    1
    33     7    12    1
    34     3     1    2
    35    19    17    2
    36     1     2    1
    37     9     8    1
    38    22    13    1
    39    22    16    1
    40    12    13    1
    41    12    10    1
    42    17    16    1
    43    17    18    1
    44     8    10    1
    45    13    14    1
    46    16    15    2
    47    10    11    1
    48    14    15    1
