@<TRIPOS>MOLECULE
1i13_PRP_A_1.pdb
 22 22 0 0 0
SMALL
GASTEIGER

@<TRIPOS>ATOM
      1  C1        40.2410   61.9090   30.7470 C.3   801  PRP801      0.2742
      2  C2        39.5020   60.6800   30.2960 C.3   801  PRP801      0.2408
      3  C3        40.6830   59.9750   29.5610 C.3   801  PRP801      0.2167
      4  C4        41.3450   61.1930   28.9290 C.3   801  PRP801      0.1808
      5  C5        40.8190   61.2800   27.4970 C.3   801  PRP801      0.1859
      6  O1        41.0790   61.4780   31.8660 O.3   801  PRP801     -0.2857
      7  O2        38.9610   60.1160   31.5500 O.3   801  PRP801     -0.2149
      8  O3        41.7200   59.4750   30.4450 O.3   801  PRP801     -0.2175
      9  O4        41.0460   62.4190   29.7160 O.3   801  PRP801     -0.3255
     10  O5        41.1500   62.5730   26.9230 O.3   801  PRP801     -0.2675
     11  P         41.7230   62.8450   25.4040 P.3   801  PRP801      0.5327
     12  O1P       41.5450   61.4880   24.7220 O.2   801  PRP801     -0.2224
     13  O2P       43.1370   63.1940   25.6250 O.3   801  PRP801     -0.1145
     14  O3P       40.9060   64.0710   25.0180 O.3   801  PRP801     -0.1145
     15  PA        41.5430   62.6630   32.9010 P.3   801  PRP801      0.2249
     16  O1A       42.8120   63.2490   32.4380 O.2   801  PRP801     -0.5169
     17  O2A       40.4150   63.5930   32.7970 O.3   801  PRP801     -0.4370
     18  O3A       41.6650   61.8280   34.1340 O.3   801  PRP801     -0.2260
     19  PB        40.5170   61.2570   34.9050 P.3   801  PRP801      0.5373
     20  O1B       39.4240   62.2880   34.9400 O.3   801  PRP801     -0.1143
     21  O2B       41.0300   60.9190   36.2160 O.3   801  PRP801     -0.1143
     22  O3B       40.0340   59.9960   34.3400 O.2   801  PRP801     -0.2221
@<TRIPOS>BOND
     1    12    11    2
     2    14    11    1
     3    11    13    1
     4    11    10    1
     5    10     5    1
     6     5     4    1
     7     4     3    1
     8     4     9    1
     9     3     2    1
    10     3     8    1
    11     9     1    1
    12     2     1    1
    13     2     7    1
    14     1     6    1
    15     6    15    1
    16    16    15    2
    17    17    15    1
    18    15    18    1
    19    18    19    1
    20    22    19    2
    21    19    20    1
    22    19    21    1
