@<TRIPOS>MOLECULE
1i13_7HP_A_1.pdb
 10 11 0 0 0
SMALL
GASTEIGER

@<TRIPOS>ATOM
      1  C9        38.3450   63.9670   28.1430 C.2   800  7HP800      0.1431
      2  C4        37.0760   64.1480   28.6880 C.2   800  7HP800      0.1297
      3  N3        36.7260   63.9940   29.9850 N.2   800  7HP800     -0.2396
      4  C2        35.3840   64.2020   30.1450 C.3   800  7HP800      0.2626
      5  N1        34.5330   64.5400   29.1130 N.2   800  7HP800     -0.1739
      6  C6        34.9070   64.7210   27.8050 C.1   800  7HP800      0.1734
      7  O6        34.1070   65.1010   26.9790 O.2   800  7HP800     -0.2205
      8  C5        36.2530   64.4950   27.6350 C.2   800  7HP800      0.2035
      9  N7        37.0230   64.5340   26.4980 N.2   800  7HP800     -0.1344
     10  N8        38.2210   64.2170   26.8630 N.2   800  7HP800     -0.1440
@<TRIPOS>BOND
     1     9    10    1
     2     9     8    2
     3    10     1    2
     4     7     6    2
     5     8     6    1
     6     8     2    1
     7     6     5    2
     8     1     2    1
     9     2     3    2
    10     5     4    1
    11     3     4    1
