@<TRIPOS>MOLECULE
1i14_7HP_A_1.pdb
 10 11 0 0 0
SMALL
GASTEIGER

@<TRIPOS>ATOM
      1  C9        38.1110   62.6430   27.7610 C.2   800  7HP800      0.1431
      2  C4        36.8640   62.8710   28.3370 C.2   800  7HP800      0.1297
      3  N3        36.5190   62.6500   29.6260 N.2   800  7HP800     -0.2396
      4  C2        35.1960   62.9370   29.8220 C.3   800  7HP800      0.2626
      5  N1        34.3590   63.4040   28.8300 N.2   800  7HP800     -0.1739
      6  C6        34.7300   63.6500   27.5320 C.1   800  7HP800      0.1734
      7  O6        33.9480   64.1400   26.7470 O.2   800  7HP800     -0.2205
      8  C5        36.0550   63.3460   27.3240 C.2   800  7HP800      0.2035
      9  N7        36.8130   63.4110   26.1800 N.2   800  7HP800     -0.1344
     10  N8        37.9900   62.9890   26.5030 N.2   800  7HP800     -0.1440
@<TRIPOS>BOND
     1     9    10    1
     2     9     8    2
     3    10     1    2
     4     7     6    2
     5     8     6    1
     6     8     2    1
     7     6     5    2
     8     1     2    1
     9     2     3    2
    10     5     4    1
    11     3     4    1
