@<TRIPOS>MOLECULE
1i14_PRP_A_1.pdb
 22 22 0 0 0
SMALL
GASTEIGER

@<TRIPOS>ATOM
      1  C1        40.1120   60.3580   30.4450 C.3   801  PRP801      0.2742
      2  C2        39.2680   59.2230   30.0870 C.3   801  PRP801      0.2408
      3  C3        40.2520   58.4360   29.1750 C.3   801  PRP801      0.2167
      4  C4        40.9680   59.5540   28.3980 C.3   801  PRP801      0.1808
      5  C5        40.2460   59.6790   26.9860 C.3   801  PRP801      0.1859
      6  O1        40.9240   59.8790   31.5300 O.3   801  PRP801     -0.2857
      7  O2        39.0320   58.6860   31.3950 O.3   801  PRP801     -0.2149
      8  O3        41.2810   57.7840   29.9160 O.3   801  PRP801     -0.2175
      9  O4        40.8990   60.7190   29.3210 O.3   801  PRP801     -0.3255
     10  O5        40.6740   60.7120   26.0470 O.3   801  PRP801     -0.2675
     11  P         42.0340   60.6330   25.0680 P.3   801  PRP801      0.5327
     12  O1P       41.8790   59.4480   24.1690 O.2   801  PRP801     -0.2224
     13  O2P       43.1590   60.4720   26.0110 O.3   801  PRP801     -0.1145
     14  O3P       41.9620   61.9350   24.3670 O.3   801  PRP801     -0.1145
     15  PA        41.4850   61.0110   32.5450 P.3   801  PRP801      0.2249
     16  O1A       42.7510   61.5210   31.9720 O.2   801  PRP801     -0.5169
     17  O2A       40.4050   62.0060   32.6140 O.3   801  PRP801     -0.4370
     18  O3A       41.6330   60.2680   33.8260 O.3   801  PRP801     -0.2260
     19  PB        40.4530   59.7590   34.5810 P.3   801  PRP801      0.5373
     20  O1B       39.4070   60.8690   34.6930 O.3   801  PRP801     -0.1143
     21  O2B       40.9150   59.3600   35.9110 O.3   801  PRP801     -0.1143
     22  O3B       39.9230   58.5030   33.9380 O.2   801  PRP801     -0.2221
@<TRIPOS>BOND
     1    12    11    2
     2    14    11    1
     3    11    13    1
     4    11    10    1
     5    10     5    1
     6     5     4    1
     7     4     3    1
     8     4     9    1
     9     3     8    1
    10     3     2    1
    11     9     1    1
    12     2     1    1
    13     2     7    1
    14     1     6    1
    15     6    15    1
    16    16    15    2
    17    15    17    1
    18    15    18    1
    19    18    19    1
    20    22    19    2
    21    19    20    1
    22    19    21    1
