@<TRIPOS>MOLECULE
1i18_RBF_A_1.pdb
 47 49 0 0 0
SMALL
GASTEIGER

@<TRIPOS>ATOM
      1  N1         1.7820    8.0120  -15.1280 N.2    98  RBF98      -0.3025
      2  C2         2.5780    7.6950  -14.0910 C.1    98  RBF98       0.2727
      3  O2         2.3700    8.2620  -12.8920 O.2    98  RBF98      -0.1927
      4  N3         3.6150    6.7890  -14.2560 N.am   98  RBF98      -0.1956
      5  C4         3.8320    6.2110  -15.4990 C.2    98  RBF98       0.2930
      6  O4         4.8320    5.3360  -15.6650 O.2    98  RBF98      -0.2661
      7  C4A        3.0010    6.5500  -16.5730 C.2    98  RBF98       0.2302
      8  N5         3.1760    6.0150  -17.7950 N.2    98  RBF98      -0.3926
      9  C5A        2.3830    6.3300  -18.8380 C.2    98  RBF98       0.1360
     10  C6         2.6110    5.7460  -20.0900 C.2    98  RBF98      -0.0226
     11  C7         1.7890    6.0730  -21.1750 C.2    98  RBF98      -0.0587
     12  C7M        2.0370    5.4460  -22.5260 C.3    98  RBF98      -0.0425
     13  C8         0.7370    6.9830  -21.0090 C.3    98  RBF98       0.0216
     14  C8M       -0.1420    7.3410  -22.1830 C.3    98  RBF98      -0.0512
     15  C9         0.5060    7.5700  -19.7560 C.2    98  RBF98      -0.0484
     16  C9A        1.3280    7.2460  -18.6670 C.2    98  RBF98       0.0706
     17  N10        1.1230    7.8160  -17.4110 N.pl3  98  RBF98      -0.2669
     18  C10        1.9620    7.4710  -16.3500 C.2    98  RBF98       0.2351
     19  C1'        0.0210    8.7720  -17.1990 C.3    98  RBF98       0.0482
     20  C2'        0.2350   10.0170  -18.0600 C.3    98  RBF98       0.0996
     21  O2'        1.5960   10.0720  -18.4960 O.3    98  RBF98      -0.3876
     22  C3'       -0.0920   11.2630  -17.2400 C.3    98  RBF98       0.1104
     23  O3'        0.6720   11.2520  -16.0310 O.3    98  RBF98      -0.3865
     24  C4'       -1.5820   11.2700  -16.9030 C.3    98  RBF98       0.1065
     25  O4'       -2.3400   11.0050  -18.0870 O.3    98  RBF98      -0.3869
     26  C5'       -1.9720   12.6340  -16.3410 C.3    98  RBF98       0.0726
     27  O5'       -1.3530   12.8180  -15.0650 O.3    98  RBF98      -0.3924
     28  HN3        4.2080    6.5450  -13.4760 H      98  RBF98       0.1693
     29  HC6        3.4210    5.0420  -20.2190 H      98  RBF98       0.0650
     30 HC71        1.1120    5.4380  -23.0980 H      98  RBF98       0.0275
     31 HC72        2.3920    4.4260  -22.3930 H      98  RBF98       0.0275
     32 HC73        2.7890    6.0240  -23.0610 H      98  RBF98       0.0275
     33 HC81       -0.9680    6.6360  -22.2460 H      98  RBF98       0.0241
     34 HC82        0.4430    7.2950  -23.1000 H      98  RBF98       0.0241
     35 HC83       -0.5310    8.3470  -22.0520 H      98  RBF98       0.0241
     36  HC9       -0.3050    8.2700  -19.6310 H      98  RBF98       0.0600
     37 HC11       -0.0100    9.0600  -16.1500 H      98  RBF98       0.0495
     38 HC12       -0.9210    8.3010  -17.4720 H      98  RBF98       0.0495
     39 HC2'       -0.4270    9.9790  -18.9270 H      98  RBF98       0.0636
     40 HO2'        2.1870    9.8200  -17.7700 H      98  RBF98       0.2100
     41 HC3'        0.1540   12.1520  -17.8170 H      98  RBF98       0.0646
     42 HO3'        1.4630   10.7020  -16.1440 H      98  RBF98       0.2100
     43 HC4'       -1.7900   10.5030  -16.1600 H      98  RBF98       0.0643
     44 HO4'       -2.2110   10.0850  -18.3630 H      98  RBF98       0.2100
     45 HC51       -1.6390   13.4110  -17.0200 H      98  RBF98       0.0584
     46 HC52       -3.0530   12.6850  -16.2350 H      98  RBF98       0.0584
     47 HO5'       -0.8680   13.6590  -15.0510 H      98  RBF98       0.2095
@<TRIPOS>BOND
     1    34    14    1
     2    30    12    1
     3    32    12    1
     4    12    31    1
     5    12    11    1
     6    33    14    1
     7    14    35    1
     8    14    13    1
     9    11    13    1
    10    11    10    2
    11    13    15    1
    12    29    10    1
    13    10     9    1
    14    15    36    1
    15    15    16    2
    16    39    20    1
    17     9    16    1
    18     9     8    2
    19    16    17    1
    20    21    20    1
    21    21    40    1
    22    44    25    1
    23    25    24    1
    24    20    22    1
    25    20    19    1
    26    41    22    1
    27     8     7    2
    28    38    19    1
    29    17    19    1
    30    17    18    1
    31    22    24    1
    32    22    23    1
    33    19    37    1
    34    45    26    1
    35    24    26    1
    36    24    43    1
    37     7    18    1
    38     7     5    1
    39    18     1    2
    40    26    46    1
    41    26    27    1
    42    42    23    1
    43     6     5    2
    44     5     4   am
    45     1     2    2
    46    27    47    1
    47     4     2   am
    48     4    28    1
    49     2     3    2
