@<TRIPOS>MOLECULE
1i1a_BMA_C_1.pdb
 11 11 0 0 0
SMALL
GASTEIGER

@<TRIPOS>ATOM
      1  C1        62.7210   41.5150   31.0420 C.3   504  BMA504      0.1777
      2  C2        62.1770   42.8230   31.6480 C.3   504  BMA504      0.2141
      3  C3        60.7600   43.1200   31.1400 C.3   504  BMA504      0.2173
      4  C4        60.7080   43.0470   29.6160 C.3   504  BMA504      0.2142
      5  C5        61.2680   41.7110   29.1420 C.3   504  BMA504      0.1810
      6  C6        61.3020   41.6170   27.6290 C.3   504  BMA504      0.2141
      7  O2        63.0300   43.9030   31.3130 O.3   504  BMA504     -0.2176
      8  O3        60.3470   44.4340   31.5650 O.3   504  BMA504     -0.2175
      9  O4        59.3680   43.1810   29.1740 O.3   504  BMA504     -0.2176
     10  O5        62.6240   41.5520   29.6110 O.3   504  BMA504     -0.3481
     11  O6        61.5560   40.2560   27.2330 O.3   504  BMA504     -0.2176
@<TRIPOS>BOND
     1    11     6    1
     2     6     5    1
     3     5    10    1
     4     5     4    1
     5     9     4    1
     6    10     1    1
     7     4     3    1
     8     1     2    1
     9     3     8    1
    10     3     2    1
    11     7     2    1
