@<TRIPOS>MOLECULE
1i1a_FUC_A_1.pdb
 10 10 0 0 0
SMALL
GASTEIGER

@<TRIPOS>ATOM
      1  C1        29.1300   37.7010    6.5390 C.3   702  FUC702      0.1776
      2  C2        29.5230   36.3970    7.2660 C.3   702  FUC702      0.2141
      3  C3        30.7820   36.5650    8.1360 C.3   702  FUC702      0.2172
      4  C4        30.6750   37.8000    9.0240 C.3   702  FUC702      0.2116
      5  C5        30.3990   39.0110    8.1400 C.3   702  FUC702      0.1483
      6  C6        30.2960   40.2990    8.9310 C.3   702  FUC702      0.0349
      7  O2        29.7560   35.3780    6.3020 O.3   702  FUC702     -0.2176
      8  O3        30.9660   35.4200    8.9540 O.3   702  FUC702     -0.2175
      9  O4        29.6280   37.6270    9.9760 O.3   702  FUC702     -0.2177
     10  O5        29.1540   38.8240    7.4290 O.3   702  FUC702     -0.3508
@<TRIPOS>BOND
     1     7     2    1
     2     1     2    1
     3     1    10    1
     4     2     3    1
     5    10     5    1
     6     3     8    1
     7     3     4    1
     8     5     6    1
     9     5     4    1
    10     4     9    1
