@<TRIPOS>MOLECULE
1i1c_BMA_A_1.pdb
 11 11 0 0 0
SMALL
GASTEIGER

@<TRIPOS>ATOM
      1  C1        19.1490    4.3450   30.0820 C.3   104  BMA104      0.1777
      2  C2        20.2310    3.5310   29.3730 C.3   104  BMA104      0.2141
      3  C3        20.6800    4.1730   28.0610 C.3   104  BMA104      0.2173
      4  C4        19.4840    4.6020   27.2090 C.3   104  BMA104      0.2142
      5  C5        18.5160    5.4340   28.0390 C.3   104  BMA104      0.1810
      6  C6        17.2790    5.8120   27.2410 C.3   104  BMA104      0.2141
      7  O2        19.7520    2.2230   29.1180 O.3   104  BMA104     -0.2176
      8  O3        21.4380    3.2050   27.3240 O.3   104  BMA104     -0.2175
      9  O4        19.9280    5.3590   26.0910 O.3   104  BMA104     -0.2176
     10  O5        18.0790    4.6690   29.1820 O.3   104  BMA104     -0.3481
     11  O6        16.4160    6.6450   28.0390 O.3   104  BMA104     -0.2176
@<TRIPOS>BOND
     1     9     4    1
     2     4     5    1
     3     4     3    1
     4     6     5    1
     5     6    11    1
     6     8     3    1
     7     5    10    1
     8     3     2    1
     9     7     2    1
    10    10     1    1
    11     2     1    1
