@<TRIPOS>MOLECULE
1i1d_16G_A_1.pdb
 19 19 0 0 0
SMALL
GASTEIGER

@<TRIPOS>ATOM
      1  C1        66.0080   11.3570   14.8190 C.3   905  16G905      0.2917
      2  C2        65.9510    9.9080   14.4210 C.3   905  16G905      0.1871
      3  C3        64.5630    9.6060   13.8510 C.3   905  16G905      0.2095
      4  C4        63.5340    9.8460   14.9760 C.3   905  16G905      0.2135
      5  C5        63.5880   11.2140   15.4380 C.3   905  16G905      0.1807
      6  C6        62.8220   11.5870   16.6370 C.3   905  16G905      0.1859
      7  C7        67.7060    8.4340   13.7240 C.2   905  16G905      0.2421
      8  C8        68.7280    8.0640   12.7510 C.3   905  16G905      0.0964
      9  N2        66.9870    9.5890   13.4580 N.am  905  16G905     -0.1991
     10  O1        65.8200   12.1240   13.6330 O.3   905  16G905     -0.1879
     11  O3        64.4750    8.2570   13.4100 O.3   905  16G905     -0.2183
     12  O4        62.2060    9.5220   14.5920 O.3   905  16G905     -0.2176
     13  O5        64.9360   11.6190   15.7540 O.3   905  16G905     -0.3243
     14  O6        62.5970   13.0400   16.6200 O.3   905  16G905     -0.2675
     15  O7        67.4870    7.7650   14.7040 O.2   905  16G905     -0.2733
     16  P         61.0630   13.6610   16.7090 P.3   905  16G905      0.5327
     17  O1P       60.2510   13.0530   15.6460 O.2   905  16G905     -0.2224
     18  O2P       61.3030   15.1000   16.6010 O.3   905  16G905     -0.1145
     19  O3P       60.4120   13.2240   18.0060 O.3   905  16G905     -0.1145
@<TRIPOS>BOND
     1     8     7    1
     2    11     3    1
     3     9     7   am
     4     9     2    1
     5    10     1    1
     6     7    15    2
     7     3     2    1
     8     3     4    1
     9     2     1    1
    10    12     4    1
    11     1    13    1
    12     4     5    1
    13     5    13    1
    14     5     6    1
    15    17    16    2
    16    18    16    1
    17    14     6    1
    18    14    16    1
    19    16    19    1
