@<TRIPOS>MOLECULE
1i1d_COA_A_1.pdb
 48 50 0 0 0
SMALL
GASTEIGER

@<TRIPOS>ATOM
      1  N1A       81.1440   12.7000   18.2790 N.2   900  COA900      0.0021
      2  C2A       82.0780   12.1390   17.5090 C.3   900  COA900      0.5254
      3  N3A       82.3030   10.7870   17.3250 N.2   900  COA900     -0.0055
      4  C4A       81.3960   10.0580   18.0690 C.2   900  COA900      0.3518
      5  C5A       80.3920   10.5080   18.8620 C.2   900  COA900      0.2526
      6  C6A       80.2810   11.9600   18.9680 C.2   900  COA900      0.4393
      7  N6A       79.3810   12.5780   19.7280 N.pl3 900  COA900      0.2180
      8  N7A       79.6970    9.4580   19.4190 N.2   900  COA900     -0.2095
      9  C8A       80.3080    8.3860   18.9640 C.3   900  COA900      0.3377
     10  N9A       81.3550    8.6990   18.1420 N.pl3 900  COA900     -0.1439
     11  C1B       82.2690    7.8230   17.4750 C.3   900  COA900      0.3185
     12  C2B       83.0650    6.8990   18.4740 C.3   900  COA900      0.2543
     13  O2B       84.2730    7.5380   18.9840 O.3   900  COA900     -0.2131
     14  C3B       83.3990    5.6580   17.6300 C.3   900  COA900      0.1928
     15  O3B       84.5400    5.9470   16.8310 O.3   900  COA900     -0.2673
     16  P3B       85.9550    5.1960   16.9690 P.3   900  COA900      0.5327
     17  O7A       86.3880    5.4760   18.3760 O.3   900  COA900     -0.1145
     18  O8A       86.7880    5.8510   15.9460 O.2   900  COA900     -0.2224
     19  O9A       85.6230    3.8160   16.7560 O.3   900  COA900     -0.1145
     20  C4B       82.1680    5.5220   16.7210 C.3   900  COA900      0.1795
     21  O4B       81.6220    6.8510   16.6310 O.3   900  COA900     -0.3136
     22  C5B       81.1660    4.5230   17.2570 C.3   900  COA900      0.1812
     23  O5B       80.8110    4.8570   18.5810 O.3   900  COA900     -0.3112
     24  P1A       79.8390    4.0080   19.4560 P.3   900  COA900      0.2189
     25  O1A       80.6250    3.6060   20.6830 O.3   900  COA900     -0.4371
     26  O2A       79.2520    2.8760   18.6240 O.2   900  COA900     -0.5170
     27  O3A       78.7890    5.0660   19.9270 O.3   900  COA900     -0.2703
     28  P2A       77.5340    4.9520   20.8640 P.3   900  COA900      0.2188
     29  O4A       77.9080    5.8850   21.9730 O.3   900  COA900     -0.4371
     30  O5A       77.3150    3.5200   21.2400 O.2   900  COA900     -0.5170
     31  O6A       76.3330    5.5050   20.1100 O.3   900  COA900     -0.3138
     32  CBP       74.9370    7.3610   19.6890 C.3   900  COA900      0.0645
     33  CCP       76.3420    6.8640   19.6280 C.3   900  COA900      0.1519
     34  CDP       74.0170    6.4120   18.8440 C.3   900  COA900      0.0056
     35  CEP       74.4740    7.3860   21.1760 C.3   900  COA900      0.0056
     36  CAP       75.0290    8.8480   19.1410 C.3   900  COA900      0.2312
     37  OAP       75.9180    8.9330   18.0070 O.3   900  COA900     -0.2131
     38  C9P       73.6530    9.3550   18.7740 C.2   900  COA900      0.2719
     39  O9P       73.3220    9.3440   17.5740 O.2   900  COA900     -0.2706
     40  N8P       72.8270    9.7770   19.7760 N.am  900  COA900     -0.2028
     41  C7P       71.4560   10.2440   19.4960 C.3   900  COA900      0.1248
     42  C6P       70.4300    9.0980   19.7430 C.3   900  COA900      0.1102
     43  C5P       70.7000    8.5080   21.1040 C.2   900  COA900      0.2432
     44  O5P       71.1230    7.3280   21.2360 O.2   900  COA900     -0.2733
     45  N4P       70.5400    9.3840   22.0960 N.am  900  COA900     -0.2044
     46  C3P       70.6080    9.6880   23.5210 C.3   900  COA900      0.1276
     47  C2P       71.8280   10.6170   23.5690 C.3   900  COA900      0.0920
     48  S1P       71.9320   11.0630   25.3550 S.3   900  COA900     -0.0802
@<TRIPOS>BOND
     1    18    16    2
     2    21    20    1
     3    21    11    1
     4    20    22    1
     5    20    14    1
     6    19    16    1
     7    15    16    1
     8    15    14    1
     9    16    17    1
    10    22    23    1
    11     3     2    1
    12     3     4    2
    13    11    10    1
    14    11    12    1
    15     2     1    1
    16    39    38    2
    17    14    12    1
    18    37    36    1
    19     4    10    1
    20     4     5    1
    21    10     9    1
    22     1     6    2
    23    12    13    1
    24    23    24    1
    25    26    24    2
    26    38    36    1
    27    38    40   am
    28    34    32    1
    29     5     6    1
    30     5     8    2
    31     9     8    1
    32     6     7    1
    33    36    32    1
    34    24    27    1
    35    24    25    1
    36    41    42    1
    37    41    40    1
    38    33    32    1
    39    33    31    1
    40    32    35    1
    41    42    43    1
    42    27    28    1
    43    31    28    1
    44    28    30    2
    45    28    29    1
    46    43    44    2
    47    43    45   am
    48    45    46    1
    49    46    47    1
    50    47    48    1
