@<TRIPOS>MOLECULE
1i1e_DM2_A_1.pdb
 39 43 0 0 0
SMALL
GASTEIGER

@<TRIPOS>ATOM
      1  C1        32.6390  -37.7100  -36.4450 C.ar  3001  DM23001     0.0035
      2  C2        33.9650  -38.2260  -36.2490 C.ar  3001  DM23001     0.0032
      3  C3        35.0940  -37.3320  -36.3490 C.ar  3001  DM23001     0.0370
      4  C4        34.9040  -35.9160  -36.6400 C.ar  3001  DM23001     0.1418
      5  O4        36.0240  -35.0590  -36.7340 O.3   3001  DM23001    -0.4713
      6  C5        33.5580  -35.3900  -36.8440 C.ar  3001  DM23001     0.0760
      7  C6        33.2970  -33.9790  -37.1450 C.ar  3001  DM23001     0.2019
      8  O6        34.3500  -33.0910  -37.2450 O.3   3001  DM23001    -0.2864
      9  C7        31.9480  -33.4320  -37.3650 C.ar  3001  DM23001     0.0838
     10  C8        31.6510  -32.0160  -37.6730 C.ar  3001  DM23001     0.1970
     11  O8        32.6150  -31.0140  -37.8060 O.3   3001  DM23001    -0.2867
     12  C9        30.2660  -31.5910  -37.8690 C.ar  3001  DM23001     0.0429
     13  C10       30.0050  -30.1160  -38.1860 C.3   3001  DM23001     0.1454
     14  O10       30.5500  -30.1210  -39.5430 O.3   3001  DM23001    -0.3283
     15  C11       28.5230  -29.5880  -38.0720 C.3   3001  DM23001     0.0677
     16  C12       27.6410  -30.6840  -38.8450 C.3   3001  DM23001     0.1638
     17  O12       28.0110  -31.0840  -40.2110 O.3   3001  DM23001    -0.2225
     18  C13       26.1070  -30.3860  -38.8870 C.3   3001  DM23001     0.2128
     19  O13       25.3170  -30.7210  -40.0000 O.3   3001  DM23001    -0.2177
     20  C14       25.4500  -29.7610  -37.7220 C.3   3001  DM23001     0.2173
     21  O14       24.0460  -29.5800  -37.8920 O.3   3001  DM23001    -0.2175
     22  C15       27.7750  -32.0170  -37.9870 C.3   3001  DM23001     0.0626
     23  C16       29.2010  -32.4930  -37.7760 C.ar  3001  DM23001     0.0208
     24  C17       29.4750  -33.8720  -37.4740 C.ar  3001  DM23001     0.1949
     25  O17       28.3890  -34.7000  -37.3910 O.3   3001  DM23001    -0.2868
     26  C18       30.8310  -34.3710  -37.2610 C.ar  3001  DM23001     0.0837
     27  C19       31.0860  -35.7960  -36.9480 C.ar  3001  DM23001     0.1990
     28  O19       30.0390  -36.6260  -36.8620 O.3   3001  DM23001    -0.2865
     29  C20       32.4300  -36.2800  -36.7460 C.ar  3001  DM23001     0.0451
     30  C21       37.3960  -35.5770  -36.5380 C.3   3001  DM23001     0.2525
     31  C1'       31.4710  -29.1430  -40.0310 C.3   3001  DM23001     0.2369
     32  C2'       32.3720  -29.8650  -41.1260 C.3   3001  DM23001     0.0830
     33  C3'       31.3780  -30.3210  -42.2650 C.3   3001  DM23001     0.1295
     34  N3'       32.1870  -31.0210  -43.3760 N.3   3001  DM23001    -0.1300
     35  C4'       30.6210  -29.1120  -42.8390 C.3   3001  DM23001     0.1965
     36  O4'       31.6990  -28.2160  -43.3630 O.3   3001  DM23001    -0.2190
     37  C5'       29.7750  -28.4270  -41.7480 C.3   3001  DM23001     0.1495
     38  O5'       30.7020  -27.9910  -40.6110 O.3   3001  DM23001    -0.3303
     39  C6'       29.0090  -27.1770  -42.2670 C.3   3001  DM23001     0.0349
@<TRIPOS>BOND
     1    34    33    1
     2    36    35    1
     3    35    33    1
     4    35    37    1
     5    39    37    1
     6    33    32    1
     7    37    38    1
     8    32    31    1
     9    38    31    1
    10    17    16    1
    11    31    14    1
    12    19    18    1
    13    14    13    1
    14    18    16    1
    15    18    20    1
    16    16    15    1
    17    16    22    1
    18    13    15    1
    19    13    12    1
    20    22    23    1
    21    21    20    1
    22    12    23   ar
    23    12    10   ar
    24    11    10    1
    25    23    24   ar
    26    10     9   ar
    27    24    25    1
    28    24    26   ar
    29     9    26   ar
    30     9     7   ar
    31    26    27   ar
    32     8     7    1
    33     7     6   ar
    34    27    28    1
    35    27    29   ar
    36     6    29   ar
    37     6     4   ar
    38    29     1   ar
    39     5     4    1
    40     5    30    1
    41     4     3   ar
    42     1     2   ar
    43     3     2   ar
