@<TRIPOS>MOLECULE
1i1k_PLP_A_1.pdb
 15 15 0 0 0
SMALL
GASTEIGER

@<TRIPOS>ATOM
      1  N1        61.2660   24.1250   20.4520 N.ar  413  PLP413     -0.2452
      2  C2        62.4330   24.3030   21.1200 C.ar  413  PLP413      0.0978
      3  C2A       62.3910   24.7580   22.5710 C.3   413  PLP413      0.0555
      4  C3        63.6250   24.0720   20.4660 C.ar  413  PLP413      0.2049
      5  O3        64.8240   24.2780   21.0950 O.3   413  PLP413     -0.2857
      6  C4        63.6170   23.6490   19.1380 C.ar  413  PLP413      0.0182
      7  C4A       64.9560   23.4310   18.4270 C.3   413  PLP413      0.0342
      8  C5        62.4040   23.4700   18.4730 C.ar  413  PLP413      0.0261
      9  C6        61.2410   23.7180   19.1360 C.ar  413  PLP413      0.0965
     10  C5A       62.3260   22.9460   17.0150 C.3   413  PLP413      0.1815
     11  O4P       62.8700   23.8510   16.0660 O.3   413  PLP413     -0.2653
     12  P         63.3910   23.3330   14.6410 P.3   413  PLP413      0.5329
     13  O1P       64.2500   22.1580   14.9170 O.3   413  PLP413     -0.1145
     14  O2P       64.3090   24.5010   14.1620 O.3   413  PLP413     -0.1145
     15  O3P       62.2450   23.2160   13.7320 O.2   413  PLP413     -0.2224
@<TRIPOS>BOND
     1    15    12    2
     2    14    12    1
     3    12    13    1
     4    12    11    1
     5    11    10    1
     6    10     8    1
     7     7     6    1
     8     8     9   ar
     9     8     6   ar
    10     9     1   ar
    11     6     4   ar
    12     1     2   ar
    13     4     5    1
    14     4     2   ar
    15     2     3    1
