@<TRIPOS>MOLECULE
1i1l_PLP_A_1.pdb
 15 15 0 0 0
SMALL
GASTEIGER

@<TRIPOS>ATOM
      1  N1        24.1580   10.7390   15.1890 N.ar  413  PLP413     -0.2452
      2  C2        23.6820   11.7330   14.3950 C.ar  413  PLP413      0.0978
      3  C2A       23.9890   11.7250   12.9000 C.3   413  PLP413      0.0555
      4  C3        22.9340   12.7390   14.9600 C.ar  413  PLP413      0.2049
      5  O3        22.3400   13.7010   14.1520 O.3   413  PLP413     -0.2857
      6  C4        22.6810   12.7290   16.3240 C.ar  413  PLP413      0.0182
      7  C4A       21.9180   13.8940   16.9480 C.3   413  PLP413      0.0342
      8  C5        23.1970   11.7240   17.1050 C.ar  413  PLP413      0.0261
      9  C6        23.9160   10.7340   16.5310 C.ar  413  PLP413      0.0965
     10  C5A       22.9130   11.6440   18.5820 C.3   413  PLP413      0.1815
     11  O4P       23.8150   12.4100   19.3410 O.3   413  PLP413     -0.2653
     12  P         23.3570   13.0140   20.7470 P.3   413  PLP413      0.5329
     13  O1P       22.2490   13.9510   20.4820 O.2   413  PLP413     -0.2224
     14  O2P       24.5790   13.9110   21.2150 O.3   413  PLP413     -0.1145
     15  O3P       23.1820   11.8870   21.6740 O.3   413  PLP413     -0.1145
@<TRIPOS>BOND
     1     3     2    1
     2     5     4    1
     3     2     4   ar
     4     2     1   ar
     5     4     6   ar
     6     1     9   ar
     7     6     7    1
     8     6     8   ar
     9     9     8   ar
    10     8    10    1
    11    10    11    1
    12    11    12    1
    13    13    12    2
    14    12    14    1
    15    12    15    1
