@<TRIPOS>MOLECULE
1i1l_2ML_A_1.pdb
 10 9 0 0 0
SMALL
GASTEIGER

@<TRIPOS>ATOM
      1  N         20.8990   14.5550   16.2490 N.3   414  2ML414     -0.1229
      2  CA        20.2380   15.7400   16.8210 C.3   414  2ML414      0.1699
      3  CB1       19.2540   16.1710   15.7200 C.3   414  2ML414      0.0286
      4  CB2       21.2710   16.8670   16.9930 C.3   414  2ML414      0.0306
      5  CG        17.9180   15.4440   15.5630 C.3   414  2ML414      0.0019
      6  CD1       17.0190   16.2440   14.6350 C.3   414  2ML414      0.0001
      7  CD2       18.1380   14.0150   15.0690 C.3   414  2ML414      0.0001
      8  C         19.5220   15.4460   18.1570 C.2   414  2ML414      0.3799
      9  O         19.4280   16.3760   18.9900 O.co2 414  2ML414     -0.2441
     10  OXT       19.0620   14.2960   18.3660 O.co2 414  2ML414     -0.2441
@<TRIPOS>BOND
     1     6     5    1
     2     7     5    1
     3     5     3    1
     4     3     2    1
     5     1     2    1
     6     2     4    1
     7     2     8    1
     8     8    10   ar
     9     8     9   ar
