@<TRIPOS>MOLECULE
1i1m_PLP_A_1.pdb
 15 15 0 0 0
SMALL
GASTEIGER

@<TRIPOS>ATOM
      1  N1        23.8430   10.7680   15.0710 N.ar  413  PLP413     -0.2452
      2  C2        24.0990   11.9230   14.4160 C.ar  413  PLP413      0.0978
      3  C2A       24.4490   11.8900   12.9360 C.3   413  PLP413      0.0555
      4  C3        23.9930   13.1050   15.0840 C.ar  413  PLP413      0.2049
      5  O3        24.2790   14.2760   14.4450 O.3   413  PLP413     -0.2857
      6  C4        23.6190   13.1300   16.4110 C.ar  413  PLP413      0.0182
      7  C4A       23.5480   14.4700   17.1160 C.3   413  PLP413      0.0342
      8  C5        23.3550   11.9470   17.0710 C.ar  413  PLP413      0.0261
      9  C6        23.4750   10.7800   16.3890 C.ar  413  PLP413      0.0965
     10  C5A       22.8390   11.9020   18.5350 C.3   413  PLP413      0.1815
     11  O4P       23.7750   12.3980   19.4470 O.3   413  PLP413     -0.2653
     12  P         23.3910   12.9630   20.8740 P.3   413  PLP413      0.5329
     13  O1P       22.3900   14.0240   20.6760 O.2   413  PLP413     -0.2224
     14  O2P       24.7450   13.6860   21.2570 O.3   413  PLP413     -0.1145
     15  O3P       23.1180   11.8020   21.7410 O.3   413  PLP413     -0.1145
@<TRIPOS>BOND
     1     3     2    1
     2     2     1   ar
     3     2     4   ar
     4     5     4    1
     5     1     9   ar
     6     4     6   ar
     7     9     8   ar
     8     6     8   ar
     9     6     7    1
    10     8    10    1
    11    10    11    1
    12    11    12    1
    13    13    12    2
    14    12    14    1
    15    12    15    1
