@<TRIPOS>MOLECULE
1i1o_FMN_A_1.pdb
 31 33 0 0 0
SMALL
GASTEIGER

@<TRIPOS>ATOM
      1  N1         2.1860   19.9790   -1.5190 N.2   149  FMN149     -0.2887
      2  C2         2.0090   18.9610   -0.6920 C.1   149  FMN149      0.3669
      3  O2         0.9490   18.9130   -0.0650 O.2   149  FMN149     -0.1744
      4  N3         3.0080   17.9840   -0.5450 N.2   149  FMN149     -0.2300
      5  C4         4.1870   18.0560   -1.3010 C.1   149  FMN149      0.2513
      6  O4         5.0070   17.1530   -1.2120 O.2   149  FMN149     -0.2057
      7  C4A        4.4020   19.0900   -2.2100 C.2   149  FMN149      0.2706
      8  N5         5.5010   19.3160   -2.9340 N.2   149  FMN149     -0.3841
      9  C5A        5.5490   20.3190   -3.8190 C.2   149  FMN149      0.1452
     10  C6         6.6210   20.2470   -4.7170 C.2   149  FMN149      0.0252
     11  C7         6.7250   21.2200   -5.7070 C.2   149  FMN149     -0.0375
     12  C7M        7.8920   21.1850   -6.7000 C.3   149  FMN149      0.0268
     13  C8         5.7890   22.2400   -5.8950 C.3   149  FMN149      0.0417
     14  C8M        5.9960   23.2280   -7.0520 C.3   149  FMN149      0.0091
     15  C9         4.6940   22.2970   -5.0340 C.2   149  FMN149     -0.0049
     16  C9A        4.5970   21.3510   -4.0130 C.2   149  FMN149      0.0795
     17  N10        3.4300   21.1180   -3.1160 N.pl3 149  FMN149     -0.2545
     18  C10        3.2860   20.0940   -2.2630 C.2   149  FMN149      0.2449
     19  C1'        2.6410   22.3330   -3.4820 C.3   149  FMN149      0.1336
     20  C2'        2.5250   23.5900   -2.6100 C.3   149  FMN149      0.2048
     21  O2'        2.7060   23.4220   -1.2070 O.3   149  FMN149     -0.2185
     22  C3'        1.2420   24.3820   -2.9360 C.3   149  FMN149      0.2165
     23  O3'        1.3060   24.9390   -4.2610 O.3   149  FMN149     -0.2175
     24  C4'        0.8930   25.4480   -1.8910 C.3   149  FMN149      0.2147
     25  O4'       -0.4350   25.9520   -2.0250 O.3   149  FMN149     -0.2176
     26  C5'        1.8220   26.6740   -1.7960 C.3   149  FMN149      0.1892
     27  O5'        1.6340   27.2940   -0.5220 O.3   149  FMN149     -0.2674
     28  P          2.1310   28.7820   -0.3030 P.3   149  FMN149      0.5327
     29  O1P        3.6860   28.7870   -0.5710 O.3   149  FMN149     -0.1145
     30  O2P        1.5290   29.8620   -1.1020 O.2   149  FMN149     -0.2224
     31  O3P        1.7440   29.1440    1.1150 O.3   149  FMN149     -0.1145
@<TRIPOS>BOND
     1    14    13    1
     2    12    11    1
     3    13    11    1
     4    13    15    1
     5    11    10    2
     6    15    16    2
     7    10     9    1
     8    23    22    1
     9    16     9    1
    10    16    17    1
    11     9     8    2
    12    19    17    1
    13    19    20    1
    14    17    18    1
    15    22    20    1
    16    22    24    1
    17     8     7    2
    18    20    21    1
    19    18     7    1
    20    18     1    2
    21     7     5    1
    22    25    24    1
    23    24    26    1
    24    26    27    1
    25     1     2    2
    26     5     6    2
    27     5     4    2
    28    30    28    2
    29     2     4    2
    30     2     3    2
    31    29    28    1
    32    27    28    1
    33    28    31    1
