@<TRIPOS>MOLECULE
1i24_UPG_A_1.pdb
 36 38 0 0 0
SMALL
GASTEIGER

@<TRIPOS>ATOM
      1  N1        72.3250  103.4460   25.0960 N.am  402  UPG402     -0.1766
      2  C2        72.4620  104.8360   24.8280 C.1   402  UPG402      0.2845
      3  N3        71.9060  105.6530   25.7800 N.2   402  UPG402     -0.2452
      4  C4        71.2540  105.3000   26.9440 C.1   402  UPG402      0.2182
      5  C5        71.1780  103.8580   27.1680 C.2   402  UPG402      0.1242
      6  C6        71.6800  103.0130   26.2440 C.2   402  UPG402      0.0929
      7  O2        73.0400  105.2530   23.8220 O.2   402  UPG402     -0.1918
      8  O4        70.8140  106.1160   27.7310 O.2   402  UPG402     -0.2085
      9  C1C       72.8340  102.4490   24.1160 C.3   402  UPG402      0.2401
     10  C2C       73.7960  101.4050   24.6950 C.3   402  UPG402      0.2319
     11  O2C       75.1540  101.8140   24.8130 O.3   402  UPG402     -0.2157
     12  C3C       73.5000  100.2530   23.7440 C.3   402  UPG402      0.2158
     13  C4C       72.0300  100.3260   23.4200 C.3   402  UPG402      0.1799
     14  O4C       71.6720  101.7140   23.6840 O.3   402  UPG402     -0.3320
     15  O3C       74.2840  100.4150   22.5490 O.3   402  UPG402     -0.2175
     16  C5C       71.0810   99.4340   24.2410 C.3   402  UPG402      0.1813
     17  O5C       71.5030   99.5410   25.6100 O.3   402  UPG402     -0.3112
     18  PA        70.4700   99.2310   26.7490 P.3   402  UPG402      0.2189
     19  O1A       71.0910   99.6040   28.0160 O.3   402  UPG402     -0.4371
     20  O2A       69.1370   99.7040   26.4060 O.2   402  UPG402     -0.5170
     21  O3A       70.3540   97.6380   26.7060 O.3   402  UPG402     -0.2703
     22  PB        71.4060   96.4370   26.9480 P.3   402  UPG402      0.2208
     23  O1B       72.5090   96.8280   27.8260 O.3   402  UPG402     -0.4371
     24  O2B       71.7530   95.8510   25.6360 O.2   402  UPG402     -0.5170
     25  O3B       70.5080   95.4260   27.8300 O.3   402  UPG402     -0.2857
     26  C1'       69.1250   95.2390   27.8220 C.3   402  UPG402      0.2742
     27  C2'       68.8250   94.3330   29.0010 C.3   402  UPG402      0.2409
     28  C3'       69.5220   92.9650   28.8310 C.3   402  UPG402      0.2198
     29  C4'       69.0960   92.3850   27.4770 C.3   402  UPG402      0.2144
     30  C5'       69.3690   93.3800   26.3590 C.3   402  UPG402      0.1835
     31  C6'       68.7240   92.8630   25.0840 C.3   402  UPG402      0.2142
     32  O2'       69.2600   94.9600   30.2010 O.3   402  UPG402     -0.2149
     33  O3'       69.1590   92.0670   29.8900 O.3   402  UPG402     -0.2174
     34  O4'       69.8770   91.2120   27.1700 O.3   402  UPG402     -0.2176
     35  O5'       68.6910   94.6400   26.6040 O.3   402  UPG402     -0.3254
     36  O6'       69.6500   91.8670   24.6350 O.3   402  UPG402     -0.2176
@<TRIPOS>BOND
     1    15    12    1
     2    13    14    1
     3    13    12    1
     4    13    16    1
     5    14     9    1
     6    12    10    1
     7     7     2    2
     8     9    10    1
     9     9     1    1
    10    16    17    1
    11    36    31    1
    12    10    11    1
    13     2     1   am
    14     2     3    2
    15    31    30    1
    16     1     6    1
    17    17    18    1
    18    24    22    2
    19     3     4    2
    20     6     5    2
    21    30    35    1
    22    30    29    1
    23    20    18    2
    24    35    26    1
    25    21    18    1
    26    21    22    1
    27    18    19    1
    28     4     5    1
    29     4     8    2
    30    22    23    1
    31    22    25    1
    32    34    29    1
    33    29    28    1
    34    26    25    1
    35    26    27    1
    36    28    27    1
    37    28    33    1
    38    27    32    1
