@<TRIPOS>MOLECULE
1i24_NAD_A_1.pdb
 44 48 0 0 0
SMALL
GASTEIGER

@<TRIPOS>ATOM
      1  PA        64.5130   92.0140   36.6000 P.3   401  NAD401      0.2189
      2  O1A       65.8340   92.3150   37.2830 O.3   401  NAD401     -0.4371
      3  O2A       63.3670   93.0450   36.6790 O.2   401  NAD401     -0.5170
      4  O5B       63.9120   90.6240   37.0670 O.3   401  NAD401     -0.3112
      5  C5B       64.7680   89.4730   37.4180 C.3   401  NAD401      0.1813
      6  C4B       64.1580   88.8700   38.6120 C.3   401  NAD401      0.1821
      7  O4B       64.9460   87.6300   38.8910 O.3   401  NAD401     -0.3135
      8  C3B       64.1740   89.7090   39.8700 C.3   401  NAD401      0.2184
      9  O3B       62.8920   89.7650   40.4990 O.3   401  NAD401     -0.2174
     10  C2B       65.2640   89.0140   40.7080 C.3   401  NAD401      0.2570
     11  O2B       65.0880   89.1560   42.1050 O.3   401  NAD401     -0.2130
     12  C1B       65.1200   87.5200   40.2510 C.3   401  NAD401      0.3186
     13  N9A       66.3650   86.7160   40.4960 N.pl3 401  NAD401     -0.1439
     14  C8A       67.6420   87.0540   40.0820 C.3   401  NAD401      0.3377
     15  N7A       68.5120   86.1230   40.5040 N.2   401  NAD401     -0.2095
     16  C5A       67.7530   85.1510   41.1740 C.2   401  NAD401      0.2526
     17  C6A       68.0640   83.9870   41.8510 C.2   401  NAD401      0.4393
     18  N6A       69.3640   83.5450   42.0200 N.pl3 401  NAD401      0.2180
     19  N1A       67.0800   83.2480   42.4230 N.2   401  NAD401      0.0021
     20  C2A       65.7500   83.6920   42.3030 C.3   401  NAD401      0.5254
     21  N3A       65.3730   84.8230   41.6880 N.2   401  NAD401     -0.0055
     22  C4A       66.4030   85.5280   41.1390 C.2   401  NAD401      0.3518
     23  O3        64.8260   91.6910   35.1600 O.3   401  NAD401     -0.2703
     24  PN        63.9420   91.7280   33.7690 P.3   401  NAD401      0.2189
     25  O1N       64.1620   93.0510   33.1210 O.2   401  NAD401     -0.5170
     26  O2N       62.5650   91.2950   34.0870 O.3   401  NAD401     -0.4371
     27  O5D       64.6660   90.6300   32.8950 O.3   401  NAD401     -0.3112
     28  C5D       64.3160   89.2220   33.0830 C.3   401  NAD401      0.1813
     29  C4D       64.9900   88.4100   32.0580 C.3   401  NAD401      0.1799
     30  O4D       64.5740   88.9150   30.7460 O.3   401  NAD401     -0.3327
     31  C3D       66.5110   88.4700   32.0380 C.3   401  NAD401      0.2158
     32  O3D       67.0270   87.2330   31.5160 O.3   401  NAD401     -0.2175
     33  C2D       66.7790   89.5330   31.0250 C.3   401  NAD401      0.2309
     34  O2D       68.1060   89.4970   30.4490 O.3   401  NAD401     -0.2158
     35  C1D       65.7060   89.2450   29.9630 C.3   401  NAD401      0.2263
     36  N1N       65.4190   90.4400   29.1420 N.pl3 401  NAD401     -0.2787
     37  C2N       65.0800   91.6270   29.6570 C.3   401  NAD401      0.1244
     38  C3N       65.0570   92.7840   28.8210 C.2   401  NAD401      0.0544
     39  C7N       64.7430   94.0590   29.3380 C.2   401  NAD401      0.2818
     40  O7N       64.8150   95.0390   28.5300 O.2   401  NAD401     -0.2670
     41  N7N       64.4390   94.2850   30.5870 N.am  401  NAD401     -0.0839
     42  C4N       65.3820   92.6860   27.3730 C.2   401  NAD401      0.0033
     43  C5N       65.7030   91.3850   26.9120 C.2   401  NAD401      0.0157
     44  C6N       65.7750   90.2530   27.7590 C.2   401  NAD401      0.0633
@<TRIPOS>BOND
     1    43    42    1
     2    43    44    2
     3    42    38    2
     4    44    36    1
     5    40    39    2
     6    38    39    1
     7    38    37    1
     8    36    37    1
     9    36    35    1
    10    39    41   am
    11    35    30    1
    12    35    33    1
    13    34    33    1
    14    30    29    1
    15    33    31    1
    16    32    31    1
    17    31    29    1
    18    29    28    1
    19    27    28    1
    20    27    24    1
    21    25    24    2
    22    24    26    1
    23    24    23    1
    24    23     1    1
    25     1     3    2
    26     1     4    1
    27     1     2    1
    28     4     5    1
    29     5     6    1
    30     6     7    1
    31     6     8    1
    32     7    12    1
    33     8     9    1
    34     8    10    1
    35    14    13    1
    36    14    15    1
    37    12    13    1
    38    12    10    1
    39    13    22    1
    40    15    16    2
    41    10    11    1
    42    22    16    1
    43    22    21    2
    44    16    17    1
    45    21    20    1
    46    17    18    1
    47    17    19    2
    48    20    19    1
