@<TRIPOS>MOLECULE
1i29_PLP_A_1.pdb
 15 15 0 0 0
SMALL
GASTEIGER

@<TRIPOS>ATOM
      1  N1        25.7500   46.0570    7.3140 N.ar  500  PLP500     -0.2452
      2  C2        25.7900   47.4160    7.4870 C.ar  500  PLP500      0.0978
      3  C2A       25.0400   48.0310    8.6650 C.3   500  PLP500      0.0555
      4  C3        26.4940   48.2130    6.5980 C.ar  500  PLP500      0.2049
      5  O3        26.5380   49.5770    6.7680 O.3   500  PLP500     -0.2857
      6  C4        27.1480   47.6370    5.5380 C.ar  500  PLP500      0.0182
      7  C4A       27.8630   48.4950    4.5610 C.3   500  PLP500      0.0342
      8  C5        27.0960   46.2430    5.3770 C.ar  500  PLP500      0.0261
      9  C6        26.3970   45.4770    6.2690 C.ar  500  PLP500      0.0965
     10  C5A       27.7850   45.5340    4.2060 C.3   500  PLP500      0.1815
     11  O4P       29.1400   45.1880    4.5140 O.3   500  PLP500     -0.2653
     12  P         30.2600   45.1420    3.3520 P.3   500  PLP500      0.5329
     13  O1P       29.7010   45.7400    2.1060 O.2   500  PLP500     -0.2224
     14  O2P       30.4460   43.5550    3.1270 O.3   500  PLP500     -0.1145
     15  O3P       31.5150   45.6700    3.9160 O.3   500  PLP500     -0.1145
@<TRIPOS>BOND
     1    13    12    2
     2    14    12    1
     3    12    15    1
     4    12    11    1
     5    10    11    1
     6    10     8    1
     7     7     6    1
     8     8     6   ar
     9     8     9   ar
    10     6     4   ar
    11     9     1   ar
    12     4     5    1
    13     4     2   ar
    14     1     2   ar
    15     2     3    1
