@<TRIPOS>MOLECULE
1i2b_USQ_A_1.pdb
 39 41 0 0 0
SMALL
GASTEIGER

@<TRIPOS>ATOM
      1  N1        72.0300  103.0410   25.0880 N.am  2402  USQ2402    -0.1766
      2  C2        72.2030  104.4170   24.8120 C.1   2402  USQ2402     0.2845
      3  N3        71.6610  105.2620   25.7840 N.2   2402  USQ2402    -0.2452
      4  C4        70.9890  104.8860   26.9540 C.1   2402  USQ2402     0.2182
      5  C5        70.8430  103.4490   27.1620 C.2   2402  USQ2402     0.1242
      6  C6        71.3610  102.6180   26.2250 C.2   2402  USQ2402     0.0929
      7  O2        72.7780  104.8840   23.8210 O.2   2402  USQ2402    -0.1918
      8  O4        70.5660  105.7200   27.7430 O.2   2402  USQ2402    -0.2085
      9  C1D       72.5580  102.0520   24.1190 C.3   2402  USQ2402     0.2401
     10  C2D       73.5360  101.0220   24.6940 C.3   2402  USQ2402     0.2319
     11  O2D       74.9120  101.3950   24.7710 O.3   2402  USQ2402    -0.2157
     12  C3D       73.2750   99.8730   23.7260 C.3   2402  USQ2402     0.2158
     13  C4D       71.8060   99.9240   23.3340 C.3   2402  USQ2402     0.1799
     14  O4D       71.4430  101.3020   23.5770 O.3   2402  USQ2402    -0.3320
     15  O3D       74.1060  100.0460   22.5790 O.3   2402  USQ2402    -0.2175
     16  C5D       70.8840   99.0200   24.1660 C.3   2402  USQ2402     0.1813
     17  O5D       71.1990   99.1940   25.5490 O.3   2402  USQ2402    -0.3112
     18  PA        70.1980   98.9060   26.7380 P.3   2402  USQ2402     0.2189
     19  O1A       70.8650   99.2930   27.9930 O.3   2402  USQ2402    -0.4371
     20  O2A       68.8430   99.3840   26.3850 O.2   2402  USQ2402    -0.5170
     21  O3A       70.1570   97.3140   26.6920 O.3   2402  USQ2402    -0.2703
     22  PB        71.2040   96.1110   26.9110 P.3   2402  USQ2402     0.2208
     23  O1B       72.2530   96.5540   27.8440 O.3   2402  USQ2402    -0.4371
     24  O2B       71.5910   95.5090   25.6250 O.2   2402  USQ2402    -0.5170
     25  O3B       70.3350   95.1270   27.8440 O.3   2402  USQ2402    -0.2857
     26  C1'       68.9560   94.9210   27.8360 C.3   2402  USQ2402     0.2741
     27  C2'       68.5630   93.9830   28.9710 C.3   2402  USQ2402     0.2409
     28  C3'       69.2650   92.6330   28.7650 C.3   2402  USQ2402     0.2198
     29  C4'       68.8290   92.0580   27.4150 C.3   2402  USQ2402     0.2134
     30  C5'       69.2120   93.0680   26.3180 C.3   2402  USQ2402     0.1705
     31  C6'       68.5860   92.5990   25.0210 C.3   2402  USQ2402     0.1374
     32  O2'       68.9730   94.5610   30.2010 O.3   2402  USQ2402    -0.2149
     33  O3'       68.8960   91.7370   29.8090 O.3   2402  USQ2402    -0.2174
     34  O4'       69.4830   90.8080   27.1780 O.3   2402  USQ2402    -0.2176
     35  O5'       68.5730   94.3430   26.5890 O.3   2402  USQ2402    -0.3264
     36  S         69.9540   92.1720   23.9220 S.3   2402  USQ2402    -0.1935
     37  O1S       71.1430   92.9640   24.0800 O.3   2402  USQ2402    -0.3074
     38  O2S       70.1460   90.7600   24.2650 O.3   2402  USQ2402    -0.3074
     39  O3S       69.4140   92.3840   22.6020 O.3   2402  USQ2402    -0.3074
@<TRIPOS>BOND
     1    15    12    1
     2    39    36    1
     3    13    14    1
     4    13    12    1
     5    13    16    1
     6    14     9    1
     7    12    10    1
     8     7     2    2
     9    36    37    1
    10    36    38    1
    11    36    31    1
    12     9    10    1
    13     9     1    1
    14    16    17    1
    15    10    11    1
    16     2     1   am
    17     2     3    2
    18    31    30    1
    19     1     6    1
    20    17    18    1
    21    24    22    2
    22     3     4    2
    23     6     5    2
    24    30    35    1
    25    30    29    1
    26    20    18    2
    27    35    26    1
    28    21    18    1
    29    21    22    1
    30    18    19    1
    31    22    25    1
    32    22    23    1
    33     4     5    1
    34     4     8    2
    35    34    29    1
    36    29    28    1
    37    26    25    1
    38    26    27    1
    39    28    27    1
    40    28    33    1
    41    27    32    1
