@<TRIPOS>MOLECULE
1i2b_NAD_A_1.pdb
 44 48 0 0 0
SMALL
GASTEIGER

@<TRIPOS>ATOM
      1  PA        64.3320   91.6840   36.4780 P.3   401  NAD401      0.2189
      2  O1A       65.6270   91.9480   37.1650 O.3   401  NAD401     -0.4371
      3  O2A       63.1780   92.7240   36.5920 O.2   401  NAD401     -0.5170
      4  O5B       63.6950   90.3080   36.9280 O.3   401  NAD401     -0.3112
      5  C5B       64.5020   89.1190   37.2870 C.3   401  NAD401      0.1813
      6  C4B       63.9140   88.4880   38.4940 C.3   401  NAD401      0.1821
      7  O4B       64.7070   87.2920   38.7690 O.3   401  NAD401     -0.3135
      8  C3B       63.9550   89.3690   39.7610 C.3   401  NAD401      0.2184
      9  O3B       62.6700   89.4360   40.4240 O.3   401  NAD401     -0.2174
     10  C2B       65.0440   88.6810   40.6220 C.3   401  NAD401      0.2570
     11  O2B       64.8230   88.8690   42.0290 O.3   401  NAD401     -0.2130
     12  C1B       64.8600   87.2130   40.1490 C.3   401  NAD401      0.3186
     13  N9A       66.0860   86.4420   40.3740 N.pl3 401  NAD401     -0.1439
     14  C8A       67.3630   86.7430   39.9550 C.3   401  NAD401      0.3377
     15  N7A       68.2260   85.8120   40.3640 N.2   401  NAD401     -0.2095
     16  C5A       67.4660   84.9120   41.0310 C.2   401  NAD401      0.2526
     17  C6A       67.8420   83.7010   41.7120 C.2   401  NAD401      0.4393
     18  N6A       69.1380   83.2390   41.8330 N.pl3 401  NAD401      0.2180
     19  N1A       66.8280   82.9590   42.3030 N.2   401  NAD401      0.0021
     20  C2A       65.4970   83.3270   42.2710 C.3   401  NAD401      0.5254
     21  N3A       65.1570   84.4650   41.6500 N.2   401  NAD401     -0.0055
     22  C4A       66.1020   85.2750   41.0310 C.2   401  NAD401      0.3518
     23  O3        64.5790   91.3220   34.9870 O.3   401  NAD401     -0.2703
     24  PN        63.7350   91.3800   33.6240 P.3   401  NAD401      0.2189
     25  O1N       63.9340   92.6510   32.9090 O.2   401  NAD401     -0.5170
     26  O2N       62.3760   90.9240   34.0150 O.3   401  NAD401     -0.4371
     27  O5D       64.3860   90.2370   32.7710 O.3   401  NAD401     -0.3112
     28  C5D       64.0580   88.8390   33.0190 C.3   401  NAD401      0.1813
     29  C4D       64.7630   87.9610   32.0250 C.3   401  NAD401      0.1799
     30  O4D       64.3560   88.4160   30.7260 O.3   401  NAD401     -0.3327
     31  C3D       66.2780   88.0630   32.0090 C.3   401  NAD401      0.2158
     32  O3D       66.9110   86.8630   31.5470 O.3   401  NAD401     -0.2175
     33  C2D       66.5920   89.1040   30.9710 C.3   401  NAD401      0.2309
     34  O2D       67.9310   89.1510   30.4510 O.3   401  NAD401     -0.2158
     35  C1D       65.4920   88.8030   29.9560 C.3   401  NAD401      0.2263
     36  N1N       65.2900   89.9580   29.0940 N.pl3 401  NAD401     -0.2787
     37  C2N       64.8880   91.2340   29.5860 C.3   401  NAD401      0.1244
     38  C3N       64.9140   92.3330   28.6930 C.2   401  NAD401      0.0544
     39  C7N       64.5530   93.6800   29.1570 C.2   401  NAD401      0.2818
     40  O7N       64.6350   94.5890   28.3450 O.2   401  NAD401     -0.2670
     41  N7N       64.1990   93.8140   30.4220 N.am  401  NAD401     -0.0839
     42  C4N       65.3090   92.1360   27.3260 C.2   401  NAD401      0.0033
     43  C5N       65.7060   90.8420   26.8060 C.2   401  NAD401      0.0157
     44  C6N       65.7240   89.7390   27.7190 C.2   401  NAD401      0.0633
@<TRIPOS>BOND
     1    43    42    1
     2    43    44    2
     3    42    38    2
     4    44    36    1
     5    40    39    2
     6    38    39    1
     7    38    37    1
     8    36    37    1
     9    36    35    1
    10    39    41   am
    11    35    30    1
    12    35    33    1
    13    34    33    1
    14    30    29    1
    15    33    31    1
    16    32    31    1
    17    31    29    1
    18    29    28    1
    19    27    28    1
    20    27    24    1
    21    25    24    2
    22    24    26    1
    23    24    23    1
    24    23     1    1
    25     1     3    2
    26     1     4    1
    27     1     2    1
    28     4     5    1
    29     5     6    1
    30     6     7    1
    31     6     8    1
    32     7    12    1
    33     8     9    1
    34     8    10    1
    35    14    15    1
    36    14    13    1
    37    12    13    1
    38    12    10    1
    39    15    16    2
    40    13    22    1
    41    10    11    1
    42    16    22    1
    43    16    17    1
    44    22    21    2
    45    21    20    1
    46    17    18    1
    47    17    19    2
    48    20    19    1
