@<TRIPOS>MOLECULE
1i2c_NAD_A_1.pdb
 44 48 0 0 0
SMALL
GASTEIGER

@<TRIPOS>ATOM
      1  PA        64.3050   91.7020   36.4390 P.3   401  NAD401      0.2189
      2  O1A       65.5910   91.9860   37.1120 O.3   401  NAD401     -0.4371
      3  O2A       63.1860   92.7170   36.5080 O.2   401  NAD401     -0.5170
      4  O5B       63.6860   90.3060   36.8980 O.3   401  NAD401     -0.3112
      5  C5B       64.4820   89.1350   37.2710 C.3   401  NAD401      0.1813
      6  C4B       63.9040   88.5060   38.4970 C.3   401  NAD401      0.1821
      7  O4B       64.7000   87.3430   38.7420 O.3   401  NAD401     -0.3135
      8  C3B       63.9640   89.3970   39.7490 C.3   401  NAD401      0.2184
      9  O3B       62.6580   89.4760   40.3680 O.3   401  NAD401     -0.2174
     10  C2B       65.0450   88.6990   40.6190 C.3   401  NAD401      0.2570
     11  O2B       64.7940   88.8850   42.0250 O.3   401  NAD401     -0.2130
     12  C1B       64.8790   87.2330   40.1430 C.3   401  NAD401      0.3186
     13  N9A       66.1040   86.4570   40.3730 N.pl3 401  NAD401     -0.1439
     14  C8A       67.3880   86.7540   39.9700 C.3   401  NAD401      0.3377
     15  N7A       68.2400   85.8250   40.3860 N.2   401  NAD401     -0.2095
     16  C5A       67.4680   84.9360   41.0370 C.2   401  NAD401      0.2526
     17  C6A       67.8310   83.7220   41.7230 C.2   401  NAD401      0.4393
     18  N6A       69.1190   83.2380   41.8580 N.pl3 401  NAD401      0.2180
     19  N1A       66.8180   83.0020   42.2830 N.2   401  NAD401      0.0021
     20  C2A       65.4940   83.3620   42.2350 C.3   401  NAD401      0.5254
     21  N3A       65.1550   84.5170   41.6040 N.2   401  NAD401     -0.0055
     22  C4A       66.1100   85.3090   41.0150 C.2   401  NAD401      0.3518
     23  O3        64.5880   91.3310   34.9250 O.3   401  NAD401     -0.2703
     24  PN        63.7080   91.3860   33.6020 P.3   401  NAD401      0.2189
     25  O1N       63.9010   92.6680   32.9110 O.2   401  NAD401     -0.5170
     26  O2N       62.3600   90.9240   34.0050 O.3   401  NAD401     -0.4371
     27  O5D       64.3760   90.2460   32.7750 O.3   401  NAD401     -0.3112
     28  C5D       64.0370   88.8530   32.9820 C.3   401  NAD401      0.1813
     29  C4D       64.7630   87.9710   32.0000 C.3   401  NAD401      0.1799
     30  O4D       64.3850   88.4240   30.6680 O.3   401  NAD401     -0.3327
     31  C3D       66.2820   88.0550   32.0150 C.3   401  NAD401      0.2158
     32  O3D       66.9200   86.8630   31.6040 O.3   401  NAD401     -0.2175
     33  C2D       66.6180   89.0960   30.9830 C.3   401  NAD401      0.2309
     34  O2D       67.9740   89.1480   30.5200 O.3   401  NAD401     -0.2158
     35  C1D       65.5350   88.7750   29.9430 C.3   401  NAD401      0.2263
     36  N1N       65.3250   89.9110   29.0750 N.pl3 401  NAD401     -0.2787
     37  C2N       64.9080   91.1780   29.5370 C.3   401  NAD401      0.1244
     38  C3N       64.9030   92.2580   28.6470 C.2   401  NAD401      0.0544
     39  C7N       64.5340   93.6160   29.0910 C.2   401  NAD401      0.2818
     40  O7N       64.6010   94.5250   28.2600 O.2   401  NAD401     -0.2670
     41  N7N       64.1880   93.7770   30.3690 N.am  401  NAD401     -0.0839
     42  C4N       65.2870   92.0470   27.2620 C.2   401  NAD401      0.0033
     43  C5N       65.6990   90.7620   26.7630 C.2   401  NAD401      0.0157
     44  C6N       65.7520   89.6550   27.6940 C.2   401  NAD401      0.0633
@<TRIPOS>BOND
     1    43    42    1
     2    43    44    2
     3    42    38    2
     4    44    36    1
     5    40    39    2
     6    38    39    1
     7    38    37    1
     8    36    37    1
     9    36    35    1
    10    39    41   am
    11    35    30    1
    12    35    33    1
    13    34    33    1
    14    30    29    1
    15    33    31    1
    16    32    31    1
    17    29    31    1
    18    29    28    1
    19    27    28    1
    20    27    24    1
    21    25    24    2
    22    24    26    1
    23    24    23    1
    24    23     1    1
    25     1     3    2
    26     1     4    1
    27     1     2    1
    28     4     5    1
    29     5     6    1
    30     6     7    1
    31     6     8    1
    32     7    12    1
    33     8     9    1
    34     8    10    1
    35    14    13    1
    36    14    15    1
    37    12    13    1
    38    12    10    1
    39    13    22    1
    40    15    16    2
    41    10    11    1
    42    22    16    1
    43    22    21    2
    44    16    17    1
    45    21    20    1
    46    17    18    1
    47    17    19    2
    48    20    19    1
