@<TRIPOS>MOLECULE
1i2c_UPG_A_1.pdb
 36 38 0 0 0
SMALL
GASTEIGER

@<TRIPOS>ATOM
      1  N1        72.0460  103.0560   25.0460 N.am  402  UPG402     -0.1766
      2  C2        72.2080  104.4290   24.7600 C.1   402  UPG402      0.2845
      3  N3        71.6620  105.2700   25.7290 N.2   402  UPG402     -0.2452
      4  C4        71.0010  104.8910   26.9050 C.1   402  UPG402      0.2182
      5  C5        70.8690  103.4560   27.1220 C.2   402  UPG402      0.1242
      6  C6        71.3870  102.6200   26.1870 C.2   402  UPG402      0.0929
      7  O2        72.7750  104.8990   23.7620 O.2   402  UPG402     -0.1918
      8  O4        70.5800  105.7250   27.6920 O.2   402  UPG402     -0.2085
      9  C1C       72.5640  102.0650   24.0750 C.3   402  UPG402      0.2401
     10  C2C       73.5440  101.0280   24.6380 C.3   402  UPG402      0.2319
     11  O2C       74.9050  101.4510   24.7030 O.3   402  UPG402     -0.2157
     12  C3C       73.2720   99.8960   23.6500 C.3   402  UPG402      0.2158
     13  C4C       71.7920   99.9610   23.3040 C.3   402  UPG402      0.1799
     14  O4C       71.4250  101.3310   23.5770 O.3   402  UPG402     -0.3320
     15  O3C       74.0730  100.0710   22.4790 O.3   402  UPG402     -0.2175
     16  C5C       70.8820   99.0330   24.1220 C.3   402  UPG402      0.1813
     17  O5C       71.2200   99.1870   25.5020 O.3   402  UPG402     -0.3112
     18  PA        70.2150   98.8550   26.6690 P.3   402  UPG402      0.2189
     19  O1A       70.9080   99.2170   27.9160 O.3   402  UPG402     -0.4371
     20  O2A       68.8630   99.3500   26.3420 O.2   402  UPG402     -0.5170
     21  O3A       70.1380   97.2700   26.6050 O.3   402  UPG402     -0.2703
     22  PB        71.1530   96.0460   26.7980 P.3   402  UPG402      0.2208
     23  O1B       72.2340   96.4390   27.7200 O.3   402  UPG402     -0.4371
     24  O2B       71.4800   95.4300   25.4950 O.2   402  UPG402     -0.5170
     25  O3B       70.2680   95.0670   27.7220 O.3   402  UPG402     -0.2857
     26  C1'       68.8900   94.8580   27.7190 C.3   402  UPG402      0.2742
     27  C2'       68.5270   93.9680   28.8990 C.3   402  UPG402      0.2409
     28  C3'       69.2250   92.6130   28.7430 C.3   402  UPG402      0.2198
     29  C4'       68.7600   91.9880   27.4240 C.3   402  UPG402      0.2144
     30  C5'       69.1130   92.9380   26.2660 C.3   402  UPG402      0.1835
     31  C6'       68.7610   92.2300   24.9670 C.3   402  UPG402      0.2142
     32  O2'       68.9660   94.6320   30.0770 O.3   402  UPG402     -0.2149
     33  O3'       68.8700   91.7690   29.8340 O.3   402  UPG402     -0.2174
     34  O4'       69.4190   90.7420   27.2220 O.3   402  UPG402     -0.2176
     35  O5'       68.4790   94.2250   26.4970 O.3   402  UPG402     -0.3254
     36  O6'       69.9290   91.7690   24.2900 O.3   402  UPG402     -0.2176
@<TRIPOS>BOND
     1    15    12    1
     2    13    14    1
     3    13    12    1
     4    13    16    1
     5    14     9    1
     6    12    10    1
     7     7     2    2
     8     9    10    1
     9     9     1    1
    10    16    17    1
    11    36    31    1
    12    10    11    1
    13     2     1   am
    14     2     3    2
    15    31    30    1
    16     1     6    1
    17    24    22    2
    18    17    18    1
    19     3     4    2
    20     6     5    2
    21    30    35    1
    22    30    29    1
    23    20    18    2
    24    35    26    1
    25    21    18    1
    26    21    22    1
    27    18    19    1
    28    22    23    1
    29    22    25    1
    30     4     5    1
    31     4     8    2
    32    34    29    1
    33    29    28    1
    34    26    25    1
    35    26    27    1
    36    28    27    1
    37    28    33    1
    38    27    32    1
