@<TRIPOS>MOLECULE
1i2d_ADX_A_1.pdb
 27 29 0 0 0
SMALL
GASTEIGER

@<TRIPOS>ATOM
      1  SB        22.8160   89.4470   32.9890 S.3   574  ADX574      0.0049
      2  O1B       23.9700   88.6330   32.5970 O.2   574  ADX574     -0.3449
      3  O2B       22.9610   90.8800   32.8310 O.3   574  ADX574     -0.2679
      4  O3B       21.5670   89.0180   32.3330 O.2   574  ADX574     -0.3449
      5  PA        21.2930   89.5380   35.4290 P.3   574  ADX574      0.2383
      6  O1A       20.3720   88.4410   35.1960 O.2   574  ADX574     -0.5161
      7  O2A       21.6930   89.7630   36.8470 O.3   574  ADX574     -0.4361
      8  O3A       22.5980   89.1550   34.5610 O.3   574  ADX574     -0.1945
      9  O5'       20.8170   90.8760   34.6740 O.3   574  ADX574     -0.3102
     10  C5'       19.6500   91.4930   34.9020 C.3   574  ADX574      0.1814
     11  C4'       19.4710   92.5800   33.8950 C.3   574  ADX574      0.1821
     12  O4'       19.1660   93.7120   34.7120 O.3   574  ADX574     -0.3135
     13  C3'       20.6800   93.1260   33.0930 C.3   574  ADX574      0.2184
     14  O3'       20.2230   94.1550   32.1340 O.3   574  ADX574     -0.2174
     15  C2'       21.4500   93.8660   34.2240 C.3   574  ADX574      0.2570
     16  O2'       22.3820   94.7930   33.7040 O.3   574  ADX574     -0.2130
     17  C1'       20.3550   94.5680   34.9720 C.3   574  ADX574      0.3186
     18  N9        20.4410   94.6490   36.3990 N.pl3 574  ADX574     -0.1439
     19  C8        20.5880   93.6530   37.3220 C.3   574  ADX574      0.3377
     20  N7        20.5750   94.0060   38.5660 N.2   574  ADX574     -0.2095
     21  C5        20.4020   95.3550   38.4730 C.2   574  ADX574      0.2526
     22  C6        20.2730   96.3240   39.4780 C.2   574  ADX574      0.4393
     23  N6        20.2970   96.0390   40.7910 N.pl3 574  ADX574      0.2180
     24  N1        20.1070   97.5860   39.0150 N.2   574  ADX574      0.0021
     25  C2        20.0790   97.8390   37.6710 C.3   574  ADX574      0.5254
     26  N3        20.1790   97.0290   36.6220 N.2   574  ADX574     -0.0055
     27  C4        20.3400   95.7680   37.1320 C.2   574  ADX574      0.3518
@<TRIPOS>BOND
     1    14    13    1
     2     4     1    2
     3     2     1    2
     4     3     1    1
     5     1     8    1
     6    13    11    1
     7    13    15    1
     8    16    15    1
     9    11    12    1
    10    11    10    1
    11    15    17    1
    12     8     5    1
    13     9    10    1
    14     9     5    1
    15    12    17    1
    16    17    18    1
    17     6     5    2
    18     5     7    1
    19    18    27    1
    20    18    19    1
    21    26    27    2
    22    26    25    1
    23    27    21    1
    24    19    20    1
    25    25    24    1
    26    21    20    2
    27    21    22    1
    28    24    22    2
    29    22    23    1
