@<TRIPOS>MOLECULE
1i2e_2GP_A_1.pdb
 24 26 0 0 0
SMALL
GASTEIGER

@<TRIPOS>ATOM
      1  P         19.1640   19.6990   10.1350 P.3   106  2GP106      0.5327
      2  O1P       20.1980   20.2410   11.0520 O.3   106  2GP106     -0.1145
      3  O2P       18.0580   20.6270    9.8860 O.2   106  2GP106     -0.2224
      4  O3P       18.7330   18.3230   10.4260 O.3   106  2GP106     -0.1145
      5  O5'       25.3380   19.4080    8.8000 O.3   106  2GP106     -0.2176
      6  C5'       24.3460   18.5190    8.2670 C.3   106  2GP106      0.2142
      7  C4'       23.3100   19.3140    7.4530 C.3   106  2GP106      0.1827
      8  O4'       22.5150   18.3960    6.6840 O.3   106  2GP106     -0.3326
      9  C3'       22.3060   20.0800    8.3080 C.3   106  2GP106      0.2132
     10  O3'       21.9360   21.2570    7.5330 O.3   106  2GP106     -0.2176
     11  C2'       21.1670   19.0610    8.4680 C.3   106  2GP106      0.2054
     12  O2'       19.8620   19.6430    8.6940 O.3   106  2GP106     -0.2657
     13  C1'       21.1380   18.4100    7.1190 C.3   106  2GP106      0.2266
     14  N9        20.7020   16.9850    7.0330 N.pl3 106  2GP106     -0.2354
     15  C8        19.9490   16.4850    6.0030 C.3   106  2GP106      0.2246
     16  N7        19.8340   15.1860    6.0040 N.2   106  2GP106     -0.2322
     17  C5        20.5580   14.7950    7.1160 C.2   106  2GP106      0.2182
     18  C6        20.8140   13.5020    7.5960 C.1   106  2GP106      0.2372
     19  O6        20.4380   12.4810    7.0350 O.2   106  2GP106     -0.2069
     20  N1        21.5940   13.4790    8.7400 N.2   106  2GP106     -0.2485
     21  C2        22.0900   14.6030    9.3620 C.1   106  2GP106      0.2531
     22  N2        22.7980   14.4090   10.4740 N.pl3 106  2GP106     -0.0226
     23  N3        21.8610   15.8340    8.8970 N.2   106  2GP106     -0.3074
     24  C4        21.0920   15.8660    7.7770 C.2   106  2GP106      0.2300
@<TRIPOS>BOND
     1    15    16    1
     2    15    14    1
     3    16    17    2
     4     8    13    1
     5     8     7    1
     6    14    13    1
     7    14    24    1
     8    19    18    2
     9    17    18    1
    10    17    24    1
    11    13    11    1
    12     7     6    1
    13     7     9    1
    14    10     9    1
    15    18    20    2
    16    24    23    2
    17     6     5    1
    18     9    11    1
    19    11    12    1
    20    12     1    1
    21    20    21    2
    22    23    21    2
    23    21    22    1
    24     3     1    2
    25     1     4    1
    26     1     2    1
