@<TRIPOS>MOLECULE
1i2f_2GP_A_1.pdb
 24 26 0 0 0
SMALL
GASTEIGER

@<TRIPOS>ATOM
      1  P         17.8440   12.2900   10.8350 P.3   105  2GP105      0.5327
      2  O1P       19.0230   13.1470   11.1690 O.3   105  2GP105     -0.1145
      3  O2P       17.4790   11.3240   11.8960 O.3   105  2GP105     -0.1145
      4  O3P       16.6990   12.9660   10.1770 O.2   105  2GP105     -0.2224
      5  O5'       22.4480   10.3300   11.1090 O.3   105  2GP105     -0.2176
      6  C5'       22.9460   10.5960    9.7820 C.3   105  2GP105      0.2142
      7  C4'       21.8680   10.7350    8.6580 C.3   105  2GP105      0.1827
      8  O4'       21.1390    9.4960    8.3790 O.3   105  2GP105     -0.3326
      9  C3'       20.7980   11.6860    9.1030 C.3   105  2GP105      0.2132
     10  O3'       20.3890   12.3460    7.9100 O.3   105  2GP105     -0.2176
     11  C2'       19.7040   10.7630    9.6960 C.3   105  2GP105      0.2054
     12  O2'       18.3890   11.3390    9.6460 O.3   105  2GP105     -0.2657
     13  C1'       19.7260    9.6420    8.7090 C.3   105  2GP105      0.2266
     14  N9        19.2800    8.3360    9.2500 N.pl3 105  2GP105     -0.2354
     15  C8        18.5050    7.4240    8.5750 C.3   105  2GP105      0.2246
     16  N7        18.4210    6.2640    9.1680 N.2   105  2GP105     -0.2322
     17  C5        19.1910    6.4040   10.3350 C.2   105  2GP105      0.2182
     18  C6        19.4960    5.4460   11.3430 C.1   105  2GP105      0.2372
     19  O6        19.1720    4.2650   11.3240 O.2   105  2GP105     -0.2069
     20  N1        20.3020    5.9630   12.3340 N.2   105  2GP105     -0.2485
     21  C2        20.7880    7.2680   12.3660 C.1   105  2GP105      0.2531
     22  N2        21.5430    7.6020   13.4250 N.pl3 105  2GP105     -0.0226
     23  N3        20.5180    8.1790   11.3990 N.2   105  2GP105     -0.3074
     24  C4        19.7180    7.6830   10.4180 C.2   105  2GP105      0.2300
@<TRIPOS>BOND
     1    10     9    1
     2     8     7    1
     3     8    13    1
     4    15    16    1
     5    15    14    1
     6     7     9    1
     7     7     6    1
     8    13    14    1
     9    13    11    1
    10     9    11    1
    11    16    17    2
    12    14    24    1
    13    12    11    1
    14    12     1    1
    15     6     5    1
    16     4     1    2
    17    17    24    1
    18    17    18    1
    19    24    23    2
    20     1     2    1
    21     1     3    1
    22    19    18    2
    23    18    20    2
    24    23    21    2
    25    20    21    2
    26    21    22    1
