@<TRIPOS>MOLECULE
1i2g_2GP_A_1.pdb
 24 26 0 0 0
SMALL
GASTEIGER

@<TRIPOS>ATOM
      1  P         17.9030   12.2640   10.8040 P.3   105  2GP105      0.5327
      2  O1P       19.0420   13.1800   11.1090 O.3   105  2GP105     -0.1145
      3  O2P       17.6080   11.2770   11.8700 O.3   105  2GP105     -0.1145
      4  O3P       16.7220   12.9270   10.1980 O.2   105  2GP105     -0.2224
      5  O5'       22.4660   10.3280   10.9900 O.3   105  2GP105     -0.2176
      6  C5'       22.9780   10.5330    9.6610 C.3   105  2GP105      0.2142
      7  C4'       21.8940   10.7030    8.5830 C.3   105  2GP105      0.1827
      8  O4'       21.1680    9.4820    8.3100 O.3   105  2GP105     -0.3326
      9  C3'       20.8460   11.6910    9.0540 C.3   105  2GP105      0.2132
     10  O3'       20.4440   12.4030    7.8660 O.3   105  2GP105     -0.2176
     11  C2'       19.7450   10.7770    9.6360 C.3   105  2GP105      0.2054
     12  O2'       18.4360   11.3510    9.5800 O.3   105  2GP105     -0.2657
     13  C1'       19.7640    9.6600    8.6580 C.3   105  2GP105      0.2266
     14  N9        19.3030    8.3760    9.2040 N.pl3 105  2GP105     -0.2354
     15  C8        18.5260    7.4660    8.5410 C.3   105  2GP105      0.2246
     16  N7        18.4510    6.3190    9.1390 N.2   105  2GP105     -0.2322
     17  C5        19.2240    6.4800   10.2840 C.2   105  2GP105      0.2182
     18  C6        19.5330    5.5530   11.2880 C.1   105  2GP105      0.2372
     19  O6        19.1740    4.3920   11.3040 O.2   105  2GP105     -0.2069
     20  N1        20.3490    6.0640   12.2670 N.2   105  2GP105     -0.2485
     21  C2        20.8340    7.3540   12.2860 C.1   105  2GP105      0.2531
     22  N2        21.5830    7.6730   13.3440 N.pl3 105  2GP105     -0.0226
     23  N3        20.5580    8.2510   11.3260 N.2   105  2GP105     -0.3074
     24  C4        19.7470    7.7390   10.3570 C.2   105  2GP105      0.2300
@<TRIPOS>BOND
     1    10     9    1
     2     8     7    1
     3     8    13    1
     4    15    16    1
     5    15    14    1
     6     7     9    1
     7     7     6    1
     8    13    14    1
     9    13    11    1
    10     9    11    1
    11    16    17    2
    12    14    24    1
    13    12    11    1
    14    12     1    1
    15     6     5    1
    16     4     1    2
    17    17    24    1
    18    17    18    1
    19    24    23    2
    20     1     2    1
    21     1     3    1
    22    18    19    2
    23    18    20    2
    24    23    21    2
    25    20    21    2
    26    21    22    1
