@<TRIPOS>MOLECULE
1i2k_PLP_A_1.pdb
 15 15 0 0 0
SMALL
GASTEIGER

@<TRIPOS>ATOM
      1  N1        15.5340   13.0230   23.1600 N.ar  301  PLP301     -0.2452
      2  C2        15.6680   11.9900   22.2480 C.ar  301  PLP301      0.0978
      3  C2A       15.3970   10.5860   22.6920 C.3   301  PLP301      0.0555
      4  C3        16.0600   12.3950   20.9880 C.ar  301  PLP301      0.2049
      5  O3        16.1070   11.4020   20.0190 O.3   301  PLP301     -0.2857
      6  C4        16.2800   13.7210   20.6330 C.ar  301  PLP301      0.0182
      7  C4A       16.8010   13.9720   19.2440 C.3   301  PLP301      0.0342
      8  C5        16.1280   14.6990   21.6260 C.ar  301  PLP301      0.0261
      9  C6        15.7520   14.3600   22.9120 C.ar  301  PLP301      0.0965
     10  C5A       16.2480   16.1570   21.3640 C.3   301  PLP301      0.1815
     11  O4P       17.5030   16.4070   20.6330 O.3   301  PLP301     -0.2653
     12  P         17.7500   17.8260   19.9830 P.3   301  PLP301      0.5329
     13  O1P       16.7880   17.7300   18.8510 O.2   301  PLP301     -0.2224
     14  O2P       19.1960   17.7470   19.5840 O.3   301  PLP301     -0.1145
     15  O3P       17.4220   19.0130   20.8130 O.3   301  PLP301     -0.1145
@<TRIPOS>BOND
     1    13    12    2
     2     7     6    1
     3    14    12    1
     4    12    11    1
     5    12    15    1
     6     5     4    1
     7     6     4   ar
     8     6     8   ar
     9    11    10    1
    10     4     2   ar
    11    10     8    1
    12     8     9   ar
    13     2     3    1
    14     2     1   ar
    15     9     1   ar
