@<TRIPOS>MOLECULE
1i2l_DCS_A_1.pdb
 22 23 0 0 0
SMALL
GASTEIGER

@<TRIPOS>ATOM
      1  N1        15.3250   12.7850   22.9870 N.ar  301  DCS301     -0.2452
      2  C2        15.0590   11.8370   22.0010 C.ar  301  DCS301      0.0981
      3  C2A       14.8010   10.4070   22.3900 C.3   301  DCS301      0.0555
      4  C3        15.0470   12.3000   20.6260 C.ar  301  DCS301      0.2103
      5  O3        14.7880   11.3590   19.7020 O.3   301  DCS301     -0.2853
      6  C4        15.2990   13.6640   20.3240 C.ar  301  DCS301      0.0587
      7  C4A       15.3000   14.1950   18.9470 C.2   301  DCS301      0.0975
      8  C5        15.5680   14.5570   21.4410 C.ar  301  DCS301      0.0316
      9  C6        15.5780   14.1140   22.7460 C.ar  301  DCS301      0.0968
     10  C5A       15.8590   16.0360   21.1390 C.3   301  DCS301      0.1819
     11  O4P       17.0540   16.5050   20.5220 O.3   301  DCS301     -0.2653
     12  P         17.1380   17.7970   19.5800 P.3   301  DCS301      0.5329
     13  O1P       16.2370   17.5760   18.4350 O.2   301  DCS301     -0.2224
     14  O2P       18.5840   17.7750   19.0740 O.3   301  DCS301     -0.1145
     15  O3P       16.8590   18.9570   20.4100 O.3   301  DCS301     -0.1145
     16  N         14.2730   14.1450   18.1360 N.2   301  DCS301     -0.2502
     17  CA        14.2830   14.7600   16.7270 C.3   301  DCS301      0.2576
     18  C         13.5920   13.6130   16.2840 C.1   301  DCS301      0.1912
     19  O         13.8320   12.3460   16.1040 O.2   301  DCS301     -0.2218
     20  ND        12.3770   13.9780   15.9720 N.2   301  DCS301     -0.0076
     21  OG        12.2650   15.3880   16.2090 O.2   301  DCS301     -0.3659
     22  CB        13.4500   15.8780   16.6780 C.3   301  DCS301      0.2804
@<TRIPOS>BOND
     1    20    21    1
     2    20    18    2
     3    19    18    2
     4    21    22    1
     5    18    17    1
     6    22    17    1
     7    17    16    1
     8    16     7    2
     9    13    12    2
    10     7     6    1
    11    14    12    1
    12    12    15    1
    13    12    11    1
    14     5     4    1
    15     6     4   ar
    16     6     8   ar
    17    11    10    1
    18     4     2   ar
    19    10     8    1
    20     8     9   ar
    21     2     3    1
    22     2     1   ar
    23     9     1   ar
