@<TRIPOS>MOLECULE
1i2s_CIT_A_1.pdb
 13 12 0 0 0
SMALL
GASTEIGER

@<TRIPOS>ATOM
      1  C1        24.9790   -4.7030   12.9270 C.2   1300  CIT1300     0.3680
      2  O1        23.8350   -4.3210   13.6680 O.co2 1300  CIT1300    -0.2455
      3  O2        25.5880   -3.8930   12.1800 O.co2 1300  CIT1300    -0.2455
      4  C2        25.3520   -6.2090   13.1670 C.3   1300  CIT1300     0.1560
      5  C3        26.2260   -6.3710   14.4710 C.3   1300  CIT1300     0.2402
      6  O7        27.4960   -5.7060   14.2300 O.3   1300  CIT1300    -0.2129
      7  C4        26.4080   -7.9180   14.7860 C.3   1300  CIT1300     0.1560
      8  C5        27.0150   -8.1090   16.2380 C.2   1300  CIT1300     0.3680
      9  O3        27.4180   -7.1790   17.0030 O.co2 1300  CIT1300    -0.2455
     10  O4        27.0780   -9.4750   16.6260 O.co2 1300  CIT1300    -0.2455
     11  C6        25.5230   -5.6980   15.7250 C.2   1300  CIT1300     0.3927
     12  O5        25.9130   -4.6430   16.2870 O.co2 1300  CIT1300    -0.2429
     13  O6        24.3840   -6.4300   16.1620 O.co2 1300  CIT1300    -0.2429
@<TRIPOS>BOND
     1     3     1   ar
     2     1     4    1
     3     1     2   ar
     4     4     5    1
     5     6     5    1
     6     5     7    1
     7     5    11    1
     8     7     8    1
     9    11    13   ar
    10    11    12   ar
    11     8    10   ar
    12     8     9   ar
