@<TRIPOS>MOLECULE
1i2w_CFX_A_1.pdb
 24 25 0 0 0
SMALL
GASTEIGER

@<TRIPOS>ATOM
      1  C4        24.1920   -2.4940   13.5840 C.2   1300  CFX1300     0.2580
      2  O5        25.0990   -1.9230   14.1650 O.2   1300  CFX1300    -0.2837
      3  N1        24.8690   -5.3790   13.5480 N.2   1300  CFX1300    -0.2543
      4  C2        25.2770   -4.4690   12.5180 C.3   1300  CFX1300     0.2018
      5  S8        26.9590   -4.0340   12.8150 S.3   1300  CFX1300    -0.1121
      6  C9        27.8900   -5.3980   13.3630 C.3   1300  CFX1300     0.0656
      7  C10       27.0870   -6.0180   14.3980 C.3   1300  CFX1300     0.0574
      8  C11       25.7580   -5.8170   14.5500 C.2   1300  CFX1300     0.1346
      9  C15       27.8640   -6.8900   15.3180 C.3   1300  CFX1300     0.0074
     10  C12       25.1200   -6.0300   15.9410 C.2   1300  CFX1300     0.4007
     11  O13       24.3270   -6.9890   16.1120 O.co2 1300  CFX1300    -0.2392
     12  O14       25.5120   -5.2410   16.8380 O.co2 1300  CFX1300    -0.2392
     13  C3        24.2930   -3.2970   12.2990 C.3   1300  CFX1300     0.2602
     14  O16       22.9840   -3.7890   12.1220 O.3   1300  CFX1300    -0.3291
     15  C17       22.7840   -4.7110   11.0670 C.3   1300  CFX1300     0.1765
     16  N18       24.6780   -2.4220   11.1870 N.am  1300  CFX1300    -0.1717
     17  C19       24.4340   -1.0600   11.1660 C.2   1300  CFX1300     0.2487
     18  O21       23.6610   -0.5350   11.9660 O.2   1300  CFX1300    -0.2729
     19  C20       25.1500   -0.2190   10.0910 C.3   1300  CFX1300     0.1197
     20  C23       26.1470   -0.9440    9.2980 C.ar  1300  CFX1300     0.0165
     21  S24       25.9100   -1.2450    7.6580 S.2   1300  CFX1300    -0.0903
     22  C25       27.3970   -1.9700    7.4480 C.ar  1300  CFX1300     0.0351
     23  C26       28.1080   -2.0070    8.6280 C.ar  1300  CFX1300     0.0072
     24  C27       27.3760   -1.4110    9.7080 C.ar  1300  CFX1300     0.0032
@<TRIPOS>BOND
     1    22    21   ar
     2    22    23   ar
     3    21    20   ar
     4    23    24   ar
     5    20    24   ar
     6    20    19    1
     7    19    17    1
     8    15    14    1
     9    17    16   am
    10    17    18    2
    11    16    13    1
    12    14    13    1
    13    13     4    1
    14    13     1    1
    15     4     5    1
    16     4     3    1
    17     5     6    1
    18     6     7    1
    19     3     8    2
    20     1     2    2
    21     7     8    1
    22     7     9    1
    23     8    10    1
    24    10    11   ar
    25    10    12   ar
