@<TRIPOS>MOLECULE
1i2z_NAD_A_1.pdb
 44 48 0 0 0
SMALL
GASTEIGER

@<TRIPOS>ATOM
      1  PA         6.3790   16.0870  134.9880 P.3   501  NAD501      0.2189
      2  O1A        5.2240   15.1950  134.6800 O.2   501  NAD501     -0.5170
      3  O2A        7.7750   15.6630  134.7770 O.3   501  NAD501     -0.4371
      4  O5B        6.4830   16.6960  136.4750 O.3   501  NAD501     -0.3112
      5  C5B        5.3860   17.0970  137.3400 C.3   501  NAD501      0.1813
      6  C4B        5.8430   16.5780  138.7040 C.3   501  NAD501      0.1821
      7  O4B        4.9950   16.8670  139.8400 O.3   501  NAD501     -0.3135
      8  C3B        5.9150   15.0720  138.5120 C.3   501  NAD501      0.2184
      9  O3B        7.2310   14.4980  138.6360 O.3   501  NAD501     -0.2174
     10  C2B        4.8650   14.6020  139.4990 C.3   501  NAD501      0.2570
     11  O2B        5.3350   13.3050  139.8720 O.3   501  NAD501     -0.2130
     12  C1B        5.0090   15.6480  140.5820 C.3   501  NAD501      0.3186
     13  N9A        3.9210   15.5630  141.5600 N.pl3 501  NAD501     -0.1439
     14  C8A        2.6230   15.8170  141.3330 C.3   501  NAD501      0.3377
     15  N7A        1.9320   15.6550  142.4660 N.2   501  NAD501     -0.2095
     16  C5A        2.8210   15.2650  143.3870 C.2   501  NAD501      0.2526
     17  C6A        2.5990   15.2530  144.7780 C.2   501  NAD501      0.4393
     18  N6A        1.3940   15.0960  145.3180 N.pl3 501  NAD501      0.2180
     19  N1A        3.7140   15.2570  145.5390 N.2   501  NAD501      0.0021
     20  C2A        4.9500   15.1810  145.0050 C.3   501  NAD501      0.5254
     21  N3A        5.1500   15.1210  143.6810 N.2   501  NAD501     -0.0055
     22  C4A        4.0900   15.2200  142.8360 C.2   501  NAD501      0.3518
     23  O3         6.1760   17.4050  134.1460 O.3   501  NAD501     -0.2703
     24  PN         6.9230   18.7920  134.1940 P.3   501  NAD501      0.2189
     25  O1N        6.3970   19.3290  132.9420 O.2   501  NAD501     -0.5170
     26  O2N        8.3740   18.6860  134.3940 O.3   501  NAD501     -0.4371
     27  O5D        6.3580   19.7170  135.3460 O.3   501  NAD501     -0.3112
     28  C5D        7.3240   20.4650  136.0840 C.3   501  NAD501      0.1813
     29  C4D        6.7260   21.7680  136.5500 C.3   501  NAD501      0.1799
     30  O4D        7.0960   22.7820  135.6150 O.3   501  NAD501     -0.3327
     31  C3D        5.2150   21.7850  136.6450 C.3   501  NAD501      0.2158
     32  O3D        4.8430   22.5190  137.8040 O.3   501  NAD501     -0.2175
     33  C2D        4.7930   22.5560  135.4480 C.3   501  NAD501      0.2309
     34  O2D        3.6230   23.3210  135.6690 O.3   501  NAD501     -0.2158
     35  C1D        5.9200   23.4860  135.2560 C.3   501  NAD501      0.2263
     36  N1N        5.9450   23.9120  133.8510 N.pl3 501  NAD501     -0.2787
     37  C2N        5.6530   23.0060  132.8140 C.3   501  NAD501      0.1244
     38  C3N        5.5340   23.4780  131.5120 C.2   501  NAD501      0.0544
     39  C7N        5.7000   22.5390  130.3250 C.2   501  NAD501      0.2818
     40  O7N        5.8620   23.0750  129.2430 O.2   501  NAD501     -0.2670
     41  N7N        5.7120   21.2140  130.4660 N.am  501  NAD501     -0.0839
     42  C4N        5.6470   24.8510  131.2610 C.2   501  NAD501      0.0033
     43  C5N        5.9340   25.7500  132.2900 C.2   501  NAD501      0.0157
     44  C6N        6.1090   25.2820  133.5890 C.2   501  NAD501      0.0633
@<TRIPOS>BOND
     1    40    39    2
     2    39    41   am
     3    39    38    1
     4    42    38    2
     5    42    43    1
     6    38    37    1
     7    43    44    2
     8    37    36    1
     9    25    24    2
    10    44    36    1
    11    36    35    1
    12    23    24    1
    13    23     1    1
    14    24    26    1
    15    24    27    1
    16     2     1    2
    17     3     1    1
    18     1     4    1
    19    35    33    1
    20    35    30    1
    21    27    28    1
    22    33    34    1
    23    33    31    1
    24    30    29    1
    25    28    29    1
    26     4     5    1
    27    29    31    1
    28    31    32    1
    29     5     6    1
    30     8     9    1
    31     8     6    1
    32     8    10    1
    33     6     7    1
    34    10    11    1
    35    10    12    1
    36     7    12    1
    37    12    13    1
    38    14    13    1
    39    14    15    1
    40    13    22    1
    41    15    16    2
    42    22    16    1
    43    22    21    2
    44    16    17    1
    45    21    20    1
    46    17    18    1
    47    17    19    2
    48    20    19    1
