@<TRIPOS>MOLECULE
1i2z_654_A_1.pdb
 18 20 0 0 0
SMALL
GASTEIGER

@<TRIPOS>ATOM
      1  S1T        1.6350   21.5620  129.5930 S.2   502  654502     -0.0852
      2  C2T        1.6990   22.7440  130.8520 C.ar  502  654502      0.0440
      3  C3T        1.9060   24.0240  130.3560 C.ar  502  654502      0.0082
      4  C4T        2.0530   24.0230  128.9520 C.ar  502  654502      0.0075
      5  C5T        1.8860   22.7930  128.4150 C.ar  502  654502      0.0355
      6  C1I        1.5370   22.4100  132.2280 C.2   502  654502      0.0775
      7  N2I        1.5150   23.2440  133.2760 N.2   502  654502     -0.2547
      8  C3I        1.3960   21.1180  132.6680 C.3   502  654502      0.1205
      9  N4I        1.2950   21.2470  133.9720 N.3   502  654502     -0.2428
     10  C5I        1.3680   22.5130  134.3370 C.3   502  654502      0.2011
     11  C1         1.1950   20.1240  134.8570 C.3   502  654502      0.1010
     12  C2        -0.1860   19.5310  134.7830 C.ar  502  654502     -0.0061
     13  C3        -0.3820   18.2570  135.2450 C.ar  502  654502     -0.0032
     14  C4        -1.6540   17.7200  135.1830 C.ar  502  654502     -0.0045
     15  C5        -1.2120   20.2910  134.2650 C.ar  502  654502     -0.0032
     16  C6        -2.4800   19.7650  134.1910 C.ar  502  654502     -0.0045
     17  C7        -2.6960   18.4770  134.6480 C.ar  502  654502     -0.0219
     18  C8        -4.0750   17.8960  134.5050 C.3   502  654502      0.0310
@<TRIPOS>BOND
     1     5     4   ar
     2     5     1   ar
     3     4     3   ar
     4     1     2   ar
     5     3     2   ar
     6     2     6    1
     7     6     8    1
     8     6     7    2
     9     8     9    1
    10     7    10    1
    11     9    10    1
    12     9    11    1
    13    16    15   ar
    14    16    17   ar
    15    15    12   ar
    16    18    17    1
    17    17    14   ar
    18    12    11    1
    19    12    13   ar
    20    14    13   ar
