@<TRIPOS>MOLECULE
1i30_NAD_A_1.pdb
 44 48 0 0 0
SMALL
GASTEIGER

@<TRIPOS>ATOM
      1  PA         6.9840   15.8430  136.3200 P.3   301  NAD301      0.2189
      2  O1A        5.7810   14.9560  136.3510 O.3   301  NAD301     -0.4371
      3  O2A        8.1920   15.3090  135.6210 O.2   301  NAD301     -0.5170
      4  O5B        7.4360   16.2410  137.8460 O.3   301  NAD301     -0.3112
      5  C5B        6.5380   16.7170  138.8730 C.3   301  NAD301      0.1813
      6  C4B        6.6360   15.8830  140.1490 C.3   301  NAD301      0.1821
      7  O4B        5.4340   16.0810  140.9150 O.3   301  NAD301     -0.3135
      8  C3B        6.6560   14.3600  140.0070 C.3   301  NAD301      0.2184
      9  O3B        7.9660   13.8190  139.7900 O.3   301  NAD301     -0.2174
     10  C2B        6.0030   13.8500  141.3030 C.3   301  NAD301      0.2570
     11  O2B        6.8270   12.9220  142.0030 O.3   301  NAD301     -0.2130
     12  C1B        5.7310   15.1870  142.0040 C.3   301  NAD301      0.3186
     13  N9A        4.5890   15.1180  143.0060 N.pl3 301  NAD301     -0.1439
     14  C8A        3.2470   15.1430  142.7780 C.3   301  NAD301      0.3377
     15  N7A        2.5660   15.0480  143.9240 N.2   301  NAD301     -0.2095
     16  C5A        3.5180   14.9640  144.8440 C.2   301  NAD301      0.2526
     17  C6A        3.3100   14.8400  146.2340 C.2   301  NAD301      0.4393
     18  N6A        2.0720   14.7940  146.7100 N.pl3 301  NAD301      0.2180
     19  N1A        4.4410   14.7660  147.0430 N.2   301  NAD301      0.0021
     20  C2A        5.7020   14.8120  146.5220 C.3   301  NAD301      0.5254
     21  N3A        5.9000   14.9280  145.1690 N.2   301  NAD301     -0.0055
     22  C4A        4.8020   15.0050  144.3180 C.2   301  NAD301      0.3518
     23  O3         6.5880   17.2050  135.5580 O.3   301  NAD301     -0.2703
     24  PN         7.4230   18.5350  135.2750 P.3   301  NAD301      0.2189
     25  O1N        6.9980   19.1000  133.9760 O.2   301  NAD301     -0.5170
     26  O2N        8.8700   18.2540  135.5050 O.3   301  NAD301     -0.4371
     27  O5D        6.9130   19.5160  136.4500 O.3   301  NAD301     -0.3112
     28  C5D        7.7460   19.9880  137.5020 C.3   301  NAD301      0.1813
     29  C4D        7.3500   21.3890  137.8750 C.3   301  NAD301      0.1799
     30  O4D        7.6590   22.2700  136.7720 O.3   301  NAD301     -0.3327
     31  C3D        5.8580   21.6190  138.1360 C.3   301  NAD301      0.2158
     32  O3D        5.6740   22.5030  139.2270 O.3   301  NAD301     -0.2175
     33  C2D        5.3320   22.1920  136.8440 C.3   301  NAD301      0.2309
     34  O2D        4.1550   22.9310  137.1050 O.3   301  NAD301     -0.2158
     35  C1D        6.4810   23.0290  136.3850 C.3   301  NAD301      0.2263
     36  N1N        6.4870   23.3430  134.9290 N.pl3 301  NAD301     -0.2787
     37  C2N        6.2740   22.3540  133.8920 C.3   301  NAD301      0.1244
     38  C3N        6.3170   22.7530  132.5210 C.2   301  NAD301      0.0544
     39  C7N        6.0980   21.7500  131.3640 C.2   301  NAD301      0.2818
     40  O7N        5.6540   22.1230  130.2480 O.2   301  NAD301     -0.2670
     41  N7N        6.4050   20.4740  131.6300 N.am  301  NAD301     -0.0839
     42  C4N        6.5690   24.1060  132.2040 C.2   301  NAD301      0.0033
     43  C5N        6.7750   25.0530  133.2360 C.2   301  NAD301      0.0157
     44  C6N        6.7360   24.6890  134.5930 C.2   301  NAD301      0.0633
@<TRIPOS>BOND
     1    40    39    2
     2    39    41   am
     3    39    38    1
     4    42    38    2
     5    42    43    1
     6    38    37    1
     7    43    44    2
     8    37    36    1
     9    25    24    2
    10    44    36    1
    11    36    35    1
    12    24    26    1
    13    24    23    1
    14    24    27    1
    15    23     1    1
    16     3     1    2
    17     1     2    1
    18     1     4    1
    19    35    30    1
    20    35    33    1
    21    27    28    1
    22    30    29    1
    23    33    34    1
    24    33    31    1
    25    28    29    1
    26     4     5    1
    27    29    31    1
    28    31    32    1
    29     5     6    1
    30     9     8    1
    31     8     6    1
    32     8    10    1
    33     6     7    1
    34     7    12    1
    35    10    11    1
    36    10    12    1
    37    12    13    1
    38    14    13    1
    39    14    15    1
    40    13    22    1
    41    15    16    2
    42    22    16    1
    43    22    21    2
    44    16    17    1
    45    21    20    1
    46    17    18    1
    47    17    19    2
    48    20    19    1
