@<TRIPOS>MOLECULE
1i30_826_A_1.pdb
 10 10 0 0 0
SMALL
GASTEIGER

@<TRIPOS>ATOM
      1  O01        2.4180   22.8950  128.4420 O.3   302  826302     -0.2866
      2  C02        2.4720   22.8260  129.8310 C.ar  302  826302      0.1957
      3  C03        2.6390   24.0130  130.6140 C.ar  302  826302      0.0422
      4  C04        2.6950   23.9290  132.0400 C.ar  302  826302      0.0079
      5  C05        2.5790   22.6520  132.6790 C.ar  302  826302      0.0569
      6  C06        2.4100   21.4730  131.8950 C.ar  302  826302      0.0079
      7  C07        2.3590   21.5620  130.4730 C.ar  302  826302      0.0422
      8  C08        2.6330   22.5410  134.1730 C.2   302  826302      0.2842
      9  O09        2.8250   23.5740  134.8250 O.2   302  826302     -0.2667
     10  N10        2.4730   21.2820  134.7430 N.am  302  826302     -0.0837
@<TRIPOS>BOND
     1     1     2    1
     2     2     7   ar
     3     2     3   ar
     4     7     6   ar
     5     3     4   ar
     6     6     5   ar
     7     4     5   ar
     8     5     8    1
     9     8    10   am
    10     8     9    2
