@<TRIPOS>MOLECULE
1i32_NMD_A_1.pdb
 42 47 0 0 0
SMALL
GASTEIGER

@<TRIPOS>ATOM
      1  C5'       22.8230   79.7350   -1.1320 C.3   361  NMD361      0.2142
      2  C4'       23.9020   79.9230   -2.2110 C.3   361  NMD361      0.1842
      3  O4'       23.4310   80.6340   -3.3530 O.3   361  NMD361     -0.3141
      4  C3'       25.1290   80.6880   -1.7370 C.3   361  NMD361      0.2081
      5  O3'       26.3130   80.2440   -2.3960 O.3   361  NMD361     -0.2183
      6  C2'       24.7380   82.1400   -2.0340 C.3   361  NMD361      0.2010
      7  N2'       25.8600   83.0550   -2.2250 N.am  361  NMD361     -0.1937
      8  C1'       23.8610   81.9980   -3.2910 C.3   361  NMD361      0.3078
      9  N9A       22.7130   82.9000   -3.3940 N.pl3 361  NMD361     -0.1446
     10  C8A       22.0580   83.5870   -2.4020 C.3   361  NMD361      0.3377
     11  N7A       21.0540   84.3220   -2.8270 N.2   361  NMD361     -0.2097
     12  C5A       21.0360   84.1100   -4.1980 C.2   361  NMD361      0.2478
     13  C6A       20.2070   84.5980   -5.2650 C.2   361  NMD361      0.3858
     14  N6A       19.1690   85.4560   -5.1340 N.pl3 361  NMD361     -0.0249
     15  N1A       20.4860   84.1630   -6.5290 N.2   361  NMD361     -0.0020
     16  C2A       21.5070   83.3100   -6.7350 C.3   361  NMD361      0.5253
     17  N3A       22.3420   82.7950   -5.8200 N.2   361  NMD361     -0.0055
     18  C4A       22.0560   83.2320   -4.5660 C.2   361  NMD361      0.3516
     19  C11       18.6670   86.0570   -3.8940 C.3   361  NMD361      0.2778
     20  C1        19.0620   87.5020   -3.6200 C.ar  361  NMD361      0.0285
     21  C9        18.7150   88.1450   -2.3740 C.ar  361  NMD361      0.0000
     22  C8        17.9880   87.4810   -1.3330 C.ar  361  NMD361     -0.0002
     23  C7        17.6640   88.1460   -0.1160 C.ar  361  NMD361     -0.0000
     24  C6        18.0640   89.4950    0.0870 C.ar  361  NMD361     -0.0000
     25  C2        19.7870   88.2350   -4.6090 C.ar  361  NMD361     -0.0002
     26  C10       19.1190   89.5240   -2.1550 C.ar  361  NMD361     -0.0002
     27  C5        18.7880   90.1780   -0.9310 C.ar  361  NMD361     -0.0000
     28  C3        20.1760   89.5830   -4.3880 C.ar  361  NMD361     -0.0002
     29  C4        19.8420   90.2220   -3.1640 C.ar  361  NMD361     -0.0000
     30  C7B       26.1750   84.1240   -1.4490 C.2   361  NMD361      0.2652
     31  O7B       25.5440   84.3930   -0.4180 O.2   361  NMD361     -0.2684
     32  C6B       27.3140   84.9820   -1.8820 C.ar  361  NMD361      0.0611
     33  C5B       28.0180   84.6410   -3.0730 C.ar  361  NMD361      0.0417
     34  C4B       29.1100   85.4270   -3.5320 C.ar  361  NMD361      0.1419
     35  O2M       29.7380   85.0340   -4.6900 O.3   361  NMD361     -0.4713
     36  C2M       30.9480   84.2800   -4.5840 C.3   361  NMD361      0.2525
     37  C3B       29.4950   86.5760   -2.7770 C.ar  361  NMD361      0.0738
     38  C1B       27.7080   86.1340   -1.1320 C.ar  361  NMD361      0.0417
     39  C2B       28.8020   86.9440   -1.5730 C.ar  361  NMD361      0.1419
     40  O1M       29.1390   88.0440   -0.8080 O.3   361  NMD361     -0.4713
     41  C1M       29.4950   89.2710   -1.4590 C.3   361  NMD361      0.2525
     42  O5'       23.3320   78.9520   -0.0530 O.3   361  NMD361     -0.2176
@<TRIPOS>BOND
     1    16    15    1
     2    16    17    1
     3    15    13    2
     4    17    18    2
     5    13    14    1
     6    13    12    1
     7    14    19    1
     8    35    36    1
     9    35    34    1
    10    25    28   ar
    11    25    20   ar
    12    18    12    1
    13    18     9    1
    14    28    29   ar
    15    12    11    2
    16    19    20    1
    17    20    21   ar
    18    34    33   ar
    19    34    37   ar
    20     9     8    1
    21     9    10    1
    22     3     8    1
    23     3     2    1
    24     8     6    1
    25    29    26   ar
    26    33    32   ar
    27    11    10    1
    28    37    39   ar
    29     5     4    1
    30    21    26   ar
    31    21    22   ar
    32     7     6    1
    33     7    30   am
    34     2     4    1
    35     2     1    1
    36    26    27   ar
    37     6     4    1
    38    32    30    1
    39    32    38   ar
    40    39    38   ar
    41    39    40    1
    42    41    40    1
    43    30    31    2
    44    22    23   ar
    45     1    42    1
    46    27    24   ar
    47    23    24   ar
