@<TRIPOS>MOLECULE
1i33_TND_A_1.pdb
 41 46 0 0 0
SMALL
GASTEIGER

@<TRIPOS>ATOM
      1  C5'       23.0810   79.3270   -1.2230 C.3   361  TND361      0.2142
      2  C4'       23.8860   79.5970   -2.5110 C.3   361  TND361      0.1842
      3  O4'       23.1530   80.3810   -3.4770 O.3   361  TND361     -0.3141
      4  C3'       25.1990   80.3370   -2.2690 C.3   361  TND361      0.2081
      5  O3'       26.2470   79.8800   -3.1240 O.3   361  TND361     -0.2183
      6  C2'       24.7770   81.7890   -2.4730 C.3   361  TND361      0.2010
      7  N2'       25.8550   82.7590   -2.6710 N.am  361  TND361     -0.1937
      8  C1'       23.7800   81.6800   -3.6380 C.3   361  TND361      0.3078
      9  N9A       22.7600   82.7420   -3.7060 N.pl3 361  TND361     -0.1446
     10  C8A       22.2810   83.5390   -2.6910 C.3   361  TND361      0.3377
     11  N7A       21.3630   84.4030   -3.0660 N.2   361  TND361     -0.2097
     12  C5A       21.2100   84.1710   -4.4260 C.2   361  TND361      0.2478
     13  C6A       20.3650   84.7650   -5.4510 C.2   361  TND361      0.3860
     14  N6A       19.4650   85.7740   -5.2460 N.pl3 361  TND361     -0.0250
     15  N1A       20.4800   84.2700   -6.7330 N.2   361  TND361     -0.0020
     16  C2A       21.3630   83.2670   -6.9850 C.3   361  TND361      0.5253
     17  N3A       22.1930   82.6470   -6.1140 N.2   361  TND361     -0.0055
     18  C4A       22.0700   83.1430   -4.8460 C.2   361  TND361      0.3516
     19  C1        19.2930   86.5550   -4.0010 C.3   361  TND361      0.2488
     20  C9        19.3880   88.0770   -4.2170 C.ar  361  TND361      0.0246
     21  C8        19.9150   88.6680   -5.5020 C.ar  361  TND361     -0.0003
     22  C7        19.9820   90.1610   -5.6520 C.ar  361  TND361     -0.0002
     23  C6        19.5290   91.0590   -4.5330 C.ar  361  TND361     -0.0003
     24  C2        17.9800   86.1370   -3.2640 C.2   361  TND361      0.0243
     25  C10       18.9330   88.9750   -3.0990 C.ar  361  TND361     -0.0176
     26  C5        19.0020   90.4740   -3.2500 C.ar  361  TND361     -0.0041
     27  C3        17.4980   87.0940   -2.1020 C.2   361  TND361     -0.0216
     28  C4        18.3980   88.3360   -1.8060 C.3   361  TND361      0.0519
     29  C7B       26.2490   83.6630   -1.7220 C.2   361  TND361      0.2652
     30  O7B       25.7060   83.7060   -0.6060 O.2   361  TND361     -0.2684
     31  C6B       27.3150   84.6520   -2.0640 C.ar  361  TND361      0.0611
     32  C5B       28.2510   84.3590   -3.1130 C.ar  361  TND361      0.0417
     33  C4B       29.2920   85.3010   -3.4640 C.ar  361  TND361      0.1419
     34  O2M       30.1950   84.9930   -4.4830 O.3   361  TND361     -0.4713
     35  C2M       30.1030   83.7500   -5.2050 C.3   361  TND361      0.2525
     36  C3B       29.3620   86.5390   -2.7370 C.ar  361  TND361      0.0738
     37  C1B       27.4060   85.8980   -1.3460 C.ar  361  TND361      0.0417
     38  C2B       28.4230   86.8530   -1.6720 C.ar  361  TND361      0.1419
     39  O1M       28.4350   88.0290   -0.9310 O.3   361  TND361     -0.4713
     40  C1M       29.3370   89.1010   -1.2810 C.3   361  TND361      0.2525
     41  O5'       23.9470   78.8510   -0.1820 O.3   361  TND361     -0.2176
@<TRIPOS>BOND
     1    16    15    1
     2    16    17    1
     3    15    13    2
     4    17    18    2
     5    22    21   ar
     6    22    23   ar
     7    21    20   ar
     8    13    14    1
     9    13    12    1
    10    14    19    1
    11    35    34    1
    12    18    12    1
    13    18     9    1
    14    23    26   ar
    15    34    33    1
    16    12    11    2
    17    20    19    1
    18    20    25   ar
    19    19    24    1
    20     9     8    1
    21     9    10    1
    22     8     3    1
    23     8     6    1
    24     3     2    1
    25    33    32   ar
    26    33    36   ar
    27    24    27    2
    28    26    25   ar
    29     5     4    1
    30    32    31   ar
    31    25    28    1
    32    11    10    1
    33    36    38   ar
    34     7     6    1
    35     7    29   am
    36     2     4    1
    37     2     1    1
    38     6     4    1
    39    27    28    1
    40    31    29    1
    41    31    37   ar
    42    29    30    2
    43    38    37   ar
    44    38    39    1
    45    40    39    1
    46     1    41    1
