@<TRIPOS>MOLECULE
1i36_NAP_A_1.pdb
 48 53 0 0 0
SMALL
GASTEIGER

@<TRIPOS>ATOM
      1  PA        56.2380   34.3610   54.3060 P.3   1350  NAP1350     0.2190
      2  O1A       55.6900   34.2240   55.6430 O.3   1350  NAP1350    -0.4371
      3  O2A       55.9470   33.7950   53.0050 O.2   1350  NAP1350    -0.5170
      4  O5B       57.0040   35.8350   54.1300 O.3   1350  NAP1350    -0.3085
      5  C5B       57.1310   36.9870   55.1530 C.3   1350  NAP1350     0.2077
      6  C4B       58.5640   37.2080   55.0130 C.3   1350  NAP1350     0.2468
      7  O4B       58.6230   38.4760   56.0180 O.3   1350  NAP1350    -0.2911
      8  C3B       59.4920   36.7700   55.7060 C.3   1350  NAP1350     0.2056
      9  O3B       60.0250   36.5310   54.4720 O.3   1350  NAP1350    -0.3249
     10  C2B       60.5390   37.1550   56.6750 C.3   1350  NAP1350     0.2308
     11  O2B       61.7980   37.1750   56.6750 O.3   1350  NAP1350    -0.2631
     12  C1B       59.9210   38.4190   56.7170 C.3   1350  NAP1350     0.3175
     13  N9A       59.8450   38.9520   58.0920 N.pl3 1350  NAP1350    -0.1439
     14  C8A       59.4710   38.4960   59.3600 C.3   1350  NAP1350     0.3377
     15  N7A       59.6780   39.4070   60.2850 N.2   1350  NAP1350    -0.2095
     16  C5A       60.1970   40.5040   59.6250 C.2   1350  NAP1350     0.2526
     17  C6A       60.6280   41.7990   60.0630 C.2   1350  NAP1350     0.4393
     18  N6A       60.5810   42.1630   61.3460 N.pl3 1350  NAP1350     0.2180
     19  N1A       61.1100   42.6850   59.1090 N.2   1350  NAP1350     0.0021
     20  C2A       61.1730   42.3280   57.7940 C.3   1350  NAP1350     0.5254
     21  N3A       60.7920   41.1280   57.3120 N.2   1350  NAP1350    -0.0055
     22  C4A       60.3010   40.2550   58.2900 C.2   1350  NAP1350     0.3518
     23  O3        54.7490   35.1090   54.2170 O.3   1350  NAP1350    -0.2703
     24  PN        53.6820   35.4930   52.9510 P.3   1350  NAP1350     0.2189
     25  O1N       52.9170   34.2550   52.5810 O.3   1350  NAP1350    -0.4371
     26  O2N       54.5660   36.1070   51.9540 O.2   1350  NAP1350    -0.5170
     27  O5D       52.6460   36.6120   53.3760 O.3   1350  NAP1350    -0.3112
     28  C5D       53.0780   37.9440   53.7540 C.3   1350  NAP1350     0.1813
     29  C4D       51.8860   38.6810   54.3370 C.3   1350  NAP1350     0.1799
     30  O4D       50.6960   38.7520   53.4950 O.3   1350  NAP1350    -0.3327
     31  C3D       51.3600   38.0960   55.6720 C.3   1350  NAP1350     0.2158
     32  O3D       50.9590   39.0830   56.6750 O.3   1350  NAP1350    -0.2175
     33  C2D       50.2050   37.2290   55.2990 C.3   1350  NAP1350     0.2309
     34  O2D       49.2840   37.0480   56.3350 O.3   1350  NAP1350    -0.2158
     35  C1D       49.6420   37.9700   54.0660 C.3   1350  NAP1350     0.2263
     36  N1N       48.9160   37.1080   53.1190 N.pl3 1350  NAP1350    -0.2787
     37  C2N       49.5680   36.0330   52.5000 C.3   1350  NAP1350     0.1244
     38  C3N       48.7730   35.2640   51.5850 C.2   1350  NAP1350     0.0544
     39  C7N       49.3230   34.1240   50.8690 C.2   1350  NAP1350     0.2818
     40  O7N       48.6220   33.4730   50.0720 O.2   1350  NAP1350    -0.2670
     41  N7N       50.6120   33.7300   51.0340 N.am  1350  NAP1350    -0.0839
     42  C4N       47.4250   35.6230   51.3640 C.2   1350  NAP1350     0.0033
     43  C5N       46.8180   36.6650   51.9780 C.2   1350  NAP1350     0.0157
     44  C6N       47.5640   37.4100   52.8530 C.2   1350  NAP1350     0.0633
     45  P2B       62.4540   35.8060   57.3550 P.3   1350  NAP1350     0.5328
     46  O1X       62.2600   34.6360   56.4330 O.2   1350  NAP1350    -0.2224
     47  O2X       63.8210   36.2380   57.4640 O.3   1350  NAP1350    -0.1145
     48  O3X       61.7210   35.5770   58.5830 O.3   1350  NAP1350    -0.1145
@<TRIPOS>BOND
     1    40    39    2
     2    39    41   am
     3    39    38    1
     4    42    38    2
     5    42    43    1
     6    38    37    1
     7    26    24    2
     8    43    44    2
     9    37    36    1
    10    25    24    1
    11    44    36    1
    12    24    27    1
    13    24    23    1
    14     3     1    2
    15    36    35    1
    16    27    28    1
    17    30    35    1
    18    30    29    1
    19    28    29    1
    20    35    33    1
    21     4     1    1
    22     4     5    1
    23    23     1    1
    24     1     2    1
    25    29    31    1
    26     9     6    1
    27     9     8    1
    28     6     5    1
    29     6     8    1
    30     6     7    1
    31    33    31    1
    32    33    34    1
    33    31    32    1
    34     8    10    1
    35     7    12    1
    36    46    45    2
    37    11    10    1
    38    11    45    1
    39    10    12    1
    40    12    13    1
    41    21    20    1
    42    21    22    2
    43    45    47    1
    44    45    48    1
    45    20    19    1
    46    13    22    1
    47    13    14    1
    48    22    16    1
    49    19    17    2
    50    14    15    1
    51    16    17    1
    52    16    15    2
    53    17    18    1
