@<TRIPOS>MOLECULE
1i38_DHT_A_1.pdb
 21 24 0 0 0
SMALL
GASTEIGER

@<TRIPOS>ATOM
      1  C1        27.9060    5.1140    4.6280 C.3   201  DHT201      0.0118
      2  C2        27.0710    6.4210    4.8700 C.3   201  DHT201      0.0694
      3  C3        25.6720    6.2890    4.2280 C.2   201  DHT201      0.1725
      4  O3        25.0940    7.3050    3.8370 O.2   201  DHT201     -0.2914
      5  C4        25.0330    4.9630    4.0720 C.2   201  DHT201      0.0289
      6  C5        25.6310    3.8380    4.4850 C.2   201  DHT201     -0.0420
      7  C6        24.8700    2.4990    4.3220 C.3   201  DHT201      0.0221
      8  C7        25.7660    1.3450    3.7560 C.3   201  DHT201      0.0044
      9  C8        27.1310    1.1900    4.5110 C.3   201  DHT201      0.0007
     10  C9        27.9140    2.5430    4.3830 C.3   201  DHT201      0.0035
     11  C10       27.1570    3.7860    5.0360 C.3   201  DHT201      0.0157
     12  C11       29.3860    2.4110    4.9260 C.3   201  DHT201      0.0004
     13  C12       30.1580    1.1980    4.3340 C.3   201  DHT201      0.0025
     14  C13       29.3940   -0.1640    4.5490 C.3   201  DHT201      0.0282
     15  C14       27.9640    0.0460    3.8710 C.3   201  DHT201      0.0025
     16  C15       27.3590   -1.3970    3.8810 C.3   201  DHT201      0.0027
     17  C16       28.6100   -2.2950    3.5570 C.3   201  DHT201      0.0329
     18  C17       29.8760   -1.3690    3.6820 C.3   201  DHT201      0.1519
     19  O17       31.0850   -2.1020    4.2930 O.3   201  DHT201     -0.2232
     20  C18       29.3430   -0.5820    6.0820 C.3   201  DHT201      0.0025
     21  C19       27.0320    3.6790    6.6210 C.3   201  DHT201      0.0041
@<TRIPOS>BOND
     1    17    18    1
     2    17    16    1
     3    18    19    1
     4    18    14    1
     5     8     7    1
     6     8     9    1
     7     4     3    2
     8    15    16    1
     9    15     9    1
    10    15    14    1
    11     5     3    1
    12     5     6    2
    13     3     2    1
    14     7     6    1
    15    13    14    1
    16    13    12    1
    17    10     9    1
    18    10    12    1
    19    10    11    1
    20     6    11    1
    21    14    20    1
    22     1     2    1
    23     1    11    1
    24    11    21    1
