@<TRIPOS>MOLECULE
1i3d_HEM_A_1.pdb
 43 50 0 0 0
SMALL
GASTEIGER

@<TRIPOS>ATOM
      1 FE          6.2010   57.8670   22.8780 Fe    147  HEM147      0.0000
      2  CHA        5.9760   61.0650   24.0680 C.2   147  HEM147      0.0000
      3  CHB        8.1820   56.9170   25.5830 C.2   147  HEM147      0.0000
      4  CHC        6.4150   54.6000   21.6500 C.2   147  HEM147      0.0000
      5  CHD        4.3750   58.7920   20.0480 C.2   147  HEM147      0.0000
      6  NA         6.8880   58.7810   24.4720 N.2   147  HEM147      0.0000
      7  C1A        6.7300   60.1140   24.8170 C.2   147  HEM147      0.0000
      8  C2A        7.4610   60.3990   26.0810 C.2   147  HEM147      0.0000
      9  C3A        7.9940   59.2450   26.4720 C.2   147  HEM147      0.0000
     10  C4A        7.7760   58.2480   25.5170 C.2   147  HEM147      0.0000
     11  CMA        8.8530   59.0440   27.7410 C.3   147  HEM147      0.0000
     12  CAA        7.5370   61.7730   26.8460 C.2   147  HEM147      0.0000
     13  CBA        8.3070   62.7480   26.4140 C.2   147  HEM147      0.0000
     14  CGA        8.5080   64.0150   27.1930 C.2   147  HEM147      0.0000
     15  O1A        8.5750   65.1350   26.6060 O.co2 147  HEM147      0.0000
     16  O2A        8.2770   63.9090   28.4340 O.co2 147  HEM147      0.0000
     17  NB         7.0300   56.1880   23.4250 N.ar  147  HEM147      0.0000
     18  C1B        7.8420   55.9390   24.6080 C.ar  147  HEM147      0.0000
     19  C2B        8.2270   54.5850   24.6990 C.ar  147  HEM147      0.0000
     20  C3B        7.7930   53.9760   23.6440 C.ar  147  HEM147      0.0000
     21  C4B        7.0190   54.9710   22.8440 C.ar  147  HEM147      0.0000
     22  CMB        9.1620   53.9930   25.8410 C.3   147  HEM147      0.0000
     23  CAB        7.9100   52.4760   23.1090 C.3   147  HEM147      0.0000
     24  CBB        9.3030   51.9030   23.0590 C.3   147  HEM147      0.0000
     25  NC         5.5290   56.9110   21.2280 N.2   147  HEM147      0.0000
     26  C1C        5.6780   55.6540   20.9210 C.2   147  HEM147      0.0000
     27  C2C        5.1570   55.3260   19.5930 C.2   147  HEM147      0.0000
     28  C3C        4.6080   56.4470   19.1440 C.2   147  HEM147      0.0000
     29  C4C        4.8270   57.4620   20.1980 C.2   147  HEM147      0.0000
     30  CMC        5.1360   53.8910   18.9280 C.3   147  HEM147      0.0000
     31  CAC        3.8570   56.6960   17.9250 C.3   147  HEM147      0.0000
     32  CBC        4.4690   56.5180   16.5420 C.3   147  HEM147      0.0000
     33  ND         5.3730   59.5570   22.2300 N.ar  147  HEM147      0.0000
     34  C1D        4.6660   59.7780   20.9890 C.ar  147  HEM147      0.0000
     35  C2D        4.1760   61.1770   20.8440 C.ar  147  HEM147      0.0000
     36  C3D        4.6940   61.8060   22.0050 C.ar  147  HEM147      0.0000
     37  C4D        5.3190   60.7690   22.7920 C.ar  147  HEM147      0.0000
     38  CMD        3.4140   61.7560   19.7160 C.3   147  HEM147      0.0000
     39  CAD        4.5430   63.2600   22.3310 C.3   147  HEM147      0.0000
     40  CBD        5.5860   64.0210   21.7370 C.3   147  HEM147      0.0000
     41  CGD        5.4960   65.5980   21.6980 C.2   147  HEM147      0.0000
     42  O1D        5.9420   66.1250   22.6670 O.co2 147  HEM147      0.0000
     43  O2D        4.8550   66.0690   20.8210 O.co2 147  HEM147      0.0000
@<TRIPOS>BOND
     1    32    31    1
     2    31    28    1
     3    30    27    1
     4    28    27    2
     5    28    29    1
     6    27    26    1
     7    38    35    1
     8     5    29    1
     9     5    34    2
    10    29    25    2
    11    43    41   ar
    12    35    34   ar
    13    35    36   ar
    14    26    25    1
    15    26     4    2
    16    34    33   ar
    17    25     1    1
    18     4    21    1
    19    41    40    1
    20    41    42   ar
    21    40    39    1
    22    36    39    1
    23    36    37   ar
    24    33    37   ar
    25    33     1    1
    26    37     2    2
    27    21    17   ar
    28    21    20   ar
    29     1    17    1
    30     1     6    1
    31    24    23    1
    32    23    20    1
    33    17    18   ar
    34    20    19   ar
    35     2     7    1
    36     6     7    2
    37     6    10    1
    38    18    19   ar
    39    18     3    1
    40    19    22    1
    41     7     8    1
    42    10     3    2
    43    10     9    1
    44     8     9    2
    45     8    12    1
    46    13    12    2
    47    13    14    1
    48     9    11    1
    49    15    14   ar
    50    14    16   ar
