@<TRIPOS>MOLECULE
1i3e_HEM_A_1.pdb
 43 50 0 0 0
SMALL
GASTEIGER

@<TRIPOS>ATOM
      1  CHA       24.1610  -60.2730   23.8380 C.2   147  HEM147      0.0000
      2  CHB       22.0400  -56.1550   25.3420 C.2   147  HEM147      0.0000
      3  CHC       23.6570  -53.9010   21.3800 C.2   147  HEM147      0.0000
      4  CHD       25.7550  -58.0300   19.8570 C.2   147  HEM147      0.0000
      5  C1A       23.4860  -59.3380   24.5890 C.2   147  HEM147      0.0000
      6  C2A       22.7410  -59.6400   25.8450 C.2   147  HEM147      0.0000
      7  C3A       22.1840  -58.4740   26.2260 C.2   147  HEM147      0.0000
      8  C4A       22.4730  -57.4780   25.2780 C.2   147  HEM147      0.0000
      9  CMA       21.2050  -58.3140   27.5030 C.3   147  HEM147      0.0000
     10  CAA       22.5610  -60.9900   26.5600 C.3   147  HEM147      0.0000
     11  CBA       23.5450  -61.1710   27.8180 C.3   147  HEM147      0.0000
     12  CGA       23.1000  -62.4220   28.6150 C.2   147  HEM147      0.0000
     13  O1A       23.7680  -62.7360   29.6090 O.co2 147  HEM147      0.0000
     14  O2A       21.9530  -62.9890   28.2970 O.co2 147  HEM147      0.0000
     15  C1B       22.3310  -55.1850   24.3680 C.ar  147  HEM147      0.0000
     16  C2B       21.9120  -53.8450   24.4540 C.ar  147  HEM147      0.0000
     17  C3B       22.3150  -53.2140   23.3900 C.ar  147  HEM147      0.0000
     18  C4B       23.1280  -54.2180   22.5840 C.ar  147  HEM147      0.0000
     19  CMB       20.9550  -53.2640   25.6050 C.3   147  HEM147      0.0000
     20  CAB       22.0790  -51.7410   22.9370 C.3   147  HEM147      0.0000
     21  CBB       23.2220  -50.8720   22.3900 C.3   147  HEM147      0.0000
     22  C1C       24.3670  -54.9500   20.6370 C.2   147  HEM147      0.0000
     23  C2C       24.9220  -54.5810   19.2790 C.2   147  HEM147      0.0000
     24  C3C       25.5310  -55.7350   18.8970 C.2   147  HEM147      0.0000
     25  C4C       25.3320  -56.7380   19.9850 C.2   147  HEM147      0.0000
     26  CMC       24.9070  -53.2470   18.5820 C.3   147  HEM147      0.0000
     27  CAC       26.2900  -56.0050   17.6200 C.3   147  HEM147      0.0000
     28  CBC       25.6970  -55.8120   16.2920 C.3   147  HEM147      0.0000
     29  C1D       25.4660  -59.0120   20.8370 C.ar  147  HEM147      0.0000
     30  C2D       25.9690  -60.3930   20.6730 C.ar  147  HEM147      0.0000
     31  C3D       25.5310  -61.0550   21.8130 C.ar  147  HEM147      0.0000
     32  C4D       24.8440  -59.9590   22.6640 C.ar  147  HEM147      0.0000
     33  CMD       26.7840  -61.0050   19.5220 C.3   147  HEM147      0.0000
     34  CAD       25.6870  -62.5080   22.1940 C.3   147  HEM147      0.0000
     35  CBD       24.7140  -63.2930   21.3830 C.3   147  HEM147      0.0000
     36  CGD       24.8430  -64.9230   21.5740 C.2   147  HEM147      0.0000
     37  O1D       25.5050  -65.3750   20.5800 O.co2 147  HEM147      0.0000
     38  O2D       24.4920  -65.3270   22.5840 O.co2 147  HEM147      0.0000
     39  NA        23.2560  -57.9930   24.2600 N.2   147  HEM147      0.0000
     40  NB        23.0970  -55.4030   23.2170 N.ar  147  HEM147      0.0000
     41  NC        24.5720  -56.1770   20.9980 N.2   147  HEM147      0.0000
     42  ND        24.8500  -58.7900   22.0150 N.ar  147  HEM147      0.0000
     43 FE         23.9530  -57.0890   22.6510 Fe    147  HEM147      0.0000
@<TRIPOS>BOND
     1    28    27    1
     2    27    24    1
     3    26    23    1
     4    24    23    2
     5    24    25    1
     6    23    22    1
     7    33    30    1
     8     4    25    1
     9     4    29    2
    10    25    41    2
    11    37    36   ar
    12    22    41    1
    13    22     3    2
    14    30    29   ar
    15    30    31   ar
    16    29    42   ar
    17    41    43    1
    18     3    18    1
    19    35    36    1
    20    35    34    1
    21    36    38   ar
    22    31    34    1
    23    31    32   ar
    24    42    43    1
    25    42    32   ar
    26    21    20    1
    27    18    40   ar
    28    18    17   ar
    29    43    40    1
    30    43    39    1
    31    32     1    2
    32    20    17    1
    33    40    15   ar
    34    17    16   ar
    35     1     5    1
    36    39     5    2
    37    39     8    1
    38    15    16   ar
    39    15     2    1
    40    16    19    1
    41     5     6    1
    42     8     2    2
    43     8     7    1
    44     6     7    2
    45     6    10    1
    46     7     9    1
    47    10    11    1
    48    11    12    1
    49    14    12   ar
    50    12    13   ar
