@<TRIPOS>MOLECULE
1i3f_2GP_A_1.pdb
 24 26 0 0 0
SMALL
GASTEIGER

@<TRIPOS>ATOM
      1  P          0.9730   19.8540   14.6680 P.3   106  2GP106      0.5327
      2  O1P        2.0790   20.7990   14.8900 O.3   106  2GP106     -0.1145
      3  O2P       -0.1660   20.4170   13.9040 O.2   106  2GP106     -0.2224
      4  O3P        1.3470   18.4780   14.2810 O.3   106  2GP106     -0.1145
      5  O5'       -3.7700   17.9710   15.6050 O.3   106  2GP106     -0.2176
      6  C5'       -4.1980   19.0020   16.4910 C.3   106  2GP106      0.2142
      7  C4'       -3.0630   19.6060   17.3080 C.3   106  2GP106      0.1827
      8  O4'       -2.4050   18.5890   18.0850 O.3   106  2GP106     -0.3326
      9  C3'       -2.0150   20.2140   16.4370 C.3   106  2GP106      0.2132
     10  O3'       -1.6440   21.3940   17.1560 O.3   106  2GP106     -0.2176
     11  C2'       -0.9200   19.1080   16.3750 C.3   106  2GP106      0.2054
     12  O2'        0.3950   19.6570   16.1550 O.3   106  2GP106     -0.2657
     13  C1'       -0.9950   18.5550   17.7710 C.3   106  2GP106      0.2266
     14  N9        -0.5680   17.1400   17.9360 N.pl3 106  2GP106     -0.2354
     15  C8         0.2120   16.6410   18.9530 C.3   106  2GP106      0.2246
     16  N7         0.3190   15.3430   18.9670 N.2   106  2GP106     -0.2322
     17  C5        -0.4380   14.9460   17.8770 C.2   106  2GP106      0.2182
     18  C6        -0.7210   13.6470   17.3940 C.1   106  2GP106      0.2372
     19  O6        -0.3290   12.6160   17.9070 O.2   106  2GP106     -0.2069
     20  N1        -1.5420   13.6080   16.2740 N.2   106  2GP106     -0.2485
     21  C2        -2.0460   14.7240   15.6760 C.1   106  2GP106      0.2531
     22  N2        -2.8110   14.4730   14.6270 N.pl3 106  2GP106     -0.0226
     23  N3        -1.8020   15.9730   16.1080 N.2   106  2GP106     -0.3074
     24  C4        -0.9880   16.0210   17.2190 C.2   106  2GP106      0.2300
@<TRIPOS>BOND
     1     3     1    2
     2     4     1    1
     3    22    21    1
     4     1     2    1
     5     1    12    1
     6     5     6    1
     7    21    23    2
     8    21    20    2
     9    23    24    2
    10    12    11    1
    11    20    18    2
    12    11     9    1
    13    11    13    1
    14     9    10    1
    15     9     7    1
    16     6     7    1
    17    24    17    1
    18    24    14    1
    19     7     8    1
    20    18    17    1
    21    18    19    2
    22    13    14    1
    23    13     8    1
    24    17    16    2
    25    14    15    1
    26    15    16    1
