@<TRIPOS>MOLECULE
1i3h_MAN_A_1.pdb
 11 11 0 0 0
SMALL
GASTEIGER

@<TRIPOS>ATOM
      1  C1        22.5520   17.2060   25.1560 C.3   239  MAN239      0.1777
      2  C2        22.9580   18.6060   25.5730 C.3   239  MAN239      0.2141
      3  C3        22.6500   19.6270   24.4710 C.3   239  MAN239      0.2173
      4  C4        23.3520   19.2360   23.1710 C.3   239  MAN239      0.2142
      5  C5        23.0360   17.7860   22.7990 C.3   239  MAN239      0.1810
      6  C6        23.8780   17.2700   21.6530 C.3   239  MAN239      0.2141
      7  O2        24.3450   18.6100   25.8670 O.3   239  MAN239     -0.2176
      8  O3        23.0300   20.9400   24.8530 O.3   239  MAN239     -0.2175
      9  O4        22.8620   20.1060   22.1390 O.3   239  MAN239     -0.2176
     10  O5        23.2470   16.8920   23.9080 O.3   239  MAN239     -0.3481
     11  O6        25.2610   17.2990   21.9760 O.3   239  MAN239     -0.2176
@<TRIPOS>BOND
     1     6    11    1
     2     6     5    1
     3     9     4    1
     4     5     4    1
     5     5    10    1
     6     4     3    1
     7    10     1    1
     8     3     8    1
     9     3     2    1
    10     1     2    1
    11     2     7    1
