@<TRIPOS>MOLECULE
1i3i_2GP_A_1.pdb
 24 26 0 0 0
SMALL
GASTEIGER

@<TRIPOS>ATOM
      1  P          0.9050   19.8920   14.9640 P.3   106  2GP106      0.5327
      2  O1P        2.0050   20.8170   15.2930 O.3   106  2GP106     -0.1145
      3  O2P       -0.2120   20.4900   14.2110 O.2   106  2GP106     -0.2224
      4  O3P        1.3210   18.5760   14.4780 O.3   106  2GP106     -0.1145
      5  O5'       -3.9680   17.9120   15.8660 O.3   106  2GP106     -0.2176
      6  C5'       -4.3890   18.9850   16.7180 C.3   106  2GP106      0.2142
      7  C4'       -3.2240   19.5880   17.5020 C.3   106  2GP106      0.1827
      8  O4'       -2.5430   18.5660   18.2670 O.3   106  2GP106     -0.3326
      9  C3'       -2.1790   20.1770   16.5530 C.3   106  2GP106      0.2132
     10  O3'       -1.7620   21.4130   17.1860 O.3   106  2GP106     -0.2176
     11  C2'       -1.0750   19.0770   16.5140 C.3   106  2GP106      0.2054
     12  O2'        0.2540   19.5930   16.3730 O.3   106  2GP106     -0.2657
     13  C1'       -1.1240   18.5280   17.9020 C.3   106  2GP106      0.2266
     14  N9        -0.6140   17.1080   18.0160 N.pl3 106  2GP106     -0.2354
     15  C8         0.1420   16.6080   19.0470 C.3   106  2GP106      0.2246
     16  N7         0.2690   15.3140   19.0630 N.2   106  2GP106     -0.2322
     17  C5        -0.4540   14.9090   17.9510 C.2   106  2GP106      0.2182
     18  C6        -0.7190   13.6160   17.4710 C.1   106  2GP106      0.2372
     19  O6        -0.3550   12.5710   17.9740 O.2   106  2GP106     -0.2069
     20  N1        -1.4900   13.6010   16.3440 N.2   106  2GP106     -0.2485
     21  C2        -1.9710   14.7220   15.7310 C.1   106  2GP106      0.2531
     22  N2        -2.7130   14.5180   14.6480 N.pl3 106  2GP106     -0.0226
     23  N3        -1.7460   15.9570   16.1690 N.2   106  2GP106     -0.3074
     24  C4        -0.9840   15.9820   17.2850 C.2   106  2GP106      0.2300
@<TRIPOS>BOND
     1     3     1    2
     2     4     1    1
     3    22    21    1
     4     1     2    1
     5     1    12    1
     6    21    23    2
     7    21    20    2
     8     5     6    1
     9    23    24    2
    10    20    18    2
    11    12    11    1
    12    11     9    1
    13    11    13    1
    14     9    10    1
    15     9     7    1
    16     6     7    1
    17    24    17    1
    18    24    14    1
    19    18    17    1
    20    18    19    2
    21     7     8    1
    22    13    14    1
    23    13     8    1
    24    17    16    2
    25    14    15    1
    26    15    16    1
