@<TRIPOS>MOLECULE
1i3k_NAD_A_1.pdb
 44 48 0 0 0
SMALL
GASTEIGER

@<TRIPOS>ATOM
      1  PA        17.8780    8.6320   38.5770 P.3   400  NAD400      0.2189
      2  O1A       17.1380    7.7950   39.5830 O.3   400  NAD400     -0.4371
      3  O2A       19.2830    8.3040   38.3890 O.2   400  NAD400     -0.5170
      4  O5B       17.0200    8.5820   37.2550 O.3   400  NAD400     -0.3112
      5  C5B       17.6350    8.6470   35.9580 C.3   400  NAD400      0.1813
      6  C4B       17.3090    7.3620   35.2220 C.3   400  NAD400      0.1821
      7  O4B       17.9650    7.4510   33.9230 O.3   400  NAD400     -0.3135
      8  C3B       17.8910    6.0930   35.8830 C.3   400  NAD400      0.2184
      9  O3B       16.8470    5.1380   36.1040 O.3   400  NAD400     -0.2174
     10  C2B       19.0020    5.6630   34.8940 C.3   400  NAD400      0.2570
     11  O2B       19.1330    4.2370   34.8300 O.3   400  NAD400     -0.2130
     12  C1B       18.4820    6.2010   33.5800 C.3   400  NAD400      0.3186
     13  N9A       19.5150    6.4410   32.5860 N.pl3 400  NAD400     -0.1439
     14  C8A       20.7380    6.9860   32.7590 C.3   400  NAD400      0.3377
     15  N7A       21.4560    7.0310   31.6240 N.2   400  NAD400     -0.2095
     16  C5A       20.6030    6.5250   30.6720 C.2   400  NAD400      0.2526
     17  C6A       20.7780    6.2860   29.2820 C.2   400  NAD400      0.4393
     18  N6A       21.8890    6.5770   28.6330 N.pl3 400  NAD400      0.2180
     19  N1A       19.7090    5.7400   28.6240 N.2   400  NAD400      0.0021
     20  C2A       18.5630    5.4260   29.3160 C.3   400  NAD400      0.5254
     21  N3A       18.3330    5.6000   30.6060 N.2   400  NAD400     -0.0055
     22  C4A       19.4000    6.1460   31.2390 C.2   400  NAD400      0.3518
     23  O3        17.8200   10.1680   38.8760 O.3   400  NAD400     -0.2703
     24  PN        16.5880   11.0920   39.3850 P.3   400  NAD400      0.2189
     25  O1N       16.8560   11.5640   40.7560 O.3   400  NAD400     -0.4371
     26  O2N       15.3380   10.3650   39.2030 O.2   400  NAD400     -0.5170
     27  O5D       16.7670   12.3000   38.3390 O.3   400  NAD400     -0.3112
     28  C5D       15.9460   12.2760   37.1700 C.3   400  NAD400      0.1813
     29  C4D       16.4000   13.4150   36.2730 C.3   400  NAD400      0.1799
     30  O4D       16.1600   14.6770   36.9670 O.3   400  NAD400     -0.3327
     31  C3D       17.8440   13.4040   35.8460 C.3   400  NAD400      0.2158
     32  O3D       18.0350   13.9290   34.5140 O.3   400  NAD400     -0.2175
     33  C2D       18.4740   14.3390   36.8760 C.3   400  NAD400      0.2309
     34  O2D       19.6790   14.9200   36.3050 O.3   400  NAD400     -0.2158
     35  C1D       17.3720   15.3690   37.0900 C.3   400  NAD400      0.2261
     36  N1N       17.4610   16.0860   38.4050 N.pl3 400  NAD400     -0.2831
     37  C2N       17.4280   15.3280   39.5630 C.2   400  NAD400      0.0633
     38  C3N       17.6020   15.9910   40.7830 C.2   400  NAD400      0.0490
     39  C7N       17.5810   15.2630   42.1190 C.2   400  NAD400      0.2814
     40  O7N       17.7640   15.9040   43.1570 O.2   400  NAD400     -0.2670
     41  N7N       17.3410   13.9380   42.1530 N.am  400  NAD400     -0.0839
     42  C4N       17.7350   17.4110   40.8510 C.3   400  NAD400      0.0341
     43  C5N       17.9810   17.9760   39.5990 C.3   400  NAD400      0.0264
     44  C6N       17.5740   17.4790   38.3980 C.3   400  NAD400      0.0934
@<TRIPOS>BOND
     1    19    17    2
     2    19    20    1
     3    18    17    1
     4    17    16    1
     5    20    21    1
     6    21    22    2
     7    16    22    1
     8    16    15    2
     9    22    13    1
    10    15    14    1
    11    13    14    1
    12    13    12    1
    13    12     7    1
    14    12    10    1
    15     7     6    1
    16    32    31    1
    17    11    10    1
    18    10     8    1
    19     6     8    1
    20     6     5    1
    21    31    29    1
    22    31    33    1
    23     8     9    1
    24     5     4    1
    25    29    30    1
    26    29    28    1
    27    34    33    1
    28    33    35    1
    29    30    35    1
    30    35    36    1
    31    28    27    1
    32     4     1    1
    33    27    24    1
    34     3     1    2
    35    44    36    1
    36    44    43    1
    37    36    37    1
    38     1    23    1
    39     1     2    1
    40    23    24    1
    41    26    24    2
    42    24    25    1
    43    37    38    2
    44    43    42    1
    45    38    42    1
    46    38    39    1
    47    39    41   am
    48    39    40    2
