@<TRIPOS>MOLECULE
1i3k_UPG_A_1.pdb
 36 38 0 0 0
SMALL
GASTEIGER

@<TRIPOS>ATOM
      1  N1        25.0510   17.2210   52.9110 N.am  401  UPG401     -0.1766
      2  C2        25.7560   16.8690   54.0470 C.1   401  UPG401      0.2845
      3  N3        26.1030   15.5520   54.1110 N.2   401  UPG401     -0.2452
      4  C4        25.8040   14.5690   53.1640 C.1   401  UPG401      0.2182
      5  C5        25.0810   15.0420   52.0380 C.2   401  UPG401      0.1242
      6  C6        24.7290   16.3030   51.9400 C.2   401  UPG401      0.0929
      7  O2        26.0500   17.6280   54.9540 O.2   401  UPG401     -0.1918
      8  O4        26.1750   13.4310   53.3710 O.2   401  UPG401     -0.2085
      9  C1C       24.6070   18.5960   52.7390 C.3   401  UPG401      0.2401
     10  C2C       25.1940   19.2890   51.5380 C.3   401  UPG401      0.2319
     11  O2C       26.4220   19.9360   51.9180 O.3   401  UPG401     -0.2157
     12  C3C       24.0980   20.3410   51.2500 C.3   401  UPG401      0.2158
     13  C4C       22.8440   19.5720   51.5940 C.3   401  UPG401      0.1799
     14  O4C       23.2440   18.5540   52.5560 O.3   401  UPG401     -0.3320
     15  O3C       24.2090   21.4940   52.0950 O.3   401  UPG401     -0.2175
     16  C5C       22.1570   18.9280   50.4160 C.3   401  UPG401      0.1813
     17  O5C       23.1640   18.1980   49.6950 O.3   401  UPG401     -0.3112
     18  PA        22.6940   17.1590   48.5780 P.3   401  UPG401      0.2189
     19  O1A       21.5790   16.2900   48.9820 O.3   401  UPG401     -0.4371
     20  O2A       23.8910   16.4970   48.0180 O.2   401  UPG401     -0.5170
     21  O3A       22.0640   18.2560   47.6060 O.3   401  UPG401     -0.2703
     22  PB        22.6170   19.2940   46.6380 P.3   401  UPG401      0.2208
     23  O1B       24.0740   19.2790   46.4440 O.2   401  UPG401     -0.5170
     24  O2B       22.0260   20.6090   46.9830 O.3   401  UPG401     -0.4371
     25  O3B       21.9910   18.6830   45.0790 O.3   401  UPG401     -0.2857
     26  C1'       20.6160   18.0040   44.9870 C.3   401  UPG401      0.2742
     27  C2'       20.8240   17.0540   43.8190 C.3   401  UPG401      0.2409
     28  C3'       21.3850   17.7010   42.5390 C.3   401  UPG401      0.2198
     29  C4'       20.4950   18.8620   42.1290 C.3   401  UPG401      0.2144
     30  C5'       20.2640   19.7610   43.3360 C.3   401  UPG401      0.1835
     31  C6'       19.2200   20.8490   43.0370 C.3   401  UPG401      0.2142
     32  O2'       21.5180   15.8380   44.1490 O.3   401  UPG401     -0.2149
     33  O3'       21.3880   16.7770   41.4400 O.3   401  UPG401     -0.2174
     34  O4'       21.0150   19.6000   41.0120 O.3   401  UPG401     -0.2176
     35  O5'       19.7460   19.0220   44.4640 O.3   401  UPG401     -0.3254
     36  O6'       19.2960   21.9300   43.9740 O.3   401  UPG401     -0.2176
@<TRIPOS>BOND
     1    34    29    1
     2    33    28    1
     3    29    28    1
     4    29    30    1
     5    28    27    1
     6    31    30    1
     7    31    36    1
     8    30    35    1
     9    27    32    1
    10    27    26    1
    11    35    26    1
    12    26    25    1
    13    25    22    1
    14    23    22    2
    15    22    24    1
    16    22    21    1
    17    21    18    1
    18    20    18    2
    19    18    19    1
    20    18    17    1
    21    17    16    1
    22    16    13    1
    23    12    10    1
    24    12    13    1
    25    12    15    1
    26    10    11    1
    27    10     9    1
    28    13    14    1
    29     6     5    2
    30     6     1    1
    31     5     4    1
    32    14     9    1
    33     9     1    1
    34     1     2   am
    35     4     8    2
    36     4     3    2
    37     2     3    2
    38     2     7    2
