@<TRIPOS>MOLECULE
1i3l_GDU_A_1.pdb
 36 38 0 0 0
SMALL
GASTEIGER

@<TRIPOS>ATOM
      1  N1        25.1020   17.2370   52.9240 N.am  401  GDU401     -0.1766
      2  C2        25.8280   16.8720   54.0540 C.1   401  GDU401      0.2845
      3  N3        26.1850   15.5600   54.0760 N.2   401  GDU401     -0.2452
      4  C4        25.8770   14.5830   53.1360 C.1   401  GDU401      0.2182
      5  C5        25.1480   15.0570   52.0190 C.2   401  GDU401      0.1242
      6  C6        24.7740   16.3130   51.9420 C.2   401  GDU401      0.0929
      7  O2        26.1450   17.6010   54.9860 O.2   401  GDU401     -0.1918
      8  O4        26.2530   13.4530   53.3450 O.2   401  GDU401     -0.2085
      9  C1D       24.6360   18.6170   52.7450 C.3   401  GDU401      0.2401
     10  C2D       25.2130   19.3440   51.5400 C.3   401  GDU401      0.2319
     11  O2D       26.4410   20.0080   51.9240 O.3   401  GDU401     -0.2157
     12  C3D       24.1170   20.3920   51.2450 C.3   401  GDU401      0.2158
     13  C4D       22.8640   19.6350   51.6300 C.3   401  GDU401      0.1799
     14  O4D       23.2650   18.5990   52.5820 O.3   401  GDU401     -0.3320
     15  O3D       24.2230   21.5770   52.0450 O.3   401  GDU401     -0.2175
     16  C5D       22.1580   18.9900   50.4540 C.3   401  GDU401      0.1813
     17  O5D       23.1750   18.2630   49.7350 O.3   401  GDU401     -0.3112
     18  PA        22.7210   17.2140   48.6110 P.3   401  GDU401      0.2189
     19  O1A       21.6140   16.3400   49.0340 O.3   401  GDU401     -0.4371
     20  O2A       23.9370   16.5400   48.1250 O.2   401  GDU401     -0.5170
     21  O3A       22.1420   18.2420   47.4330 O.3   401  GDU401     -0.2703
     22  PB        22.7670   19.4900   46.6990 P.3   401  GDU401      0.2208
     23  O1B       23.6410   20.3170   47.5910 O.3   401  GDU401     -0.4371
     24  O2B       21.5410   20.2120   46.2860 O.2   401  GDU401     -0.5170
     25  O3B       23.6350   19.1480   45.3790 O.3   401  GDU401     -0.2857
     26  C1'       25.0030   19.0860   45.6240 C.3   401  GDU401      0.2742
     27  C2'       25.7780   19.6340   44.4330 C.3   401  GDU401      0.2409
     28  C3'       25.5800   18.7990   43.1760 C.3   401  GDU401      0.2198
     29  C4'       25.6360   17.3200   43.5060 C.3   401  GDU401      0.2144
     30  C5'       24.6460   17.0720   44.6110 C.3   401  GDU401      0.1835
     31  C6'       24.4680   15.6170   44.9640 C.3   401  GDU401      0.2142
     32  O2'       25.4640   21.0030   44.1510 O.3   401  GDU401     -0.2149
     33  O3'       26.6730   19.0350   42.2930 O.3   401  GDU401     -0.2174
     34  O4'       26.9280   16.9870   44.0100 O.3   401  GDU401     -0.2176
     35  O5'       25.2360   17.6920   45.7500 O.3   401  GDU401     -0.3254
     36  O6'       25.0280   15.4030   46.2440 O.3   401  GDU401     -0.2176
@<TRIPOS>BOND
     1    33    28    1
     2    28    29    1
     3    28    27    1
     4    29    34    1
     5    29    30    1
     6    32    27    1
     7    27    26    1
     8    30    31    1
     9    30    35    1
    10    31    36    1
    11    25    26    1
    12    25    22    1
    13    26    35    1
    14    24    22    2
    15    22    21    1
    16    22    23    1
    17    21    18    1
    18    20    18    2
    19    18    19    1
    20    18    17    1
    21    17    16    1
    22    16    13    1
    23    12    10    1
    24    12    13    1
    25    12    15    1
    26    10    11    1
    27    10     9    1
    28    13    14    1
    29     6     5    2
    30     6     1    1
    31     5     4    1
    32    14     9    1
    33     9     1    1
    34     1     2   am
    35     4     8    2
    36     4     3    2
    37     2     3    2
    38     2     7    2
