@<TRIPOS>MOLECULE
1i3l_NAD_A_1.pdb
 44 48 0 0 0
SMALL
GASTEIGER

@<TRIPOS>ATOM
      1  PA        17.9040    8.5770   38.5980 P.3   400  NAD400      0.2189
      2  O1A       17.1400    7.7890   39.6150 O.3   400  NAD400     -0.4371
      3  O2A       19.3050    8.2500   38.4130 O.2   400  NAD400     -0.5170
      4  O5B       17.0280    8.5450   37.2670 O.3   400  NAD400     -0.3112
      5  C5B       17.6190    8.6160   35.9510 C.3   400  NAD400      0.1813
      6  C4B       17.3190    7.3220   35.2190 C.3   400  NAD400      0.1821
      7  O4B       17.9810    7.4140   33.9340 O.3   400  NAD400     -0.3135
      8  C3B       17.8990    6.0430   35.8800 C.3   400  NAD400      0.2184
      9  O3B       16.8630    5.0650   36.1210 O.3   400  NAD400     -0.2174
     10  C2B       19.0190    5.6120   34.9050 C.3   400  NAD400      0.2570
     11  O2B       19.1340    4.1700   34.8440 O.3   400  NAD400     -0.2130
     12  C1B       18.4860    6.1640   33.5900 C.3   400  NAD400      0.3186
     13  N9A       19.5100    6.3940   32.5840 N.pl3 400  NAD400     -0.1439
     14  C8A       20.7380    6.9440   32.7500 C.3   400  NAD400      0.3377
     15  N7A       21.4610    7.0060   31.6060 N.2   400  NAD400     -0.2095
     16  C5A       20.5860    6.4940   30.6550 C.2   400  NAD400      0.2526
     17  C6A       20.7460    6.2940   29.2570 C.2   400  NAD400      0.4393
     18  N6A       21.8710    6.5850   28.6260 N.pl3 400  NAD400      0.2180
     19  N1A       19.6610    5.7600   28.6250 N.2   400  NAD400      0.0021
     20  C2A       18.5350    5.4310   29.3320 C.3   400  NAD400      0.5254
     21  N3A       18.3180    5.5800   30.6260 N.2   400  NAD400     -0.0055
     22  C4A       19.3890    6.1030   31.2360 C.2   400  NAD400      0.3518
     23  O3        17.8420   10.1260   38.8630 O.3   400  NAD400     -0.2703
     24  PN        16.6110   11.0480   39.3740 P.3   400  NAD400      0.2189
     25  O1N       16.9160   11.5160   40.7430 O.3   400  NAD400     -0.4371
     26  O2N       15.3520   10.3510   39.1780 O.2   400  NAD400     -0.5170
     27  O5D       16.8170   12.2590   38.3390 O.3   400  NAD400     -0.3112
     28  C5D       15.9680   12.2520   37.1830 C.3   400  NAD400      0.1813
     29  C4D       16.4100   13.3870   36.2830 C.3   400  NAD400      0.1799
     30  O4D       16.1680   14.6330   37.0050 O.3   400  NAD400     -0.3327
     31  C3D       17.8680   13.3910   35.8580 C.3   400  NAD400      0.2158
     32  O3D       18.0660   13.9170   34.5220 O.3   400  NAD400     -0.2175
     33  C2D       18.4940   14.3220   36.9000 C.3   400  NAD400      0.2309
     34  O2D       19.7420   14.8720   36.4000 O.3   400  NAD400     -0.2158
     35  C1D       17.3780   15.3410   37.0880 C.3   400  NAD400      0.2263
     36  N1N       17.4770   16.0700   38.3730 N.pl3 400  NAD400     -0.2787
     37  C2N       17.4460   15.2880   39.5150 C.3   400  NAD400      0.1244
     38  C3N       17.6370   15.9230   40.7380 C.2   400  NAD400      0.0544
     39  C7N       17.6650   15.1620   42.0640 C.2   400  NAD400      0.2818
     40  O7N       17.8510   15.7870   43.1020 O.2   400  NAD400     -0.2670
     41  N7N       17.4770   13.8310   42.1200 N.am  400  NAD400     -0.0839
     42  C4N       17.8170   17.3410   40.8130 C.2   400  NAD400      0.0033
     43  C5N       17.8050   17.9980   39.5650 C.2   400  NAD400      0.0157
     44  C6N       17.6210   17.4530   38.3320 C.2   400  NAD400      0.0633
@<TRIPOS>BOND
     1    19    17    2
     2    19    20    1
     3    18    17    1
     4    17    16    1
     5    20    21    1
     6    21    22    2
     7    16    22    1
     8    16    15    2
     9    22    13    1
    10    15    14    1
    11    13    14    1
    12    13    12    1
    13    12     7    1
    14    12    10    1
    15     7     6    1
    16    32    31    1
    17    11    10    1
    18    10     8    1
    19     6     8    1
    20     6     5    1
    21    31    29    1
    22    31    33    1
    23     8     9    1
    24     5     4    1
    25    29    30    1
    26    29    28    1
    27    34    33    1
    28    33    35    1
    29    30    35    1
    30    35    36    1
    31    28    27    1
    32     4     1    1
    33    44    36    1
    34    44    43    2
    35    27    24    1
    36    36    37    1
    37     3     1    2
    38     1    23    1
    39     1     2    1
    40    23    24    1
    41    26    24    2
    42    24    25    1
    43    37    38    1
    44    43    42    1
    45    38    42    2
    46    38    39    1
    47    39    41   am
    48    39    40    2
