@<TRIPOS>MOLECULE
1i3m_UD1_A_1.pdb
 39 41 0 0 0
SMALL
GASTEIGER

@<TRIPOS>ATOM
      1  C1'       23.5370   19.5020   44.2670 C.3   401  UD1401      0.2633
      2  C2'       24.2810   18.5410   43.3390 C.3   401  UD1401      0.1845
      3  C3'       25.7580   18.4920   43.7120 C.3   401  UD1401      0.2094
      4  C4'       26.3760   19.8950   43.8350 C.3   401  UD1401      0.2136
      5  C5'       25.5100   20.7800   44.7100 C.3   401  UD1401      0.1834
      6  C6'       26.0140   22.2290   44.7840 C.3   401  UD1401      0.2142
      7  C7'       22.9190   16.8250   42.3950 C.2   401  UD1401      0.2420
      8  C8'       22.3820   15.4270   42.2740 C.3   401  UD1401      0.0964
      9  N2'       23.7430   17.1560   43.3950 N.am  401  UD1401     -0.1992
     10  O1'       23.6420   19.0020   45.5770 O.3   401  UD1401     -0.2864
     11  O3'       26.4870   17.7860   42.7020 O.3   401  UD1401     -0.2183
     12  O4'       27.6880   19.9030   44.4060 O.3   401  UD1401     -0.2176
     13  O5'       24.1720   20.7980   44.2000 O.3   401  UD1401     -0.3260
     14  O6'       25.7880   22.9090   43.5420 O.3   401  UD1401     -0.2176
     15  O7'       22.5980   17.6580   41.5740 O.2   401  UD1401     -0.2733
     16  N1        25.0270   17.1880   52.9650 N.am  401  UD1401     -0.1766
     17  C2        25.7450   16.8490   54.0960 C.1   401  UD1401      0.2845
     18  N3        26.1000   15.5330   54.1560 N.2   401  UD1401     -0.2452
     19  C4        25.8220   14.5330   53.2190 C.1   401  UD1401      0.2182
     20  C5        25.0940   14.9810   52.1020 C.2   401  UD1401      0.1242
     21  C6        24.7240   16.2420   51.9990 C.2   401  UD1401      0.0929
     22  O2        26.0450   17.6070   55.0030 O.2   401  UD1401     -0.1918
     23  O4        26.2150   13.4030   53.4260 O.2   401  UD1401     -0.2085
     24  C1B       24.5420   18.5700   52.7750 C.3   401  UD1401      0.2401
     25  C2B       25.1210   19.3060   51.5780 C.3   401  UD1401      0.2319
     26  O2'       26.3690   19.9530   51.9030 O.3   401  UD1401     -0.2157
     27  C3B       24.0150   20.3480   51.2990 C.3   401  UD1401      0.2158
     28  C4B       22.7570   19.5730   51.6470 C.3   401  UD1401      0.1799
     29  O4B       23.1590   18.5430   52.6060 O.3   401  UD1401     -0.3320
     30  O3B       24.1440   21.5250   52.1110 O.3   401  UD1401     -0.2175
     31  C5B       22.0780   18.9170   50.4550 C.3   401  UD1401      0.1813
     32  O5B       23.1270   18.2010   49.7560 O.3   401  UD1401     -0.3112
     33  PA        22.7230   17.2120   48.5780 P.3   401  UD1401      0.2189
     34  O1A       23.9370   16.5690   48.0600 O.2   401  UD1401     -0.5170
     35  O2A       21.6340   16.3320   49.0030 O.3   401  UD1401     -0.4371
     36  O3A       22.0850   18.3150   47.5080 O.3   401  UD1401     -0.2703
     37  PB        22.7420   19.5460   46.8230 P.3   401  UD1401      0.2208
     38  O1B       21.5770   20.3680   46.4260 O.2   401  UD1401     -0.5170
     39  O2B       23.6810   20.2710   47.7060 O.3   401  UD1401     -0.4371
@<TRIPOS>BOND
     1    15     7    2
     2     8     7    1
     3     7     9   am
     4    11     3    1
     5     2     9    1
     6     2     3    1
     7     2     1    1
     8    14     6    1
     9     3     4    1
    10     4    12    1
    11     4     5    1
    12    13     1    1
    13    13     5    1
    14     1    10    1
    15     5     6    1
    16    10    37    1
    17    38    37    2
    18    37    36    1
    19    37    39    1
    20    36    33    1
    21    34    33    2
    22    33    35    1
    23    33    32    1
    24    32    31    1
    25    31    28    1
    26    27    25    1
    27    27    28    1
    28    27    30    1
    29    25    26    1
    30    25    24    1
    31    28    29    1
    32    21    20    2
    33    21    16    1
    34    20    19    1
    35    29    24    1
    36    24    16    1
    37    16    17   am
    38    19    23    2
    39    19    18    2
    40    17    18    2
    41    17    22    2
