@<TRIPOS>MOLECULE
1i3m_NAD_A_1.pdb
 44 48 0 0 0
SMALL
GASTEIGER

@<TRIPOS>ATOM
      1  PA        17.8190    8.5770   38.5210 P.3   400  NAD400      0.2189
      2  O1A       17.1040    7.7650   39.5560 O.3   400  NAD400     -0.4371
      3  O2A       19.2140    8.2420   38.3430 O.2   400  NAD400     -0.5170
      4  O5B       16.9480    8.5530   37.1830 O.3   400  NAD400     -0.3112
      5  C5B       17.5470    8.6020   35.8830 C.3   400  NAD400      0.1813
      6  C4B       17.2370    7.3010   35.1540 C.3   400  NAD400      0.1821
      7  O4B       17.8740    7.3830   33.8490 O.3   400  NAD400     -0.3135
      8  C3B       17.8250    6.0330   35.8150 C.3   400  NAD400      0.2184
      9  O3B       16.7980    5.0710   36.0540 O.3   400  NAD400     -0.2174
     10  C2B       18.9350    5.6050   34.8290 C.3   400  NAD400      0.2570
     11  O2B       19.0380    4.1620   34.7760 O.3   400  NAD400     -0.2130
     12  C1B       18.3800    6.1300   33.5150 C.3   400  NAD400      0.3186
     13  N9A       19.4120    6.3400   32.5100 N.pl3 400  NAD400     -0.1439
     14  C8A       20.6600    6.8590   32.6800 C.3   400  NAD400      0.3377
     15  N7A       21.3690    6.9170   31.5370 N.2   400  NAD400     -0.2095
     16  C5A       20.4890    6.4150   30.5870 C.2   400  NAD400      0.2526
     17  C6A       20.6520    6.2130   29.1890 C.2   400  NAD400      0.4393
     18  N6A       21.7580    6.5050   28.5290 N.pl3 400  NAD400      0.2180
     19  N1A       19.5920    5.6690   28.5500 N.2   400  NAD400      0.0021
     20  C2A       18.4670    5.3600   29.2620 C.3   400  NAD400      0.5254
     21  N3A       18.2300    5.5140   30.5480 N.2   400  NAD400     -0.0055
     22  C4A       19.2980    6.0380   31.1650 C.2   400  NAD400      0.3518
     23  O3        17.7680   10.1180   38.8360 O.3   400  NAD400     -0.2703
     24  PN        16.5390   11.0560   39.3200 P.3   400  NAD400      0.2189
     25  O1N       16.8020   11.4960   40.6950 O.3   400  NAD400     -0.4371
     26  O2N       15.2700   10.3620   39.1730 O.2   400  NAD400     -0.5170
     27  O5D       16.7240   12.2710   38.2810 O.3   400  NAD400     -0.3112
     28  C5D       15.8800   12.2650   37.1170 C.3   400  NAD400      0.1813
     29  C4D       16.3580   13.3680   36.1770 C.3   400  NAD400      0.1799
     30  O4D       16.1620   14.6440   36.8440 O.3   400  NAD400     -0.3327
     31  C3D       17.8050   13.3200   35.7460 C.3   400  NAD400      0.2158
     32  O3D       18.0040   13.8020   34.4040 O.3   400  NAD400     -0.2175
     33  C2D       18.4470   14.2530   36.7620 C.3   400  NAD400      0.2309
     34  O2D       19.6910   14.7630   36.2340 O.3   400  NAD400     -0.2158
     35  C1D       17.3770   15.3260   36.9170 C.3   400  NAD400      0.2261
     36  N1N       17.4250   16.0360   38.2270 N.pl3 400  NAD400     -0.2831
     37  C2N       17.3760   15.2650   39.3930 C.2   400  NAD400      0.0633
     38  C3N       17.6600   15.8880   40.6190 C.2   400  NAD400      0.0490
     39  C7N       17.6910   15.1180   41.9440 C.2   400  NAD400      0.2814
     40  O7N       17.9860   15.7200   42.9710 O.2   400  NAD400     -0.2670
     41  N7N       17.3520   13.8010   41.9830 N.am  400  NAD400     -0.0839
     42  C4N       17.8450   17.3090   40.6920 C.3   400  NAD400      0.0341
     43  C5N       17.9120   17.9400   39.4400 C.3   400  NAD400      0.0264
     44  C6N       17.4800   17.4270   38.2220 C.3   400  NAD400      0.0934
@<TRIPOS>BOND
     1    18    17    1
     2    19    17    2
     3    19    20    1
     4    17    16    1
     5    20    21    1
     6    21    22    2
     7    16    22    1
     8    16    15    2
     9    22    13    1
    10    15    14    1
    11    13    14    1
    12    13    12    1
    13    12     7    1
    14    12    10    1
    15     7     6    1
    16    32    31    1
    17    11    10    1
    18    10     8    1
    19     6     8    1
    20     6     5    1
    21    31    29    1
    22    31    33    1
    23     8     9    1
    24     5     4    1
    25    29    30    1
    26    29    28    1
    27    34    33    1
    28    33    35    1
    29    30    35    1
    30    35    36    1
    31    28    27    1
    32     4     1    1
    33    44    36    1
    34    44    43    1
    35    36    37    1
    36    27    24    1
    37     3     1    2
    38     1    23    1
    39     1     2    1
    40    23    24    1
    41    26    24    2
    42    24    25    1
    43    37    38    2
    44    43    42    1
    45    38    42    1
    46    38    39    1
    47    39    41   am
    48    39    40    2
