@<TRIPOS>MOLECULE
1i3n_UD1_A_1.pdb
 39 41 0 0 0
SMALL
GASTEIGER

@<TRIPOS>ATOM
      1  C1'       23.5650   19.5290   44.2220 C.3   401  UD1401      0.2633
      2  C2'       24.3870   18.6220   43.3220 C.3   401  UD1401      0.1845
      3  C3'       25.8370   18.6170   43.8020 C.3   401  UD1401      0.2094
      4  C4'       26.3850   20.0340   43.9780 C.3   401  UD1401      0.2136
      5  C5'       25.4350   20.8580   44.8120 C.3   401  UD1401      0.1834
      6  C6'       25.9070   22.3100   44.9510 C.3   401  UD1401      0.2142
      7  C7'       23.0570   16.8990   42.3350 C.2   401  UD1401      0.2420
      8  C8'       22.5920   15.4810   42.1640 C.3   401  UD1401      0.0964
      9  N2'       23.8910   17.2230   43.3270 N.am  401  UD1401     -0.1992
     10  O1'       23.7330   19.0470   45.5340 O.3   401  UD1401     -0.2864
     11  O3'       26.6550   17.9570   42.8300 O.3   401  UD1401     -0.2183
     12  O4'       27.6750   20.0870   44.5850 O.3   401  UD1401     -0.2176
     13  O5'       24.1520   20.8390   44.1650 O.3   401  UD1401     -0.3260
     14  O6'       26.0960   22.8970   43.6650 O.3   401  UD1401     -0.2176
     15  O7'       22.6490   17.7510   41.5780 O.2   401  UD1401     -0.2733
     16  N1        25.0570   17.2220   52.9310 N.am  401  UD1401     -0.1766
     17  C2        25.7990   16.8910   54.0580 C.1   401  UD1401      0.2845
     18  N3        26.1520   15.5670   54.1280 N.2   401  UD1401     -0.2452
     19  C4        25.8490   14.5550   53.1980 C.1   401  UD1401      0.2182
     20  C5        25.1050   15.0000   52.0820 C.2   401  UD1401      0.1242
     21  C6        24.7370   16.2610   51.9790 C.2   401  UD1401      0.0929
     22  O2        26.1200   17.6710   54.9470 O.2   401  UD1401     -0.1918
     23  O4        26.2370   13.4220   53.3970 O.2   401  UD1401     -0.2085
     24  C1B       24.5700   18.6050   52.7450 C.3   401  UD1401      0.2401
     25  C2B       25.1350   19.3490   51.5600 C.3   401  UD1401      0.2319
     26  O2'       26.3550   20.0240   51.9250 O.3   401  UD1401     -0.2157
     27  C3B       24.0260   20.3900   51.2670 C.3   401  UD1401      0.2158
     28  C4B       22.7820   19.5990   51.6240 C.3   401  UD1401      0.1799
     29  O4B       23.1880   18.5990   52.5980 O.3   401  UD1401     -0.3320
     30  O3B       24.1310   21.6040   52.0440 O.3   401  UD1401     -0.2175
     31  C5B       22.1280   18.9240   50.4460 C.3   401  UD1401      0.1813
     32  O5B       23.1930   18.2540   49.7380 O.3   401  UD1401     -0.3112
     33  PA        22.7890   17.2910   48.5300 P.3   401  UD1401      0.2189
     34  O1A       23.9930   16.6210   47.9900 O.2   401  UD1401     -0.5170
     35  O2A       21.6820   16.3920   48.8930 O.3   401  UD1401     -0.4371
     36  O3A       22.1650   18.3780   47.4600 O.3   401  UD1401     -0.2703
     37  PB        22.8250   19.6090   46.7690 P.3   401  UD1401      0.2208
     38  O1B       21.6790   20.4410   46.3170 O.2   401  UD1401     -0.5170
     39  O2B       23.7510   20.3210   47.6850 O.3   401  UD1401     -0.4371
@<TRIPOS>BOND
     1    15     7    2
     2     8     7    1
     3     7     9   am
     4    11     3    1
     5     2     9    1
     6     2     3    1
     7     2     1    1
     8    14     6    1
     9     3     4    1
    10     4    12    1
    11     4     5    1
    12    13     1    1
    13    13     5    1
    14     1    10    1
    15     5     6    1
    16    10    37    1
    17    38    37    2
    18    37    36    1
    19    37    39    1
    20    36    33    1
    21    34    33    2
    22    33    35    1
    23    33    32    1
    24    32    31    1
    25    31    28    1
    26    27    25    1
    27    27    28    1
    28    27    30    1
    29    25    26    1
    30    25    24    1
    31    28    29    1
    32    21    20    2
    33    21    16    1
    34    20    19    1
    35    29    24    1
    36    24    16    1
    37    16    17   am
    38    19    23    2
    39    19    18    2
    40    17    18    2
    41    17    22    2
