@<TRIPOS>MOLECULE
1i3n_NAD_A_1.pdb
 44 48 0 0 0
SMALL
GASTEIGER

@<TRIPOS>ATOM
      1  PA        17.8950    8.5410   38.4520 P.3   400  NAD400      0.2189
      2  O1A       17.1800    7.7040   39.4720 O.3   400  NAD400     -0.4371
      3  O2A       19.3170    8.2140   38.2250 O.2   400  NAD400     -0.5170
      4  O5B       17.0080    8.4570   37.1360 O.3   400  NAD400     -0.3112
      5  C5B       17.6010    8.5420   35.8430 C.3   400  NAD400      0.1813
      6  C4B       17.2950    7.2610   35.0920 C.3   400  NAD400      0.1821
      7  O4B       17.9330    7.3470   33.7830 O.3   400  NAD400     -0.3135
      8  C3B       17.8920    6.0020   35.7560 C.3   400  NAD400      0.2184
      9  O3B       16.8580    5.0420   35.9820 O.3   400  NAD400     -0.2174
     10  C2B       19.0110    5.5990   34.7800 C.3   400  NAD400      0.2570
     11  O2B       19.1720    4.1800   34.7330 O.3   400  NAD400     -0.2130
     12  C1B       18.4800    6.1150   33.4540 C.3   400  NAD400      0.3186
     13  N9A       19.5260    6.3410   32.4540 N.pl3 400  NAD400     -0.1439
     14  C8A       20.7680    6.8740   32.6280 C.3   400  NAD400      0.3377
     15  N7A       21.4690    6.9340   31.4830 N.2   400  NAD400     -0.2095
     16  C5A       20.5990    6.4170   30.5330 C.2   400  NAD400      0.2526
     17  C6A       20.7610    6.2070   29.1310 C.2   400  NAD400      0.4393
     18  N6A       21.8830    6.5000   28.4790 N.pl3 400  NAD400      0.2180
     19  N1A       19.6860    5.6570   28.4900 N.2   400  NAD400      0.0021
     20  C2A       18.5480    5.3570   29.2070 C.3   400  NAD400      0.5254
     21  N3A       18.3150    5.5240   30.4910 N.2   400  NAD400     -0.0055
     22  C4A       19.4020    6.0360   31.1130 C.2   400  NAD400      0.3518
     23  O3        17.8410   10.0680   38.7830 O.3   400  NAD400     -0.2703
     24  PN        16.6050   11.0140   39.2520 P.3   400  NAD400      0.2189
     25  O1N       16.9020   11.4990   40.6060 O.3   400  NAD400     -0.4371
     26  O2N       15.3510   10.2740   39.0830 O.2   400  NAD400     -0.5170
     27  O5D       16.7600   12.2380   38.2090 O.3   400  NAD400     -0.3112
     28  C5D       15.9910   12.1930   37.0000 C.3   400  NAD400      0.1813
     29  C4D       16.4300   13.3390   36.1270 C.3   400  NAD400      0.1799
     30  O4D       16.2000   14.5710   36.8700 O.3   400  NAD400     -0.3327
     31  C3D       17.8770   13.3490   35.6850 C.3   400  NAD400      0.2158
     32  O3D       18.0490   13.8880   34.3550 O.3   400  NAD400     -0.2175
     33  C2D       18.4750   14.2930   36.7340 C.3   400  NAD400      0.2309
     34  O2D       19.6850   14.8510   36.1980 O.3   400  NAD400     -0.2158
     35  C1D       17.3740   15.3150   36.9290 C.3   400  NAD400      0.2263
     36  N1N       17.4420   16.0390   38.2260 N.pl3 400  NAD400     -0.2787
     37  C2N       17.4070   15.2760   39.3870 C.3   400  NAD400      0.1244
     38  C3N       17.6830   15.9010   40.6020 C.2   400  NAD400      0.0544
     39  C7N       17.7390   15.1290   41.9280 C.2   400  NAD400      0.2818
     40  O7N       18.0180   15.7360   42.9650 O.2   400  NAD400     -0.2670
     41  N7N       17.4690   13.8020   41.9730 N.am  400  NAD400     -0.0839
     42  C4N       17.8580   17.3140   40.6830 C.2   400  NAD400      0.0033
     43  C5N       17.7540   17.9760   39.4420 C.2   400  NAD400      0.0157
     44  C6N       17.5130   17.4300   38.2190 C.2   400  NAD400      0.0633
@<TRIPOS>BOND
     1    18    17    1
     2    19    17    2
     3    19    20    1
     4    17    16    1
     5    20    21    1
     6    21    22    2
     7    16    22    1
     8    16    15    2
     9    22    13    1
    10    15    14    1
    11    13    14    1
    12    13    12    1
    13    12     7    1
    14    12    10    1
    15     7     6    1
    16    32    31    1
    17    11    10    1
    18    10     8    1
    19     6     8    1
    20     6     5    1
    21    31    29    1
    22    31    33    1
    23     8     9    1
    24     5     4    1
    25    29    30    1
    26    29    28    1
    27    34    33    1
    28    33    35    1
    29    30    35    1
    30    35    36    1
    31    28    27    1
    32     4     1    1
    33    27    24    1
    34    44    36    1
    35    44    43    2
    36     3     1    2
    37    36    37    1
    38     1    23    1
    39     1     2    1
    40    23    24    1
    41    26    24    2
    42    24    25    1
    43    37    38    1
    44    43    42    1
    45    38    42    2
    46    38    39    1
    47    39    41   am
    48    39    40    2
