@<TRIPOS>MOLECULE
1i3u_RR1_A_1.pdb
 40 43 0 0 0
SMALL
GASTEIGER

@<TRIPOS>ATOM
      1  O89       26.3420   17.2670   56.4430 O.3   401  RR1401     -0.0649
      2  O90       26.8540   19.4330   57.1230 O.3   401  RR1401     -0.0649
      3  O92       25.2430   18.1930   58.2580 O.3   401  RR1401     -0.0649
      4  S85       25.8110   18.4640   56.9880 S.3   401  RR1401      0.0436
      5  C10       24.4930   19.1630   55.8430 C.ar  401  RR1401      0.1316
      6  C11       23.1950   19.4400   56.3360 C.ar  401  RR1401      0.0205
      7  C12       22.2070   19.9640   55.4700 C.ar  401  RR1401      0.0014
      8  C13       22.5130   20.2130   54.1150 C.ar  401  RR1401      0.0017
      9  C14       23.8130   19.9350   53.6160 C.ar  401  RR1401      0.0222
     10  C4        24.8070   19.4100   54.4810 C.ar  401  RR1401      0.1204
     11  C5        28.8880   18.6950   53.0770 C.ar  401  RR1401      0.2174
     12  C3        27.7720   18.9170   52.2570 C.ar  401  RR1401      0.1591
     13  C9        27.8880   18.7390   50.8680 C.ar  401  RR1401      0.1348
     14  C8        29.0780   18.3530   50.2730 C.ar  401  RR1401      0.0208
     15  C7        30.2020   18.1230   51.0710 C.ar  401  RR1401      0.0071
     16  C6        30.1170   18.2880   52.4850 C.ar  401  RR1401      0.0568
     17  C15       31.2040   18.0300   53.2610 C.ar  401  RR1401      0.0879
     18  C16       32.4300   17.6520   52.6740 C.ar  401  RR1401      0.0364
     19  C17       32.4950   17.5030   51.2850 C.ar  401  RR1401      0.1136
     20  C18       31.3650   17.7280   50.4890 C.ar  401  RR1401      0.0191
     21  O28       28.7610   18.8610   54.4230 O.3   401  RR1401     -0.2848
     22  O37       33.8320   15.6150   50.4200 O.3   401  RR1401     -0.0650
     23  O38       35.1430   16.9810   51.2860 O.3   401  RR1401     -0.0650
     24  O41       34.0880   17.4210   49.1270 O.3   401  RR1401     -0.0650
     25  S36       34.0000   17.0220   50.4730 S.3   401  RR1401      0.0421
     26  O39       25.8340   20.3040   50.0500 O.3   401  RR1401     -0.0649
     27  O40       26.7780   18.8600   48.4510 O.3   401  RR1401     -0.0649
     28  O42       25.4620   17.9790   50.1560 O.3   401  RR1401     -0.0649
     29  S35       26.3920   19.0010   49.8030 S.3   401  RR1401      0.0437
     30  N1        26.1640   19.0930   53.9690 N.2   401  RR1401     -0.1465
     31  N2        26.4540   19.3170   52.8150 N.2   401  RR1401     -0.1434
     32  N19       30.9920   18.1650   54.6940 N.pl3 401  RR1401     -0.1241
     33  C20       31.8540   17.7660   55.7230 C.1   401  RR1401      0.2464
     34  N21       31.4150   18.0000   57.0210 N.2   401  RR1401     -0.2423
     35  C22       32.1610   17.5960   58.1130 C.1   401  RR1401      0.2632
     36  N23       33.4110   16.9140   57.9210 N.2   401  RR1401     -0.2413
     37  C24       33.8820   16.6570   56.5680 C.1   401  RR1401      0.2632
     38  N25       33.0900   17.0870   55.4640 N.2   401  RR1401     -0.2423
     39  NL1       35.0690   15.9720   56.3370 N.pl3 401  RR1401     -0.0220
     40  NL2       31.6820   17.8620   59.3820 N.pl3 401  RR1401     -0.0220
@<TRIPOS>BOND
     1    27    29    1
     2    24    25    1
     3    29    26    1
     4    29    28    1
     5    29    13    1
     6    14    13   ar
     7    14    15   ar
     8    22    25    1
     9    25    19    1
    10    25    23    1
    11    20    15   ar
    12    20    19   ar
    13    13    12   ar
    14    15    16   ar
    15    19    18   ar
    16    12    31    1
    17    12    11   ar
    18    16    11   ar
    19    16    17   ar
    20    18    17   ar
    21    31    30    2
    22    11    21    1
    23    17    32    1
    24     9     8   ar
    25     9    10   ar
    26    30    10    1
    27     8     7   ar
    28    10     5   ar
    29    32    33    1
    30    38    33    2
    31    38    37    2
    32     7     6   ar
    33    33    34    2
    34     5     6   ar
    35     5     4    1
    36    39    37    1
    37     1     4    1
    38    37    36    2
    39     4     2    1
    40     4     3    1
    41    34    35    2
    42    36    35    2
    43    35    40    1
