@<TRIPOS>MOLECULE
1i41_HEN_A_1.pdb
 27 27 0 0 0
SMALL
GASTEIGER

@<TRIPOS>ATOM
      1  N1        97.6040  -50.1910   82.5240 N.ar  500  HEN500     -0.2452
      2  C2        96.7570  -50.6190   83.5600 C.ar  500  HEN500      0.0978
      3  C2A       97.3220  -50.4380   84.9360 C.3   500  HEN500      0.0555
      4  C3        95.4780  -51.1590   83.2020 C.ar  500  HEN500      0.2067
      5  O3        94.6710  -51.5710   84.1520 O.3   500  HEN500     -0.2856
      6  C4        95.1490  -51.2170   81.7600 C.ar  500  HEN500      0.0421
      7  C4A       93.7750  -51.7490   81.2930 C.3   500  HEN500      0.1551
      8  C5        96.1440  -50.7270   80.7620 C.ar  500  HEN500      0.0280
      9  C6        97.3440  -50.2270   81.1800 C.ar  500  HEN500      0.0965
     10  C5A       95.7940  -50.7980   79.2540 C.3   500  HEN500      0.1816
     11  OP4       95.5240  -49.5190   78.7130 O.3   500  HEN500     -0.2653
     12  P         94.5080  -49.3970   77.4220 P.3   500  HEN500      0.5329
     13  OP1       94.2400  -47.9410   77.2410 O.3   500  HEN500     -0.1145
     14  OP2       93.2710  -50.1040   77.7100 O.3   500  HEN500     -0.1145
     15  OP3       95.2260  -50.0500   76.2970 O.2   500  HEN500     -0.2224
     16  N4A       92.7100  -52.1850   82.0600 N.2   500  HEN500     -0.2590
     17  CAI       91.5900  -52.6310   81.8640 C.2   500  HEN500      0.1557
     18  CBC       90.6630  -52.9740   83.0620 C.2   500  HEN500      0.4047
     19  O2B       91.1050  -53.8420   83.9620 O.co2 500  HEN500     -0.2389
     20  O3B       89.5350  -52.4710   83.2340 O.co2 500  HEN500     -0.2389
     21  CBI       91.0700  -52.8410   80.4690 C.2   500  HEN500      0.0213
     22  CGI       90.8420  -54.0890   80.0910 C.2   500  HEN500     -0.0167
     23  CEI       90.2890  -54.4650   78.7620 C.3   500  HEN500      0.0849
     24  PG        89.1430  -55.8740   79.1740 P.3   500  HEN500      0.1216
     25  OG1       89.9420  -57.0250   79.9800 O.3   500  HEN500     -0.3569
     26  OG2       88.6550  -56.4850   77.9130 O.2   500  HEN500     -0.4598
     27  OG3       88.1400  -55.2980   80.1090 O.3   500  HEN500     -0.3569
@<TRIPOS>BOND
     1    15    12    2
     2    13    12    1
     3    12    14    1
     4    12    11    1
     5    26    24    2
     6    11    10    1
     7    23    24    1
     8    23    22    1
     9    24    25    1
    10    24    27    1
    11    10     8    1
    12    22    21    2
    13    21    17    1
    14     8     9   ar
    15     8     6   ar
    16     9     1   ar
    17     7     6    1
    18     7    16    1
    19     6     4   ar
    20    17    16    2
    21    17    18    1
    22     1     2   ar
    23    18    20   ar
    24    18    19   ar
    25     4     2   ar
    26     4     5    1
    27     2     3    1
