@<TRIPOS>MOLECULE
1i43_PLP_A_1.pdb
 15 15 0 0 0
SMALL
GASTEIGER

@<TRIPOS>ATOM
      1  N1        74.8730  -27.7340  111.2090 N.ar  500  PLP500     -0.2452
      2  C2        75.2820  -26.8000  112.1620 C.ar  500  PLP500      0.0978
      3  C2A       75.5600  -27.3770  113.5420 C.3   500  PLP500      0.0555
      4  C3        75.4410  -25.4090  111.7120 C.ar  500  PLP500      0.2049
      5  O3        75.7060  -24.5640  112.7370 O.3   500  PLP500     -0.2857
      6  C4        75.2100  -25.0660  110.3510 C.ar  500  PLP500      0.0182
      7  C4A       75.4560  -23.6690  109.8900 C.3   500  PLP500      0.0342
      8  C5        74.7590  -26.2000  109.4080 C.ar  500  PLP500      0.0261
      9  C6        74.6110  -27.4780  109.8990 C.ar  500  PLP500      0.0965
     10  C5A       74.3310  -25.9300  107.9380 C.3   500  PLP500      0.1815
     11  O4P       75.0200  -24.8910  107.2420 O.3   500  PLP500     -0.2653
     12  P         74.4170  -24.2510  105.8890 P.3   500  PLP500      0.5329
     13  O1P       73.0660  -23.6840  106.2920 O.3   500  PLP500     -0.1145
     14  O2P       74.2270  -25.2400  104.8380 O.2   500  PLP500     -0.2224
     15  O3P       75.3850  -23.1910  105.5980 O.3   500  PLP500     -0.1145
@<TRIPOS>BOND
     1    14    12    2
     2    15    12    1
     3    12    13    1
     4    12    11    1
     5    11    10    1
     6    10     8    1
     7     8     9   ar
     8     8     6   ar
     9     7     6    1
    10     9     1   ar
    11     6     4   ar
    12     1     2   ar
    13     4     2   ar
    14     4     5    1
    15     2     3    1
