@<TRIPOS>MOLECULE
1i43_PMC_A_1.pdb
 14 14 0 0 0
SMALL
GASTEIGER

@<TRIPOS>ATOM
      1  C2        69.8420  -21.9140  112.3720 C.ar  600  PMC600      0.1572
      2  C3        69.4050  -21.7250  111.0000 C.ar  600  PMC600      0.0093
      3  CA        67.9270  -21.3890  110.6470 C.3   600  PMC600      0.0869
      4  P1        66.6650  -22.7400  110.5440 P.3   600  PMC600      0.1216
      5  O3        67.2530  -24.0590  110.9160 O.3   600  PMC600     -0.3569
      6  O2        65.5290  -22.4270  111.4620 O.3   600  PMC600     -0.3569
      7  O1        66.1340  -22.8290  109.1630 O.2   600  PMC600     -0.4598
      8  C4        70.3830  -21.8590  109.9720 C.ar  600  PMC600     -0.0005
      9  C5        71.7360  -22.1650  110.2810 C.ar  600  PMC600      0.0204
     10  C6        72.0920  -22.3290  111.6340 C.ar  600  PMC600      0.0991
     11  N1        71.1510  -22.2030  112.6230 N.ar  600  PMC600     -0.2375
     12  C         68.9540  -21.8130  113.6160 C.2   600  PMC600      0.4048
     13  OC1       68.8490  -22.8870  114.3990 O.co2 600  PMC600     -0.2389
     14  OC2       68.3530  -20.7970  113.9470 O.co2 600  PMC600     -0.2389
@<TRIPOS>BOND
     1     7     4    2
     2     8     9   ar
     3     8     2   ar
     4     9    10   ar
     5     4     3    1
     6     4     5    1
     7     4     6    1
     8     3     2    1
     9     2     1   ar
    10    10    11   ar
    11     1    11   ar
    12     1    12    1
    13    12    14   ar
    14    12    13   ar
