@<TRIPOS>MOLECULE
1i44_ACP_A_1.pdb
 31 33 0 0 0
SMALL
GASTEIGER

@<TRIPOS>ATOM
      1  PG        16.4480   24.2660   19.9340 P.3   300  ACP300      0.1295
      2  O1G       16.9310   22.9540   19.4820 O.3   300  ACP300     -0.3567
      3  O2G       16.9750   25.4200   19.1470 O.2   300  ACP300     -0.4595
      4  O3G       16.5500   24.4500   21.4090 O.3   300  ACP300     -0.3567
      5  PB        13.9090   24.7300   18.1790 P.3   300  ACP300      0.3815
      6  O1B       14.1260   26.1890   18.0460 O.3   300  ACP300     -0.1391
      7  O2B       14.2900   23.9190   17.0060 O.2   300  ACP300     -0.2547
      8  C3B       14.7610   24.2180   19.5750 C.3   300  ACP300      0.1768
      9  PA        11.5480   23.2420   18.5700 P.3   300  ACP300      0.2209
     10  O1A       11.2900   22.7260   17.2040 O.2   300  ACP300     -0.5170
     11  O2A       12.1240   22.3370   19.5950 O.3   300  ACP300     -0.4371
     12  O3A       12.4230   24.4920   18.4740 O.3   300  ACP300     -0.2483
     13  O5'       10.1700   23.8590   19.1570 O.3   300  ACP300     -0.3111
     14  C5'        9.9420   24.2710   20.5320 C.3   300  ACP300      0.1813
     15  C4'        8.6490   23.6940   21.0640 C.3   300  ACP300      0.1821
     16  O4'        7.5610   24.0680   20.1720 O.3   300  ACP300     -0.3135
     17  C3'        8.5800   22.1720   21.1300 C.3   300  ACP300      0.2184
     18  O3'        9.1240   21.6770   22.3510 O.3   300  ACP300     -0.2174
     19  C2'        7.0810   21.9240   21.0590 C.3   300  ACP300      0.2570
     20  O2'        6.4430   22.1670   22.2970 O.3   300  ACP300     -0.2130
     21  C1'        6.6510   22.9840   20.0410 C.3   300  ACP300      0.3186
     22  N9         6.6950   22.5010   18.6550 N.pl3 300  ACP300     -0.1439
     23  C8         7.6460   22.7750   17.6950 C.3   300  ACP300      0.3377
     24  N7         7.4340   22.1700   16.5510 N.2   300  ACP300     -0.2095
     25  C5         6.2640   21.4510   16.7640 C.2   300  ACP300      0.2526
     26  C6         5.5100   20.5960   15.9290 C.2   300  ACP300      0.4393
     27  N6         5.8550   20.2950   14.6740 N.pl3 300  ACP300      0.2180
     28  N1         4.3790   20.0510   16.4380 N.2   300  ACP300      0.0021
     29  C2         4.0420   20.3450   17.7010 C.3   300  ACP300      0.5254
     30  N3         4.6730   21.1250   18.5880 N.2   300  ACP300     -0.0055
     31  C4         5.7890   21.6550   18.0510 C.2   300  ACP300      0.3518
@<TRIPOS>BOND
     1    27    26    1
     2    26    28    2
     3    26    25    1
     4    28    29    1
     5    24    25    2
     6    24    23    1
     7    25    31    1
     8     7     5    2
     9    10     9    2
    10    23    22    1
    11    29    30    1
    12     6     5    1
    13    31    30    2
    14    31    22    1
    15     5    12    1
    16     5     8    1
    17    12     9    1
    18     9    13    1
    19     9    11    1
    20    22    21    1
    21     3     1    2
    22    13    14    1
    23     2     1    1
    24     8     1    1
    25     1     4    1
    26    21    16    1
    27    21    19    1
    28    16    15    1
    29    14    15    1
    30    19    17    1
    31    19    20    1
    32    15    17    1
    33    17    18    1
