@<TRIPOS>MOLECULE
1i48_CCO_A_1.pdb
 17 18 0 0 0
SMALL
GASTEIGER

@<TRIPOS>ATOM
      1  C1       -83.4090  -54.3930  165.8570 C.ar  600  CCO600      0.0779
      2  C2       -84.5410  -54.0070  165.0780 C.ar  600  CCO600      0.0112
      3  C3       -85.5740  -53.2140  165.6500 C.ar  600  CCO600      0.0016
      4  C4       -85.4770  -52.8030  167.0110 C.ar  600  CCO600      0.0114
      5  C5       -84.3470  -53.1880  167.7900 C.ar  600  CCO600      0.0584
      6  C6       -83.3190  -53.9790  167.2190 C.ar  600  CCO600      0.0225
      7 CL5       -84.2260  -52.6810  169.4610 Cl    600  CCO600     -0.0822
      8  O1       -80.3220  -56.2630  164.9540 O.2   600  CCO600     -0.3041
      9  C2A      -81.2180  -56.5370  163.9530 C.2   600  CCO600      0.3452
     10  S3       -80.8410  -57.5900  162.5810 S.3   600  CCO600     -0.0285
     11  N3       -82.4040  -55.9280  164.1260 N.2   600  CCO600     -0.3032
     12  C1A      -82.3320  -55.2230  165.2600 C.1   600  CCO600      0.1277
     13  N2       -81.1000  -55.4110  165.7650 N.2   600  CCO600     -0.0062
     14  C1B      -79.6130  -58.6970  163.3630 C.3   600  CCO600      0.1815
     15  C        -80.2070  -59.6180  164.4040 C.2   600  CCO600      0.3762
     16  O2       -79.4080  -60.1100  165.2500 O.co2 600  CCO600     -0.2447
     17  O3       -81.4470  -59.8670  164.3970 O.co2 600  CCO600     -0.2447
@<TRIPOS>BOND
     1    10    14    1
     2    10     9    1
     3    14    15    1
     4     9    11    2
     5     9     8    1
     6    11    12    2
     7    17    15   ar
     8    15    16   ar
     9     8    13    1
    10     2     3   ar
    11     2     1   ar
    12    12    13    2
    13    12     1    1
    14     3     4   ar
    15     1     6   ar
    16     4     5   ar
    17     6     5   ar
    18     5     7    1
