@<TRIPOS>MOLECULE
1i48_PLP_A_1.pdb
 15 15 0 0 0
SMALL
GASTEIGER

@<TRIPOS>ATOM
      1  N1       -72.6130  -55.2130  166.1430 N.ar  500  PLP500     -0.2452
      2  C2       -73.6540  -55.1180  167.0830 C.ar  500  PLP500      0.0978
      3  C2A      -73.3810  -55.8150  168.4090 C.3   500  PLP500      0.0555
      4  C3       -74.8900  -54.4220  166.6470 C.ar  500  PLP500      0.2049
      5  O3       -75.8680  -54.4270  167.5960 O.3   500  PLP500     -0.2857
      6  C4       -74.9750  -53.9010  165.3370 C.ar  500  PLP500      0.0182
      7  C4A      -76.2110  -53.2150  164.9250 C.3   500  PLP500      0.0342
      8  C5       -73.7780  -54.0920  164.4170 C.ar  500  PLP500      0.0261
      9  C6       -72.6410  -54.7340  164.8620 C.ar  500  PLP500      0.0965
     10  C5A      -73.8700  -53.6070  162.9560 C.3   500  PLP500      0.1815
     11  O4P      -73.0290  -52.5100  162.6550 O.3   500  PLP500     -0.2653
     12  P        -72.9780  -51.9370  161.1540 P.3   500  PLP500      0.5329
     13  O1P      -74.4360  -51.6850  160.7610 O.3   500  PLP500     -0.1145
     14  O2P      -72.3490  -52.9740  160.3190 O.2   500  PLP500     -0.2224
     15  O3P      -72.2460  -50.6780  161.2630 O.3   500  PLP500     -0.1145
@<TRIPOS>BOND
     1    14    12    2
     2    13    12    1
     3    12    15    1
     4    12    11    1
     5    11    10    1
     6    10     8    1
     7     8     9   ar
     8     8     6   ar
     9     9     1   ar
    10     7     6    1
    11     6     4   ar
    12     1     2   ar
    13     4     2   ar
    14     4     5    1
    15     2     3    1
