@<TRIPOS>MOLECULE
1i4d_GDP_D_1.pdb
 28 30 0 0 0
SMALL
GASTEIGER

@<TRIPOS>ATOM
      1  PB        -9.3490    5.1420   53.7960 P.3   200  GDP200      0.5373
      2  O1B       -8.8670    6.5320   54.0220 O.3   200  GDP200     -0.1143
      3  O2B      -10.7470    5.1520   53.1630 O.3   200  GDP200     -0.1143
      4  O3B       -8.4300    4.3270   52.8770 O.2   200  GDP200     -0.2221
      5  O3A       -9.4580    4.4400   55.1980 O.3   200  GDP200     -0.2261
      6  PA        -9.1350    2.8720   55.3330 P.3   200  GDP200      0.2231
      7  O1A       -9.8630    2.1360   54.3180 O.2   200  GDP200     -0.5169
      8  O2A       -7.5800    2.7120   55.2910 O.3   200  GDP200     -0.4370
      9  O5'       -9.7410    2.6540   56.8000 O.3   200  GDP200     -0.3111
     10  C5'       -9.4810    3.6590   57.7610 C.3   200  GDP200      0.1813
     11  C4'       -9.8170    3.1010   59.1570 C.3   200  GDP200      0.1799
     12  O4'      -11.2200    2.8130   59.2280 O.3   200  GDP200     -0.3326
     13  C3'       -9.0730    1.8000   59.4410 C.3   200  GDP200      0.2158
     14  O3'       -8.4800    1.8040   60.7200 O.3   200  GDP200     -0.2175
     15  C2'      -10.1310    0.7110   59.3410 C.3   200  GDP200      0.2310
     16  O2'       -9.8870   -0.3910   60.2110 O.3   200  GDP200     -0.2158
     17  C1'      -11.4140    1.4670   59.6600 C.3   200  GDP200      0.2293
     18  N9       -12.5590    0.9070   58.9500 N.pl3 200  GDP200     -0.2354
     19  C8       -12.7380    0.9370   57.6070 C.3   200  GDP200      0.2246
     20  N7       -13.9190    0.3690   57.3040 N.2   200  GDP200     -0.2322
     21  C5       -14.4920   -0.0410   58.4440 C.2   200  GDP200      0.2182
     22  C6       -15.6950   -0.7040   58.6700 C.1   200  GDP200      0.2372
     23  O6       -16.5550   -0.8520   57.7910 O.2   200  GDP200     -0.2069
     24  N1       -16.0620   -1.0130   59.9480 N.2   200  GDP200     -0.2485
     25  C2       -15.2400   -0.6670   60.9860 C.1   200  GDP200      0.2531
     26  N2       -15.6930   -0.9900   62.1880 N.pl3 200  GDP200     -0.0226
     27  N3       -14.0390    0.0160   60.7750 N.2   200  GDP200     -0.3074
     28  C4       -13.6640    0.3140   59.5030 C.2   200  GDP200      0.2300
@<TRIPOS>BOND
     1     4     1    2
     2     3     1    1
     3     1     2    1
     4     1     5    1
     5     7     6    2
     6     5     6    1
     7     8     6    1
     8     6     9    1
     9     9    10    1
    10    20    19    1
    11    20    21    2
    12    19    18    1
    13    10    11    1
    14    23    22    2
    15    21    22    1
    16    21    28    1
    17    22    24    2
    18    18    28    1
    19    18    17    1
    20    11    12    1
    21    11    13    1
    22    12    17    1
    23    15    13    1
    24    15    17    1
    25    15    16    1
    26    13    14    1
    27    28    27    2
    28    24    25    2
    29    27    25    2
    30    25    26    1
