@<TRIPOS>MOLECULE
1i4l_GDP_D_1.pdb
 28 30 0 0 0
SMALL
GASTEIGER

@<TRIPOS>ATOM
      1  PB         7.4330   30.4290   -9.5150 P.3   200  GDP200      0.5373
      2  O1B        8.0850   30.5990  -10.8320 O.2   200  GDP200     -0.2221
      3  O2B        8.1170   31.2740   -8.4140 O.3   200  GDP200     -0.1143
      4  O3B        5.9640   30.8550   -9.6580 O.3   200  GDP200     -0.1143
      5  O3A        7.5260   28.8710   -9.1740 O.3   200  GDP200     -0.2261
      6  PA         8.0580   28.3170   -7.7680 P.3   200  GDP200      0.2231
      7  O1A        9.5200   28.4650   -7.6210 O.2   200  GDP200     -0.5169
      8  O2A        7.2830   28.9170   -6.5750 O.3   200  GDP200     -0.4370
      9  O5'        7.6910   26.7620   -7.9280 O.3   200  GDP200     -0.3111
     10  C5'        6.3370   26.3720   -7.8810 C.3   200  GDP200      0.1813
     11  C4'        6.2770   24.9220   -7.4340 C.3   200  GDP200      0.1799
     12  O4'        7.1590   24.1810   -8.2480 O.3   200  GDP200     -0.3326
     13  C3'        6.7410   24.7400   -5.9980 C.3   200  GDP200      0.2158
     14  O3'        5.8550   23.8370   -5.3610 O.3   200  GDP200     -0.2175
     15  C2'        8.1550   24.1920   -6.1410 C.3   200  GDP200      0.2310
     16  O2'        8.5450   23.3070   -5.1160 O.3   200  GDP200     -0.2158
     17  C1'        8.0860   23.4680   -7.4670 C.3   200  GDP200      0.2293
     18  N9         9.3550   23.4930   -8.1880 N.pl3 200  GDP200     -0.2354
     19  C8        10.0470   24.6000   -8.5930 C.3   200  GDP200      0.2246
     20  N7        11.1580   24.1810   -9.2460 N.2   200  GDP200     -0.2322
     21  C5        11.1680   22.8300   -9.2710 C.2   200  GDP200      0.2182
     22  C6        12.0550   21.9010   -9.8060 C.1   200  GDP200      0.2372
     23  O6        13.1390   22.2690  -10.2730 O.2   200  GDP200     -0.2069
     24  N1        11.7790   20.5520   -9.6640 N.2   200  GDP200     -0.2485
     25  C2        10.6380   20.1440   -9.0000 C.1   200  GDP200      0.2531
     26  N2        10.4730   18.8660   -8.6780 N.pl3 200  GDP200     -0.0226
     27  N3         9.7690   21.0740   -8.4800 N.2   200  GDP200     -0.3074
     28  C4        10.0330   22.3900   -8.6110 C.2   200  GDP200      0.2300
@<TRIPOS>BOND
     1     2     1    2
     2    23    22    2
     3    22    24    2
     4    22    21    1
     5    24    25    2
     6     4     1    1
     7     1     5    1
     8     1     3    1
     9    21    20    2
    10    21    28    1
    11    20    19    1
    12     5     6    1
    13    25    26    1
    14    25    27    2
    15    28    27    2
    16    28    18    1
    17    19    18    1
    18    12    17    1
    19    12    11    1
    20    18    17    1
    21     9    10    1
    22     9     6    1
    23    10    11    1
    24     6     7    2
    25     6     8    1
    26    17    15    1
    27    11    13    1
    28    15    13    1
    29    15    16    1
    30    13    14    1
