@<TRIPOS>MOLECULE
1i4t_GNP_D_1.pdb
 32 34 0 0 0
SMALL
GASTEIGER

@<TRIPOS>ATOM
      1  PG        23.5910   51.3000    8.6640 P.3   1200  GNP1200     0.4884
      2  O1G       22.7770   51.2650    9.8940 O.3   1200  GNP1200    -0.1240
      3  O2G       23.0650   50.5710    7.5300 O.2   1200  GNP1200    -0.2331
      4  O3G       23.6080   52.7770    8.3290 O.3   1200  GNP1200    -0.1240
      5  N3B       25.1260   50.8450    8.8030 N.3   1200  GNP1200    -0.0163
      6  PB        25.6710   49.3790    9.1160 P.3   1200  GNP1200     0.4669
      7  O1B       25.6190   49.2160   10.5890 O.3   1200  GNP1200    -0.1253
      8  O2B       24.9150   48.3860    8.3070 O.2   1200  GNP1200    -0.2351
      9  O3A       27.1440   49.2690    8.7070 O.3   1200  GNP1200    -0.2360
     10  PA        27.6760   48.7090    7.3780 P.3   1200  GNP1200     0.2220
     11  O1A       27.4760   47.2510    7.3260 O.3   1200  GNP1200    -0.4370
     12  O2A       27.1830   49.4990    6.2260 O.2   1200  GNP1200    -0.5170
     13  O5'       29.2420   48.9330    7.3640 O.3   1200  GNP1200    -0.3111
     14  C5'       29.7900   50.2460    7.4970 C.3   1200  GNP1200     0.1813
     15  C4'       31.2300   50.2580    7.0130 C.3   1200  GNP1200     0.1799
     16  O4'       32.0080   49.4160    7.8930 O.3   1200  GNP1200    -0.3326
     17  C3'       31.4580   49.7330    5.5970 C.3   1200  GNP1200     0.2158
     18  O3'       32.3310   50.6100    4.8800 O.3   1200  GNP1200    -0.2175
     19  C2'       32.0440   48.3410    5.8250 C.3   1200  GNP1200     0.2310
     20  O2'       32.9360   47.9220    4.8160 O.3   1200  GNP1200    -0.2158
     21  C1'       32.7740   48.5090    7.1450 C.3   1200  GNP1200     0.2293
     22  N9        32.7650   47.2930    7.9350 N.pl3 1200  GNP1200    -0.2354
     23  C8        31.6420   46.6330    8.3650 C.3   1200  GNP1200     0.2246
     24  N7        31.9020   45.5630    9.0610 N.2   1200  GNP1200    -0.2322
     25  C5        33.2900   45.5150    9.1040 C.2   1200  GNP1200     0.2182
     26  C6        34.1510   44.5750    9.7300 C.1   1200  GNP1200     0.2372
     27  O6        33.8420   43.5700   10.3850 O.2   1200  GNP1200    -0.2069
     28  N1        35.4940   44.8840    9.5370 N.2   1200  GNP1200    -0.2485
     29  C2        35.9430   45.9710    8.8260 C.1   1200  GNP1200     0.2531
     30  N2        37.2700   46.1070    8.7450 N.pl3 1200  GNP1200    -0.0226
     31  N3        35.1530   46.8650    8.2370 N.2   1200  GNP1200    -0.3074
     32  C4        33.8380   46.5760    8.4150 C.2   1200  GNP1200     0.2300
@<TRIPOS>BOND
     1    20    19    1
     2    18    17    1
     3    17    19    1
     4    17    15    1
     5    19    21    1
     6    12    10    2
     7    15    14    1
     8    15    16    1
     9    21    16    1
    10    21    22    1
    11    11    10    1
    12    13    10    1
    13    13    14    1
    14    10     9    1
    15     3     1    2
    16    22    23    1
    17    22    32    1
    18    31    32    2
    19    31    29    2
    20     8     6    2
    21     4     1    1
    22    23    24    1
    23    32    25    1
    24     1     5    1
    25     1     2    1
    26     9     6    1
    27    30    29    1
    28     5     6    1
    29    29    28    2
    30    24    25    2
    31    25    26    1
    32     6     7    1
    33    28    26    2
    34    26    27    2
