@<TRIPOS>MOLECULE
1i52_CTP_A_1.pdb
 29 30 0 0 0
SMALL
GASTEIGER

@<TRIPOS>ATOM
      1  N1        48.1000  -14.9230   32.8480 N.am  1001  CTP1001    -0.1778
      2  C2        46.8370  -15.0970   33.3780 C.1   1001  CTP1001     0.2756
      3  N3        46.6070  -15.8310   34.4800 N.2   1001  CTP1001    -0.3024
      4  C4        47.6590  -16.4540   35.1210 C.2   1001  CTP1001     0.2346
      5  C5        48.9720  -16.3290   34.6450 C.2   1001  CTP1001     0.0687
      6  C6        49.1400  -15.5560   33.5040 C.2   1001  CTP1001     0.0836
      7  O2        45.8260  -14.5710   32.8650 O.2   1001  CTP1001    -0.1925
      8  N4        47.3710  -17.1780   36.2180 N.pl3 1001  CTP1001    -0.0921
      9  C1'       48.3180  -14.1030   31.6120 C.3   1001  CTP1001     0.2400
     10  C2'       49.2120  -12.9190   31.8830 C.3   1001  CTP1001     0.2319
     11  O2'       48.5090  -11.8650   32.5430 O.3   1001  CTP1001    -0.2157
     12  C3'       49.7290  -12.6000   30.5090 C.3   1001  CTP1001     0.2158
     13  C4'       49.6820  -13.9170   29.7220 C.3   1001  CTP1001     0.1799
     14  O4'       49.0600  -14.8370   30.6650 O.3   1001  CTP1001    -0.3320
     15  O3'       48.9070  -11.7200   29.7620 O.3   1001  CTP1001    -0.2175
     16  C5'       51.1450  -14.1010   29.5470 C.3   1001  CTP1001     0.1813
     17  O5'       51.6870  -15.0460   30.4190 O.3   1001  CTP1001    -0.3112
     18  PA        53.0600  -14.6960   31.3130 P.3   1001  CTP1001     0.2189
     19  O1A       53.6900  -13.4200   30.7100 O.2   1001  CTP1001    -0.5170
     20  O2A       53.9980  -15.9080   31.1230 O.3   1001  CTP1001    -0.4371
     21  O3A       52.5780  -14.6050   32.9190 O.3   1001  CTP1001    -0.2700
     22  PB        52.7430  -13.2780   33.8910 P.3   1001  CTP1001     0.2277
     23  O1B       52.1490  -13.7680   35.2260 O.3   1001  CTP1001    -0.4368
     24  O2B       51.9200  -12.0920   33.3380 O.2   1001  CTP1001    -0.5168
     25  O3B       54.3600  -12.8760   34.1280 O.3   1001  CTP1001    -0.2258
     26  PG        55.3540  -13.6860   35.2120 P.3   1001  CTP1001     0.5373
     27  O1G       54.7350  -13.5100   36.6470 O.3   1001  CTP1001    -0.1143
     28  O2G       56.7410  -12.9880   35.0650 O.3   1001  CTP1001    -0.1143
     29  O3G       55.3580  -15.1710   34.7730 O.2   1001  CTP1001    -0.2221
@<TRIPOS>BOND
     1    16    13    1
     2    16    17    1
     3    13    12    1
     4    13    14    1
     5    15    12    1
     6    17    18    1
     7    12    10    1
     8    14     9    1
     9    19    18    2
    10    20    18    1
    11    18    21    1
    12     9    10    1
    13     9     1    1
    14    10    11    1
    15     1     2   am
    16     1     6    1
    17     7     2    2
    18    21    22    1
    19    24    22    2
    20     2     3    2
    21     6     5    2
    22    22    25    1
    23    22    23    1
    24    25    26    1
    25     3     4    2
    26     5     4    1
    27    29    26    2
    28    28    26    1
    29     4     8    1
    30    26    27    1
