@<TRIPOS>MOLECULE
1i54_ZNH_A_1.pdb
 43 50 0 0 0
SMALL
GASTEIGER

@<TRIPOS>ATOM
      1 ZN         15.7730    1.3550   17.9090 Zn    1105  ZNH1105     0.0000
      2  CHA       15.0250    0.0550   20.9990 C.2   1105  ZNH1105     0.0000
      3  CHB       17.5320   -1.4490   17.1540 C.2   1105  ZNH1105     0.0000
      4  CHC       16.1270    2.4250   14.6780 C.2   1105  ZNH1105     0.0000
      5  CHD       14.2730    4.2780   18.7490 C.2   1105  ZNH1105     0.0000
      6  NA        16.1800   -0.3780   18.8870 N.ar  1105  ZNH1105     0.0000
      7  C1A       15.7510   -0.7630   20.1270 C.ar  1105  ZNH1105     0.0000
      8  C2A       16.2480   -2.0850   20.4230 C.ar  1105  ZNH1105     0.0000
      9  C3A       16.9880   -2.4750   19.3530 C.ar  1105  ZNH1105     0.0000
     10  C4A       16.9410   -1.4050   18.4110 C.ar  1105  ZNH1105     0.0000
     11  CMA       17.6860   -3.7990   19.1310 C.3   1105  ZNH1105     0.0000
     12  CAA       16.0150   -2.8700   21.6950 C.3   1105  ZNH1105     0.0000
     13  CBA       17.1460   -2.5760   22.6670 C.3   1105  ZNH1105     0.0000
     14  CGA       17.0380   -3.3470   23.9710 C.2   1105  ZNH1105     0.0000
     15  O1A       17.9430   -3.1900   24.8120 O.co2 1105  ZNH1105     0.0000
     16  O2A       16.0670   -4.1090   24.1590 O.co2 1105  ZNH1105     0.0000
     17  NB        16.6610    0.6190   16.2260 N.2   1105  ZNH1105     0.0000
     18  C1B       17.4220   -0.5130   16.1390 C.2   1105  ZNH1105     0.0000
     19  C2B       18.0020   -0.6490   14.8370 C.2   1105  ZNH1105     0.0000
     20  C3B       17.5370    0.4020   14.0960 C.2   1105  ZNH1105     0.0000
     21  C4B       16.7150    1.1990   14.9870 C.2   1105  ZNH1105     0.0000
     22  CMB       19.0190   -1.7170   14.4460 C.3   1105  ZNH1105     0.0000
     23  CAB       17.7350    0.6330   12.7420 C.3   1105  ZNH1105     0.0000
     24  CBB       17.2460   -0.2410   11.7910 C.3   1105  ZNH1105     0.0000
     25  NC        15.1950    3.0130   16.8710 N.ar  1105  ZNH1105     0.0000
     26  C1C       15.4270    3.2700   15.5490 C.ar  1105  ZNH1105     0.0000
     27  C2C       15.0010    4.6010   15.2100 C.ar  1105  ZNH1105     0.0000
     28  C3C       14.5320    5.1810   16.3640 C.ar  1105  ZNH1105     0.0000
     29  C4C       14.6550    4.1540   17.3990 C.ar  1105  ZNH1105     0.0000
     30  CMC       15.1090    5.1860   13.8040 C.3   1105  ZNH1105     0.0000
     31  CAC       14.1110    6.4940   16.5890 C.3   1105  ZNH1105     0.0000
     32  CBC       13.2680    7.2300   15.7770 C.3   1105  ZNH1105     0.0000
     33  ND        14.8590    2.0510   19.5920 N.2   1105  ZNH1105     0.0000
     34  C1D       14.3540    3.3080   19.7610 C.2   1105  ZNH1105     0.0000
     35  C2D       13.7900    3.4420   21.0820 C.2   1105  ZNH1105     0.0000
     36  C3D       13.9350    2.2320   21.7070 C.2   1105  ZNH1105     0.0000
     37  C4D       14.6180    1.3690   20.7640 C.2   1105  ZNH1105     0.0000
     38  CMD       13.1740    4.7150   21.6340 C.3   1105  ZNH1105     0.0000
     39  CAD       13.3950    1.8280   23.0710 C.3   1105  ZNH1105     0.0000
     40  CBD       11.9930    1.2930   22.8100 C.3   1105  ZNH1105     0.0000
     41  CGD       11.2130    0.9680   24.0710 C.2   1105  ZNH1105     0.0000
     42  O1D       11.7510    1.1230   25.1880 O.co2 1105  ZNH1105     0.0000
     43  O2D       10.0470    0.5500   23.9350 O.co2 1105  ZNH1105     0.0000
@<TRIPOS>BOND
     1    24    23    1
     2    23    20    1
     3    30    27    1
     4    20    19    2
     5    20    21    1
     6    22    19    1
     7     4    21    2
     8     4    26    1
     9    19    18    1
    10    21    17    1
    11    27    26   ar
    12    27    28   ar
    13    26    25   ar
    14    32    31    1
    15    18    17    2
    16    18     3    1
    17    17     1    1
    18    28    31    1
    19    28    29   ar
    20    25    29   ar
    21    25     1    1
    22     3    10    2
    23    29     5    1
    24     1     6    1
    25     1    33    1
    26    10     6   ar
    27    10     9   ar
    28     5    34    2
    29     6     7   ar
    30    11     9    1
    31     9     8   ar
    32    33    34    1
    33    33    37    2
    34    34    35    1
    35     7     8   ar
    36     7     2    2
    37     8    12    1
    38    37     2    1
    39    37    36    1
    40    35    38    1
    41    35    36    2
    42    12    13    1
    43    36    39    1
    44    13    14    1
    45    40    39    1
    46    40    41    1
    47    43    41   ar
    48    14    16   ar
    49    14    15   ar
    50    41    42   ar
