@<TRIPOS>MOLECULE
1i54_HEM_A_1.pdb
 43 50 0 0 0
SMALL
GASTEIGER

@<TRIPOS>ATOM
      1 FE         15.7760    1.3430   17.9070 Fe    1104  HEM1104     0.0000
      2  CHA       15.0240    0.0500   21.0010 C.2   1104  HEM1104     0.0000
      3  CHB       17.5340   -1.4340   17.1600 C.2   1104  HEM1104     0.0000
      4  CHC       16.1160    2.4220   14.6700 C.2   1104  HEM1104     0.0000
      5  CHD       14.2780    4.2760   18.7520 C.2   1104  HEM1104     0.0000
      6  NA        16.1790   -0.3670   18.8820 N.ar  1104  HEM1104     0.0000
      7  C1A       15.7450   -0.7580   20.1340 C.ar  1104  HEM1104     0.0000
      8  C2A       16.2450   -2.0840   20.4220 C.ar  1104  HEM1104     0.0000
      9  C3A       16.9870   -2.4680   19.3470 C.ar  1104  HEM1104     0.0000
     10  C4A       16.9480   -1.3990   18.4060 C.ar  1104  HEM1104     0.0000
     11  CMA       17.6770   -3.7890   19.1190 C.3   1104  HEM1104     0.0000
     12  CAA       16.0130   -2.8670   21.6950 C.3   1104  HEM1104     0.0000
     13  CBA       17.1530   -2.5840   22.6660 C.3   1104  HEM1104     0.0000
     14  CGA       17.0390   -3.3460   23.9710 C.2   1104  HEM1104     0.0000
     15  O1A       17.9460   -3.1780   24.8100 O.co2 1104  HEM1104     0.0000
     16  O2A       16.0660   -4.1070   24.1620 O.co2 1104  HEM1104     0.0000
     17  NB        16.6510    0.6200   16.2320 N.2   1104  HEM1104     0.0000
     18  C1B       17.4180   -0.5080   16.1540 C.2   1104  HEM1104     0.0000
     19  C2B       18.0070   -0.6460   14.8440 C.2   1104  HEM1104     0.0000
     20  C3B       17.5430    0.4090   14.1020 C.2   1104  HEM1104     0.0000
     21  C4B       16.7090    1.1950   14.9920 C.2   1104  HEM1104     0.0000
     22  CMB       19.0260   -1.7150   14.4480 C.3   1104  HEM1104     0.0000
     23  CAB       17.7380    0.6470   12.7390 C.3   1104  HEM1104     0.0000
     24  CBB       17.2460   -0.2560   11.7920 C.3   1104  HEM1104     0.0000
     25  NC        15.1980    3.0010   16.8700 N.ar  1104  HEM1104     0.0000
     26  C1C       15.4210    3.2610   15.5400 C.ar  1104  HEM1104     0.0000
     27  C2C       14.9990    4.5950   15.2060 C.ar  1104  HEM1104     0.0000
     28  C3C       14.5380    5.1790   16.3650 C.ar  1104  HEM1104     0.0000
     29  C4C       14.6580    4.1600   17.4000 C.ar  1104  HEM1104     0.0000
     30  CMC       15.1220    5.1840   13.8060 C.3   1104  HEM1104     0.0000
     31  CAC       14.1140    6.5000   16.5980 C.3   1104  HEM1104     0.0000
     32  CBC       13.2700    7.2380   15.7670 C.3   1104  HEM1104     0.0000
     33  ND        14.8600    2.0420   19.5880 N.2   1104  HEM1104     0.0000
     34  C1D       14.3590    3.2970   19.7590 C.2   1104  HEM1104     0.0000
     35  C2D       13.7890    3.4400   21.0840 C.2   1104  HEM1104     0.0000
     36  C3D       13.9280    2.2340   21.7140 C.2   1104  HEM1104     0.0000
     37  C4D       14.6160    1.3650   20.7640 C.2   1104  HEM1104     0.0000
     38  CMD       13.1830    4.7140   21.6280 C.3   1104  HEM1104     0.0000
     39  CAD       13.4100    1.8160   23.0820 C.3   1104  HEM1104     0.0000
     40  CBD       11.9940    1.3040   22.8180 C.3   1104  HEM1104     0.0000
     41  CGD       11.2100    0.9650   24.0730 C.2   1104  HEM1104     0.0000
     42  O1D       11.7400    1.1130   25.1950 O.co2 1104  HEM1104     0.0000
     43  O2D       10.0390    0.5610   23.9240 O.co2 1104  HEM1104     0.0000
@<TRIPOS>BOND
     1    24    23    1
     2    23    20    1
     3    30    27    1
     4    20    19    2
     5    20    21    1
     6    22    19    1
     7     4    21    2
     8     4    26    1
     9    19    18    1
    10    21    17    1
    11    27    26   ar
    12    27    28   ar
    13    26    25   ar
    14    32    31    1
    15    18    17    2
    16    18     3    1
    17    17     1    1
    18    28    31    1
    19    28    29   ar
    20    25    29   ar
    21    25     1    1
    22     3    10    2
    23    29     5    1
    24     1     6    1
    25     1    33    1
    26    10     6   ar
    27    10     9   ar
    28     5    34    2
    29     6     7   ar
    30    11     9    1
    31     9     8   ar
    32    33    34    1
    33    33    37    2
    34    34    35    1
    35     7     8   ar
    36     7     2    2
    37     8    12    1
    38    37     2    1
    39    37    36    1
    40    35    38    1
    41    35    36    2
    42    12    13    1
    43    36    39    1
    44    13    14    1
    45    40    39    1
    46    40    41    1
    47    43    41   ar
    48    14    16   ar
    49    14    15   ar
    50    41    42   ar
