@<TRIPOS>MOLECULE
1i55_ZNH_A_1.pdb
 43 50 0 0 0
SMALL
GASTEIGER

@<TRIPOS>ATOM
      1 ZN         15.8920    1.3990   17.8950 Zn    1105  ZNH1105     0.0000
      2  CHA       15.1440    0.1100   20.9940 C.2   1105  ZNH1105     0.0000
      3  CHB       17.6150   -1.4250   17.1230 C.2   1105  ZNH1105     0.0000
      4  CHC       16.2340    2.4720   14.6520 C.2   1105  ZNH1105     0.0000
      5  CHD       14.3250    4.3280   18.7180 C.2   1105  ZNH1105     0.0000
      6  NA        16.3150   -0.3520   18.8840 N.ar  1105  ZNH1105     0.0000
      7  C1A       15.8840   -0.7330   20.1290 C.ar  1105  ZNH1105     0.0000
      8  C2A       16.3510   -2.0710   20.4180 C.ar  1105  ZNH1105     0.0000
      9  C3A       17.0880   -2.4700   19.3310 C.ar  1105  ZNH1105     0.0000
     10  C4A       17.0570   -1.3940   18.3920 C.ar  1105  ZNH1105     0.0000
     11  CMA       17.7940   -3.8000   19.1200 C.3   1105  ZNH1105     0.0000
     12  CAA       16.1200   -2.8850   21.6850 C.3   1105  ZNH1105     0.0000
     13  CBA       17.2260   -2.5400   22.6690 C.3   1105  ZNH1105     0.0000
     14  CGA       17.1310   -3.2990   23.9790 C.2   1105  ZNH1105     0.0000
     15  O1A       18.0590   -3.1580   24.7970 O.co2 1105  ZNH1105     0.0000
     16  O2A       16.1490   -4.0430   24.1930 O.co2 1105  ZNH1105     0.0000
     17  NB        16.7480    0.6330   16.1950 N.2   1105  ZNH1105     0.0000
     18  C1B       17.5020   -0.5030   16.1060 C.2   1105  ZNH1105     0.0000
     19  C2B       18.0840   -0.6320   14.8110 C.2   1105  ZNH1105     0.0000
     20  C3B       17.6330    0.4340   14.0720 C.2   1105  ZNH1105     0.0000
     21  C4B       16.8110    1.2330   14.9610 C.2   1105  ZNH1105     0.0000
     22  CMB       19.0830   -1.7080   14.3890 C.3   1105  ZNH1105     0.0000
     23  CAB       17.8550    0.6640   12.7220 C.3   1105  ZNH1105     0.0000
     24  CBB       17.3540   -0.2160   11.7710 C.3   1105  ZNH1105     0.0000
     25  NC        15.2850    3.0420   16.8440 N.ar  1105  ZNH1105     0.0000
     26  C1C       15.5350    3.3060   15.5270 C.ar  1105  ZNH1105     0.0000
     27  C2C       15.1140    4.6470   15.1820 C.ar  1105  ZNH1105     0.0000
     28  C3C       14.6310    5.2280   16.3300 C.ar  1105  ZNH1105     0.0000
     29  C4C       14.7320    4.1930   17.3660 C.ar  1105  ZNH1105     0.0000
     30  CMC       15.2230    5.2080   13.7630 C.3   1105  ZNH1105     0.0000
     31  CAC       14.2250    6.5520   16.5680 C.3   1105  ZNH1105     0.0000
     32  CBC       13.3530    7.2780   15.7600 C.3   1105  ZNH1105     0.0000
     33  ND        14.9510    2.0920   19.5600 N.2   1105  ZNH1105     0.0000
     34  C1D       14.4170    3.3470   19.7260 C.2   1105  ZNH1105     0.0000
     35  C2D       13.8460    3.4670   21.0610 C.2   1105  ZNH1105     0.0000
     36  C3D       14.0100    2.2740   21.6930 C.2   1105  ZNH1105     0.0000
     37  C4D       14.7200    1.4170   20.7510 C.2   1105  ZNH1105     0.0000
     38  CMD       13.2140    4.7220   21.6490 C.3   1105  ZNH1105     0.0000
     39  CAD       13.4630    1.8660   23.0590 C.3   1105  ZNH1105     0.0000
     40  CBD       12.0810    1.2920   22.8170 C.3   1105  ZNH1105     0.0000
     41  CGD       11.3220    0.9630   24.0900 C.2   1105  ZNH1105     0.0000
     42  O1D       11.8760    1.1120   25.2000 O.co2 1105  ZNH1105     0.0000
     43  O2D       10.1560    0.5450   23.9770 O.co2 1105  ZNH1105     0.0000
@<TRIPOS>BOND
     1    24    23    1
     2    23    20    1
     3    30    27    1
     4    20    19    2
     5    20    21    1
     6    22    19    1
     7     4    21    2
     8     4    26    1
     9    19    18    1
    10    21    17    1
    11    27    26   ar
    12    27    28   ar
    13    26    25   ar
    14    32    31    1
    15    18    17    2
    16    18     3    1
    17    17     1    1
    18    28    31    1
    19    28    29   ar
    20    25    29   ar
    21    25     1    1
    22     3    10    2
    23    29     5    1
    24     1     6    1
    25     1    33    1
    26    10     6   ar
    27    10     9   ar
    28     5    34    2
    29     6     7   ar
    30    11     9    1
    31     9     8   ar
    32    33    34    1
    33    33    37    2
    34    34    35    1
    35     7     8   ar
    36     7     2    2
    37     8    12    1
    38    37     2    1
    39    37    36    1
    40    35    38    1
    41    35    36    2
    42    12    13    1
    43    36    39    1
    44    13    14    1
    45    40    39    1
    46    40    41    1
    47    43    41   ar
    48    14    16   ar
    49    14    15   ar
    50    41    42   ar
