@<TRIPOS>MOLECULE
1i55_HEM_A_1.pdb
 43 50 0 0 0
SMALL
GASTEIGER

@<TRIPOS>ATOM
      1 FE         15.9170    1.3990   17.8890 Fe    1104  HEM1104     0.0000
      2  CHA       15.1470    0.1060   20.9800 C.2   1104  HEM1104     0.0000
      3  CHB       17.6190   -1.4360   17.1160 C.2   1104  HEM1104     0.0000
      4  CHC       16.2480    2.4690   14.6490 C.2   1104  HEM1104     0.0000
      5  CHD       14.3430    4.3230   18.7140 C.2   1104  HEM1104     0.0000
      6  NA        16.3050   -0.3590   18.8630 N.ar  1104  HEM1104     0.0000
      7  C1A       15.8790   -0.7320   20.1120 C.ar  1104  HEM1104     0.0000
      8  C2A       16.3580   -2.0620   20.4100 C.ar  1104  HEM1104     0.0000
      9  C3A       17.0920   -2.4670   19.3290 C.ar  1104  HEM1104     0.0000
     10  C4A       17.0500   -1.3970   18.3800 C.ar  1104  HEM1104     0.0000
     11  CMA       17.8020   -3.7990   19.1330 C.3   1104  HEM1104     0.0000
     12  CAA       16.1260   -2.8650   21.6780 C.3   1104  HEM1104     0.0000
     13  CBA       17.2380   -2.5390   22.6620 C.3   1104  HEM1104     0.0000
     14  CGA       17.1360   -3.3110   23.9630 C.2   1104  HEM1104     0.0000
     15  O1A       18.0540   -3.1730   24.7920 O.co2 1104  HEM1104     0.0000
     16  O2A       16.1520   -4.0570   24.1610 O.co2 1104  HEM1104     0.0000
     17  NB        16.7620    0.6350   16.1940 N.2   1104  HEM1104     0.0000
     18  C1B       17.5090   -0.5040   16.1050 C.2   1104  HEM1104     0.0000
     19  C2B       18.0920   -0.6380   14.8050 C.2   1104  HEM1104     0.0000
     20  C3B       17.6430    0.4280   14.0650 C.2   1104  HEM1104     0.0000
     21  C4B       16.8250    1.2320   14.9590 C.2   1104  HEM1104     0.0000
     22  CMB       19.1010   -1.7080   14.3900 C.3   1104  HEM1104     0.0000
     23  CAB       17.8620    0.6630   12.7120 C.3   1104  HEM1104     0.0000
     24  CBB       17.3570   -0.1970   11.7500 C.3   1104  HEM1104     0.0000
     25  NC        15.3050    3.0470   16.8410 N.ar  1104  HEM1104     0.0000
     26  C1C       15.5500    3.3100   15.5200 C.ar  1104  HEM1104     0.0000
     27  C2C       15.1210    4.6430   15.1760 C.ar  1104  HEM1104     0.0000
     28  C3C       14.6360    5.2200   16.3290 C.ar  1104  HEM1104     0.0000
     29  C4C       14.7470    4.1920   17.3650 C.ar  1104  HEM1104     0.0000
     30  CMC       15.2180    5.2240   13.7660 C.3   1104  HEM1104     0.0000
     31  CAC       14.2170    6.5360   16.5640 C.3   1104  HEM1104     0.0000
     32  CBC       13.3540    7.2640   15.7570 C.3   1104  HEM1104     0.0000
     33  ND        14.9640    2.0930   19.5550 N.2   1104  HEM1104     0.0000
     34  C1D       14.4330    3.3490   19.7220 C.2   1104  HEM1104     0.0000
     35  C2D       13.8630    3.4760   21.0500 C.2   1104  HEM1104     0.0000
     36  C3D       14.0240    2.2800   21.6740 C.2   1104  HEM1104     0.0000
     37  C4D       14.7290    1.4180   20.7370 C.2   1104  HEM1104     0.0000
     38  CMD       13.2320    4.7330   21.6340 C.3   1104  HEM1104     0.0000
     39  CAD       13.4710    1.8790   23.0340 C.3   1104  HEM1104     0.0000
     40  CBD       12.0870    1.3040   22.7920 C.3   1104  HEM1104     0.0000
     41  CGD       11.3280    0.9820   24.0680 C.2   1104  HEM1104     0.0000
     42  O1D       11.8810    1.1470   25.1760 O.co2 1104  HEM1104     0.0000
     43  O2D       10.1650    0.5540   23.9570 O.co2 1104  HEM1104     0.0000
@<TRIPOS>BOND
     1    24    23    1
     2    23    20    1
     3    30    27    1
     4    20    19    2
     5    20    21    1
     6    22    19    1
     7     4    21    2
     8     4    26    1
     9    19    18    1
    10    21    17    1
    11    27    26   ar
    12    27    28   ar
    13    26    25   ar
    14    32    31    1
    15    18    17    2
    16    18     3    1
    17    17     1    1
    18    28    31    1
    19    28    29   ar
    20    25    29   ar
    21    25     1    1
    22     3    10    2
    23    29     5    1
    24     1     6    1
    25     1    33    1
    26    10     6   ar
    27    10     9   ar
    28     5    34    2
    29     6     7   ar
    30    11     9    1
    31     9     8   ar
    32    33    34    1
    33    33    37    2
    34    34    35    1
    35     7     8   ar
    36     7     2    2
    37     8    12    1
    38    37     2    1
    39    37    36    1
    40    35    38    1
    41    35    36    2
    42    36    39    1
    43    12    13    1
    44    13    14    1
    45    40    39    1
    46    40    41    1
    47    43    41   ar
    48    14    16   ar
    49    14    15   ar
    50    41    42   ar
