@<TRIPOS>MOLECULE
1i58_ADP_B_1.pdb
 27 29 0 0 0
SMALL
GASTEIGER

@<TRIPOS>ATOM
      1  PB        28.0110   20.2720   32.4080 P.3   999  ADP999      0.5373
      2  O1B       27.9860   19.8670   33.8540 O.3   999  ADP999     -0.1143
      3  O2B       29.2750   19.8680   31.7770 O.2   999  ADP999     -0.2221
      4  O3B       27.6720   21.8460   32.4600 O.3   999  ADP999     -0.1143
      5  PA        25.5930   19.0890   30.8460 P.3   999  ADP999      0.2231
      6  O1A       24.6800   20.2800   31.0680 O.2   999  ADP999     -0.5169
      7  O2A       24.9600   17.7650   31.1070 O.3   999  ADP999     -0.4370
      8  O3A       26.9170   19.2150   31.7350 O.3   999  ADP999     -0.2261
      9  O5'       26.2000   19.4050   29.4070 O.3   999  ADP999     -0.3111
     10  C5'       27.1170   18.3820   28.9600 C.3   999  ADP999      0.1813
     11  C4'       28.0440   18.4100   27.7140 C.3   999  ADP999      0.1821
     12  O4'       27.3520   18.9160   26.6040 O.3   999  ADP999     -0.3135
     13  C3'       28.8320   19.5740   28.2090 C.3   999  ADP999      0.2184
     14  O3'       29.8920   19.1000   29.0120 O.3   999  ADP999     -0.2174
     15  C2'       29.2160   20.3410   26.9410 C.3   999  ADP999      0.2570
     16  O2'       30.4070   19.7820   26.4300 O.3   999  ADP999     -0.2130
     17  C1'       28.0290   20.0570   26.1100 C.3   999  ADP999      0.3186
     18  N9        26.9870   21.1420   25.9300 N.pl3 999  ADP999     -0.1439
     19  C8        25.8270   21.3720   26.5730 C.3   999  ADP999      0.3377
     20  N7        25.1410   22.4240   26.1660 N.2   999  ADP999     -0.2095
     21  C5        25.9120   22.8900   25.1870 C.2   999  ADP999      0.2526
     22  C6        25.8170   24.0000   24.2890 C.2   999  ADP999      0.4393
     23  N6        24.7570   24.8400   24.3380 N.pl3 999  ADP999      0.2180
     24  N1        26.8010   24.2410   23.3570 N.2   999  ADP999      0.0021
     25  C2        27.8760   23.4140   23.2870 C.3   999  ADP999      0.5254
     26  N3        28.0510   22.3370   24.0960 N.2   999  ADP999     -0.0055
     27  C4        27.0660   22.1280   25.0120 C.2   999  ADP999      0.3518
@<TRIPOS>BOND
     1    25    24    1
     2    25    26    1
     3    24    22    2
     4    26    27    2
     5    22    23    1
     6    22    21    1
     7    27    21    1
     8    27    18    1
     9    21    20    2
    10    18    17    1
    11    18    19    1
    12    17    12    1
    13    17    15    1
    14    20    19    1
    15    16    15    1
    16    12    11    1
    17    15    13    1
    18    11    13    1
    19    11    10    1
    20    13    14    1
    21    10     9    1
    22     9     5    1
    23     5     6    2
    24     5     7    1
    25     5     8    1
    26     8     1    1
    27     3     1    2
    28     1     4    1
    29     1     2    1
