@<TRIPOS>MOLECULE
1i58_ACP_A_1.pdb
 31 33 0 0 0
SMALL
GASTEIGER

@<TRIPOS>ATOM
      1  PG         6.2570   -9.4340   10.0830 P.3   998  ACP998      0.1295
      2  O1G        6.5020  -10.5440   11.0900 O.3   998  ACP998     -0.3567
      3  O2G        7.4030   -8.4820   10.0930 O.3   998  ACP998     -0.3567
      4  O3G        5.7760   -9.8950    8.7170 O.2   998  ACP998     -0.4595
      5  PB         4.9130   -6.9730   10.4040 P.3   998  ACP998      0.3815
      6  O1B        3.5810   -6.5100   10.8870 O.3   998  ACP998     -0.1391
      7  O2B        5.2290   -6.3450    9.1220 O.2   998  ACP998     -0.2547
      8  C3B        4.7970   -8.5960   10.4610 C.3   998  ACP998      0.1768
      9  PA         7.1910   -5.2240   11.5260 P.3   998  ACP998      0.2209
     10  O1A        8.1260   -5.4590   10.3630 O.2   998  ACP998     -0.5170
     11  O2A        7.8420   -5.3350   12.8640 O.3   998  ACP998     -0.4371
     12  O3A        5.9400   -6.2190   11.4590 O.3   998  ACP998     -0.2483
     13  O5'        6.4550   -3.8720   11.0890 O.3   998  ACP998     -0.3111
     14  C5'        5.4750   -3.4260   12.0470 C.3   998  ACP998      0.1813
     15  C4'        4.4410   -2.2760   11.8900 C.3   998  ACP998      0.1821
     16  O4'        5.0800   -1.1320   11.4070 O.3   998  ACP998     -0.3135
     17  C3'        3.8110   -2.8470   10.6550 C.3   998  ACP998      0.2184
     18  O3'        2.8560   -3.8170   11.0030 O.3   998  ACP998     -0.2174
     19  C2'        3.3190   -1.6100    9.8960 C.3   998  ACP998      0.2570
     20  O2'        2.0650   -1.2160   10.4110 O.3   998  ACP998     -0.2130
     21  C1'        4.4200   -0.6960   10.2180 C.3   998  ACP998      0.3186
     22  N9         5.4840   -0.4690    9.1600 N.pl3 998  ACP998     -0.1439
     23  C8         6.7240   -0.9860    9.0070 C.3   998  ACP998      0.3377
     24  N7         7.4040   -0.5560    7.9460 N.2   998  ACP998     -0.2095
     25  C5         6.5370    0.2920    7.3930 C.2   998  ACP998      0.2526
     26  C6         6.5590    1.1340    6.2330 C.2   998  ACP998      0.4393
     27  N6         7.6440    1.1850    5.4090 N.pl3 998  ACP998      0.2180
     28  N1         5.4730    1.9180    5.9150 N.2   998  ACP998      0.0021
     29  C2         4.3710    1.8980    6.7030 C.3   998  ACP998      0.5254
     30  N3         4.2580    1.1420    7.8140 N.2   998  ACP998     -0.0055
     31  C4         5.3380    0.3730    8.1110 C.2   998  ACP998      0.3518
@<TRIPOS>BOND
     1    27    26    1
     2    28    26    2
     3    28    29    1
     4    26    25    1
     5    29    30    1
     6    25    24    2
     7    25    31    1
     8    30    31    2
     9    24    23    1
    10    31    22    1
    11     4     1    2
    12    23    22    1
    13     7     5    2
    14    22    21    1
    15    19    21    1
    16    19    20    1
    17    19    17    1
    18     1     3    1
    19     1     8    1
    20     1     2    1
    21    21    16    1
    22    10     9    2
    23     5     8    1
    24     5     6    1
    25     5    12    1
    26    17    18    1
    27    17    15    1
    28    13     9    1
    29    13    14    1
    30    16    15    1
    31    12     9    1
    32     9    11    1
    33    15    14    1
