@<TRIPOS>MOLECULE
1i59_ANP_A_1.pdb
 31 33 0 0 0
SMALL
GASTEIGER

@<TRIPOS>ATOM
      1  PG        23.3620   19.9050   69.5880 P.3   998  ANP998      0.4884
      2  O1G       23.3010   18.8090   68.5350 O.2   998  ANP998     -0.2331
      3  O2G       22.0250   20.5340   69.7640 O.3   998  ANP998     -0.1240
      4  O3G       24.1160   19.5640   70.8600 O.3   998  ANP998     -0.1240
      5  PB        24.3430   22.7090   69.2170 P.3   998  ANP998      0.4669
      6  O1B       25.5940   23.2000   68.5670 O.2   998  ANP998     -0.2351
      7  O2B       24.1980   23.2600   70.5500 O.3   998  ANP998     -0.1253
      8  N3B       24.4470   21.1120   69.0950 N.3   998  ANP998     -0.0163
      9  PA        21.8280   24.3410   68.5180 P.3   998  ANP998      0.2220
     10  O1A       21.0410   23.8940   69.7230 O.3   998  ANP998     -0.4370
     11  O2A       21.0470   24.3330   67.2310 O.2   998  ANP998     -0.5170
     12  O3A       23.1610   23.4800   68.3540 O.3   998  ANP998     -0.2360
     13  O5'       22.4980   25.6830   69.0400 O.3   998  ANP998     -0.3111
     14  C5'       23.3200   26.2970   68.0270 C.3   998  ANP998      0.1813
     15  C4'       24.2670   27.5190   68.1530 C.3   998  ANP998      0.1821
     16  O4'       23.6240   28.5600   68.8340 O.3   998  ANP998     -0.3135
     17  C3'       25.1070   26.8970   69.2180 C.3   998  ANP998      0.2184
     18  O3'       26.0490   26.0160   68.6480 O.3   998  ANP998     -0.2174
     19  C2'       25.6440   28.1130   69.9780 C.3   998  ANP998      0.2570
     20  O2'       26.7290   28.6410   69.2540 O.3   998  ANP998     -0.2130
     21  C1'       24.4380   28.9580   69.9380 C.3   998  ANP998      0.3186
     22  N9        23.5330   29.0250   71.1650 N.pl3 998  ANP998     -0.1439
     23  C8        22.3470   28.4500   71.4280 C.3   998  ANP998      0.3377
     24  N7        21.8130   28.7250   72.6160 N.2   998  ANP998     -0.2095
     25  C5        22.7290   29.5340   73.1430 C.2   998  ANP998      0.2526
     26  C6        22.8410   30.2280   74.3850 C.2   998  ANP998      0.4393
     27  N6        21.8700   30.1300   75.3350 N.pl3 998  ANP998      0.2180
     28  N1        23.9400   31.0150   74.6540 N.2   998  ANP998      0.0021
     29  C2        24.9260   31.1350   73.7230 C.3   998  ANP998      0.5254
     30  N3        24.9050   30.5130   72.5190 N.2   998  ANP998     -0.0055
     31  C4        23.8090   29.7470   72.2820 C.2   998  ANP998      0.3518
@<TRIPOS>BOND
     1    11     9    2
     2    14    15    1
     3    14    13    1
     4    15    16    1
     5    15    17    1
     6    12     9    1
     7    12     5    1
     8     9    13    1
     9     9    10    1
    10     2     1    2
    11     6     5    2
    12    18    17    1
    13    16    21    1
    14     8     5    1
    15     8     1    1
    16     5     7    1
    17    17    19    1
    18    20    19    1
    19     1     3    1
    20     1     4    1
    21    21    19    1
    22    21    22    1
    23    22    23    1
    24    22    31    1
    25    23    24    1
    26    31    30    2
    27    31    25    1
    28    30    29    1
    29    24    25    2
    30    25    26    1
    31    29    28    1
    32    26    28    2
    33    26    27    1
