@<TRIPOS>MOLECULE
1i59_ADP_B_1.pdb
 27 29 0 0 0
SMALL
GASTEIGER

@<TRIPOS>ATOM
      1  PB         0.6060    0.2010   48.8110 P.3   999  ADP999      0.5373
      2  O1B        1.3750    0.5620   47.5750 O.2   999  ADP999     -0.2221
      3  O2B       -0.6110   -0.5380   48.4840 O.3   999  ADP999     -0.1143
      4  O3B        0.4550    1.6230   49.5530 O.3   999  ADP999     -0.1143
      5  PA         2.9230   -1.1640   50.2960 P.3   999  ADP999      0.2231
      6  O1A        3.8800   -0.0150   50.0580 O.3   999  ADP999     -0.4370
      7  O2A        3.4980   -2.5150   49.9950 O.2   999  ADP999     -0.5169
      8  O3A        1.5650   -0.9580   49.4910 O.3   999  ADP999     -0.2261
      9  O5'        2.3910   -0.8240   51.7650 O.3   999  ADP999     -0.3111
     10  C5'        1.4290   -1.7800   52.2410 C.3   999  ADP999      0.1813
     11  C4'        0.5500   -1.6770   53.5110 C.3   999  ADP999      0.1821
     12  O4'        1.3260   -1.2320   54.5820 O.3   999  ADP999     -0.3135
     13  C3'       -0.1540   -0.4330   53.0670 C.3   999  ADP999      0.2184
     14  O3'       -1.2240   -0.7620   52.2080 O.3   999  ADP999     -0.2174
     15  C2'       -0.5010    0.2630   54.3850 C.3   999  ADP999      0.2570
     16  O2'       -1.6880   -0.3020   54.8960 O.3   999  ADP999     -0.2130
     17  C1'        0.7150   -0.0790   55.1460 C.3   999  ADP999      0.3186
     18  N9         1.7980    0.9780   55.2980 N.pl3 999  ADP999     -0.1439
     19  C8         2.9460    1.1940   54.6240 C.3   999  ADP999      0.3377
     20  N7         3.6680    2.2390   55.0270 N.2   999  ADP999     -0.2095
     21  C5         2.9120    2.7150   56.0220 C.2   999  ADP999      0.2526
     22  C6         3.0300    3.8140   56.9330 C.2   999  ADP999      0.4393
     23  N6         4.0910    4.6600   56.8790 N.pl3 999  ADP999      0.2180
     24  N1         2.0590    4.0540   57.8790 N.2   999  ADP999      0.0021
     25  C2         0.9810    3.2340   57.9590 C.3   999  ADP999      0.5254
     26  N3         0.7820    2.1760   57.1490 N.2   999  ADP999     -0.0055
     27  C4         1.7540    1.9620   56.2180 C.2   999  ADP999      0.3518
@<TRIPOS>BOND
     1     2     1    2
     2     3     1    1
     3     1     8    1
     4     1     4    1
     5     8     5    1
     6     7     5    2
     7     6     5    1
     8     5     9    1
     9     9    10    1
    10    14    13    1
    11    10    11    1
    12    13    11    1
    13    13    15    1
    14    11    12    1
    15    15    16    1
    16    15    17    1
    17    12    17    1
    18    19    20    1
    19    19    18    1
    20    20    21    2
    21    17    18    1
    22    18    27    1
    23    21    27    1
    24    21    22    1
    25    27    26    2
    26    23    22    1
    27    22    24    2
    28    26    25    1
    29    24    25    1
