@<TRIPOS>MOLECULE
1i5a_ACP_A_1.pdb
 31 33 0 0 0
SMALL
GASTEIGER

@<TRIPOS>ATOM
      1  PG        23.6900   20.0490   70.2050 P.3   998  ACP998      0.1295
      2  O1G       23.6440   18.9770   69.1330 O.2   998  ACP998     -0.4595
      3  O2G       22.4400   20.8800   70.1870 O.3   998  ACP998     -0.3567
      4  O3G       24.1510   19.5750   71.5760 O.3   998  ACP998     -0.3567
      5  PB        24.6960   22.6230   70.2370 P.3   998  ACP998      0.3815
      6  O1B       25.9170   23.3600   69.7820 O.2   998  ACP998     -0.2547
      7  O2B       24.3510   22.9800   71.6110 O.3   998  ACP998     -0.1391
      8  C3B       25.0470   21.0710   69.9400 C.3   998  ACP998      0.1768
      9  PA        22.2270   24.3120   69.4590 P.3   998  ACP998      0.2209
     10  O1A       21.3950   23.9270   70.6680 O.3   998  ACP998     -0.4371
     11  O2A       21.4580   24.3410   68.1700 O.2   998  ACP998     -0.5170
     12  O3A       23.4950   23.3500   69.3350 O.3   998  ACP998     -0.2483
     13  O5'       22.9670   25.6290   69.9930 O.3   998  ACP998     -0.3111
     14  C5'       23.8580   26.2140   69.0150 C.3   998  ACP998      0.1813
     15  C4'       24.7600   27.4820   69.1520 C.3   998  ACP998      0.1821
     16  O4'       24.0590   28.5130   69.7980 O.3   998  ACP998     -0.3135
     17  C3'       25.6010   26.9150   70.2570 C.3   998  ACP998      0.2184
     18  O3'       26.5960   26.0610   69.7340 O.3   998  ACP998     -0.2174
     19  C2'       26.0760   28.1690   70.9940 C.3   998  ACP998      0.2570
     20  O2'       27.1620   28.7200   70.2810 O.3   998  ACP998     -0.2130
     21  C1'       24.8310   28.9670   70.9100 C.3   998  ACP998      0.3186
     22  N9        23.8930   29.0200   72.1170 N.pl3 998  ACP998     -0.1439
     23  C8        22.7280   28.3920   72.3660 C.3   998  ACP998      0.3377
     24  N7        22.1490   28.6560   73.5330 N.2   998  ACP998     -0.2095
     25  C5        23.0050   29.5090   74.0690 C.2   998  ACP998      0.2526
     26  C6        23.0550   30.2120   75.3050 C.2   998  ACP998      0.4393
     27  N6        22.0610   30.0800   76.2390 N.pl3 998  ACP998      0.2180
     28  N1        24.1070   31.0560   75.5880 N.2   998  ACP998      0.0021
     29  C2        25.1140   31.2130   74.6850 C.3   998  ACP998      0.5254
     30  N3        25.1520   30.5810   73.4830 N.2   998  ACP998     -0.0055
     31  C4        24.1080   29.7600   73.2290 C.2   998  ACP998      0.3518
@<TRIPOS>BOND
     1    11     9    2
     2    14    15    1
     3    14    13    1
     4     2     1    2
     5    15    16    1
     6    15    17    1
     7    12     9    1
     8    12     5    1
     9     9    13    1
    10     9    10    1
    11    18    17    1
    12     6     5    2
    13    16    21    1
    14     8     1    1
    15     8     5    1
    16     3     1    1
    17     1     4    1
    18     5     7    1
    19    17    19    1
    20    20    19    1
    21    21    19    1
    22    21    22    1
    23    22    23    1
    24    22    31    1
    25    23    24    1
    26    31    30    2
    27    31    25    1
    28    30    29    1
    29    24    25    2
    30    25    26    1
    31    29    28    1
    32    26    28    2
    33    26    27    1
