@<TRIPOS>MOLECULE
1i5b_ANP_A_1.pdb
 31 33 0 0 0
SMALL
GASTEIGER

@<TRIPOS>ATOM
      1  PG        23.7230   19.8660   69.6140 P.3   998  ANP998      0.4884
      2  O1G       23.8130   18.8510   68.4710 O.2   998  ANP998     -0.2331
      3  O2G       22.3980   20.5490   69.6140 O.3   998  ANP998     -0.1240
      4  O3G       24.2600   19.3960   70.9670 O.3   998  ANP998     -0.1240
      5  PB        24.7530   22.6420   69.6650 P.3   998  ANP998      0.4669
      6  O1B       25.9980   23.2150   69.0430 O.2   998  ANP998     -0.2351
      7  O2B       24.5910   23.0930   71.0540 O.3   998  ANP998     -0.1253
      8  N3B       24.8930   21.0740   69.4250 N.3   998  ANP998     -0.0163
      9  PA        22.2320   24.3310   69.0410 P.3   998  ANP998      0.2220
     10  O1A       21.4420   23.8900   70.2580 O.3   998  ANP998     -0.4370
     11  O2A       21.4430   24.3100   67.7560 O.2   998  ANP998     -0.5170
     12  O3A       23.5510   23.4540   68.8570 O.3   998  ANP998     -0.2360
     13  O5'       22.8870   25.7010   69.5690 O.3   998  ANP998     -0.3111
     14  C5'       23.7220   26.3510   68.5850 C.3   998  ANP998      0.1813
     15  C4'       24.7450   27.5130   68.7850 C.3   998  ANP998      0.1821
     16  O4'       24.1140   28.5570   69.4820 O.3   998  ANP998     -0.3135
     17  C3'       25.5370   26.8250   69.8780 C.3   998  ANP998      0.2184
     18  O3'       26.5040   25.9400   69.3360 O.3   998  ANP998     -0.2174
     19  C2'       26.0790   28.0010   70.6840 C.3   998  ANP998      0.2570
     20  O2'       27.2100   28.5180   69.9910 O.3   998  ANP998     -0.2130
     21  C1'       24.8890   28.8840   70.6350 C.3   998  ANP998      0.3186
     22  N9        23.9170   28.8990   71.8140 N.pl3 998  ANP998     -0.1439
     23  C8        22.7530   28.2540   72.0150 C.3   998  ANP998      0.3377
     24  N7        22.1350   28.4980   73.1710 N.2   998  ANP998     -0.2095
     25  C5        22.9730   29.3570   73.7520 C.2   998  ANP998      0.2526
     26  C6        22.9700   30.0650   74.9950 C.2   998  ANP998      0.4393
     27  N6        21.9520   29.9140   75.9010 N.pl3 998  ANP998      0.2180
     28  N1        24.0060   30.9190   75.3240 N.2   998  ANP998      0.0021
     29  C2        25.0330   31.0940   74.4500 C.3   998  ANP998      0.5254
     30  N3        25.1140   30.4650   73.2450 N.2   998  ANP998     -0.0055
     31  C4        24.0820   29.6420   72.9460 C.2   998  ANP998      0.3518
@<TRIPOS>BOND
     1    11     9    2
     2     2     1    2
     3    14    15    1
     4    14    13    1
     5    15    16    1
     6    15    17    1
     7    12     9    1
     8    12     5    1
     9     9    13    1
    10     9    10    1
    11     6     5    2
    12    18    17    1
    13     8     1    1
    14     8     5    1
    15    16    21    1
    16     1     3    1
    17     1     4    1
    18     5     7    1
    19    17    19    1
    20    20    19    1
    21    21    19    1
    22    21    22    1
    23    22    23    1
    24    22    31    1
    25    23    24    1
    26    31    30    2
    27    31    25    1
    28    24    25    2
    29    30    29    1
    30    25    26    1
    31    29    28    1
    32    26    28    2
    33    26    27    1
