@<TRIPOS>MOLECULE
1i5c_ADP_A_1.pdb
 27 29 0 0 0
SMALL
GASTEIGER

@<TRIPOS>ATOM
      1  PB         4.4330   -5.5320    6.0800 P.3   998  ADP998      0.5373
      2  O1B        3.5940   -6.7670    6.0080 O.3   998  ADP998     -0.1143
      3  O2B        3.9150   -4.6290    7.1060 O.3   998  ADP998     -0.1143
      4  O3B        4.4510   -5.0400    4.5480 O.2   998  ADP998     -0.2221
      5  PA         7.1100   -5.6950    7.6450 P.3   998  ADP998      0.2231
      6  O1A        7.7410   -4.4200    7.1400 O.2   998  ADP998     -0.5169
      7  O2A        8.0440   -6.8560    7.6900 O.3   998  ADP998     -0.4370
      8  O3A        5.8390   -6.0980    6.7630 O.3   998  ADP998     -0.2261
      9  O5'        6.3930   -5.1850    8.9840 O.3   998  ADP998     -0.3111
     10  C5'        5.6860   -6.2270    9.7000 C.3   998  ADP998      0.1813
     11  C4'        4.7950   -6.1190   10.9900 C.3   998  ADP998      0.1821
     12  O4'        5.5610   -5.6550   12.0690 O.3   998  ADP998     -0.3135
     13  C3'        4.0630   -4.8980   10.5500 C.3   998  ADP998      0.2184
     14  O3'        2.9980   -5.2580    9.6950 O.3   998  ADP998     -0.2174
     15  C2'        3.6970   -4.2140   11.8710 C.3   998  ADP998      0.2570
     16  O2'        2.5320   -4.8330   12.3830 O.3   998  ADP998     -0.2130
     17  C1'        4.9260   -4.5180   12.6370 C.3   998  ADP998      0.3186
     18  N9         5.9940   -3.4400   12.7800 N.pl3 998  ADP998     -0.1439
     19  C8         7.1340   -3.2120   12.0890 C.3   998  ADP998      0.3377
     20  N7         7.8550   -2.1630   12.4820 N.2   998  ADP998     -0.2095
     21  C5         7.1200   -1.6920   13.4900 C.2   998  ADP998      0.2526
     22  C6         7.2560   -0.5890   14.3930 C.2   998  ADP998      0.4393
     23  N6         8.3250    0.2570   14.3180 N.pl3 998  ADP998      0.2180
     24  N1         6.3100   -0.3500   15.3620 N.2   998  ADP998      0.0021
     25  C2         5.2290   -1.1690   15.4670 C.3   998  ADP998      0.5254
     26  N3         5.0130   -2.2380   14.6610 N.2   998  ADP998     -0.0055
     27  C4         5.9640   -2.4540   13.7120 C.2   998  ADP998      0.3518
@<TRIPOS>BOND
     1     4     1    2
     2     2     1    1
     3     1     8    1
     4     1     3    1
     5     8     5    1
     6     6     5    2
     7     5     7    1
     8     5     9    1
     9     9    10    1
    10    14    13    1
    11    10    11    1
    12    13    11    1
    13    13    15    1
    14    11    12    1
    15    15    16    1
    16    15    17    1
    17    12    17    1
    18    19    20    1
    19    19    18    1
    20    20    21    2
    21    17    18    1
    22    18    27    1
    23    21    27    1
    24    21    22    1
    25    27    26    2
    26    23    22    1
    27    22    24    2
    28    26    25    1
    29    24    25    1
