@<TRIPOS>MOLECULE
1i5d_128_A_1.pdb
 46 50 0 0 0
SMALL
GASTEIGER

@<TRIPOS>ATOM
      1  PG        12.1780   64.5720   12.7620 P.3   999  128999      0.5373
      2  O1G       13.1050   64.5400   11.5480 O.2   999  128999     -0.2221
      3  O2G       12.7400   63.7060   13.8820 O.3   999  128999     -0.1143
      4  O3G       11.6130   65.9720   13.2030 O.3   999  128999     -0.1143
      5  PB         9.5060   64.0440   11.1990 P.3   999  128999      0.2277
      6  O1B       10.3010   64.6990   10.0500 O.2   999  128999     -0.5168
      7  O2B        8.3090   64.8320   11.7130 O.3   999  128999     -0.4368
      8  O3B       10.6490   63.8520   12.3410 O.3   999  128999     -0.2258
      9  PA         7.8640   61.4410   11.0150 P.3   999  128999      0.2189
     10  O1A        7.0760   61.9200   12.2900 O.3   999  128999     -0.4371
     11  O2A        6.9540   60.8850    9.9500 O.2   999  128999     -0.5170
     12  O3A        8.7200   62.6840   10.5060 O.3   999  128999     -0.2700
     13  O5'        9.0710   60.5870   11.7460 O.3   999  128999     -0.3112
     14  C5'        9.9570   61.1950   12.7960 C.3   999  128999      0.1812
     15  C4'       11.3010   60.3000   12.7550 C.3   999  128999      0.1789
     16  O4'       11.6380   59.7580   14.0390 O.3   999  128999     -0.3137
     17  C3'       11.3720   59.1400   11.9020 C.3   999  128999      0.1814
     18  O3'       12.5940   59.2620   11.2030 O.3   999  128999     -0.3250
     19  C2'       11.5850   57.9050   12.8030 C.3   999  128999      0.2201
     20  O2'       12.4820   56.9460   12.1990 O.3   999  128999     -0.3208
     21  C1'       12.1220   58.4460   14.1650 C.3   999  128999      0.3152
     22  N9        11.3120   57.7780   15.3770 N.pl3 999  128999     -0.1440
     23  C8        11.7570   57.6760   16.6650 C.3   999  128999      0.3377
     24  N7        10.8420   57.0700   17.4330 N.2   999  128999     -0.2095
     25  C5         9.8150   56.7830   16.6290 C.2   999  128999      0.2526
     26  C6         8.5650   56.1390   16.9420 C.2   999  128999      0.4393
     27  N6         8.3290   55.7170   18.1980 N.pl3 999  128999      0.2180
     28  N1         7.6230   55.9430   15.9350 N.2   999  128999      0.0021
     29  C2         7.9390   56.3930   14.6930 C.3   999  128999      0.5254
     30  N3         9.1090   57.0010   14.4060 N.2   999  128999     -0.0055
     31  C4        10.0840   57.2220   15.3390 C.2   999  128999      0.3518
     32  C1F       13.0430   57.8510   11.1310 C.3   999  128999      0.2592
     33  C2F       12.6970   57.1050    9.9280 C.3   999  128999      0.2466
     34  C3F       13.6280   56.7380    9.0190 C.2   999  128999      0.0324
     35  C4F       14.9570   56.9910    9.1040 C.2   999  128999      0.1423
     36  C5F       15.3650   57.6800   10.2260 C.2   999  128999      0.0484
     37  C6F       14.4590   58.1310   11.2670 C.2   999  128999      0.1752
     38  N2F       11.3460   56.7280    9.6490 N.pl3 999  128999      0.0420
     39  N4F       15.8890   56.6440    8.2310 N.pl3 999  128999      0.0575
     40  N6F       15.0500   58.8120   12.3330 N.pl3 999  128999      0.0584
     41  O2F       10.4150   56.9910   10.3630 O.2   999  128999     -0.1305
     42  O3F       11.0780   56.1170    8.6390 O.2   999  128999     -0.1305
     43  O4F       17.0600   56.9080    8.3670 O.2   999  128999     -0.1261
     44  O5F       15.6130   56.0570    7.2360 O.2   999  128999     -0.1261
     45  O6F       16.2500   58.9760   12.3220 O.2   999  128999     -0.1263
     46  O7F       14.4640   59.2620   13.2670 O.2   999  128999     -0.1263
@<TRIPOS>BOND
     1    44    39    2
     2    39    43    2
     3    39    35    1
     4    42    38    2
     5    34    35    2
     6    34    33    1
     7    35    36    1
     8    38    33    1
     9    38    41    2
    10    33    32    1
    11    11     9    2
    12     6     5    2
    13    36    37    2
    14    12     9    1
    15    12     5    1
    16     9    13    1
    17     9    10    1
    18    32    18    1
    19    32    37    1
    20    32    20    1
    21     5     7    1
    22     5     8    1
    23    18    17    1
    24    37    40    1
    25     2     1    2
    26    13    14    1
    27    17    15    1
    28    17    19    1
    29    20    19    1
    30    45    40    2
    31    40    46    2
    32     8     1    1
    33    15    14    1
    34    15    16    1
    35     1     4    1
    36     1     3    1
    37    19    21    1
    38    16    21    1
    39    21    22    1
    40    30    29    1
    41    30    31    2
    42    29    28    1
    43    31    22    1
    44    31    25    1
    45    22    23    1
    46    28    26    2
    47    25    26    1
    48    25    24    2
    49    23    24    1
    50    26    27    1
