@<TRIPOS>MOLECULE
1i5e_U5P_A_1.pdb
 21 22 0 0 0
SMALL
GASTEIGER

@<TRIPOS>ATOM
      1  N1         8.8350   64.3790   47.1420 N.am  250  U5P250     -0.1766
      2  C2        10.1000   63.8010   47.2250 C.1   250  U5P250      0.2845
      3  N3        10.4390   63.1840   48.4250 N.2   250  U5P250     -0.2452
      4  C4         9.5620   63.1510   49.4880 C.1   250  U5P250      0.2182
      5  C5         8.2830   63.7660   49.3370 C.2   250  U5P250      0.1242
      6  C6         8.0170   64.3530   48.1240 C.2   250  U5P250      0.0929
      7  O2        10.9530   63.8280   46.2060 O.2   250  U5P250     -0.1918
      8  O4         9.8960   62.5970   50.5410 O.2   250  U5P250     -0.2085
      9  C1'        8.4530   65.0500   45.8200 C.3   250  U5P250      0.2401
     10  C2'        7.4360   64.2200   45.0320 C.3   250  U5P250      0.2319
     11  O2'        8.0660   63.4040   44.1310 O.3   250  U5P250     -0.2157
     12  C3'        6.4190   65.2810   44.4640 C.3   250  U5P250      0.2158
     13  C4'        6.6290   66.4940   45.3060 C.3   250  U5P250      0.1801
     14  O3'        6.8600   65.5260   43.0830 O.3   250  U5P250     -0.2175
     15  O4'        7.8750   66.3350   46.1150 O.3   250  U5P250     -0.3320
     16  C5'        5.5730   66.9010   46.2360 C.3   250  U5P250      0.1859
     17  O5'        4.7410   65.7970   46.6590 O.3   250  U5P250     -0.2675
     18  P          3.5600   66.0960   47.6430 P.3   250  U5P250      0.5327
     19  O1P        2.6860   67.1000   46.9120 O.2   250  U5P250     -0.2224
     20  O2P        2.8340   64.7900   47.8750 O.3   250  U5P250     -0.1145
     21  O3P        4.1470   66.6410   48.9260 O.3   250  U5P250     -0.1145
@<TRIPOS>BOND
     1    14    12    1
     2    11    10    1
     3    12    10    1
     4    12    13    1
     5    10     9    1
     6    13    15    1
     7    13    16    1
     8     9    15    1
     9     9     1    1
    10     7     2    2
    11    16    17    1
    12    17    18    1
    13    19    18    2
    14     1     2   am
    15     1     6    1
    16     2     3    2
    17    18    20    1
    18    18    21    1
    19     6     5    2
    20     3     4    2
    21     5     4    1
    22     4     8    2
