@<TRIPOS>MOLECULE
1i5g_TS5_A_1.pdb
 29 28 0 0 0
SMALL
GASTEIGER

@<TRIPOS>ATOM
      1  N1        18.8300   29.8700    8.5020 N.3   401  TS5401     -0.1208
      2  CA1       19.1460   28.9820    9.6440 C.3   401  TS5401      0.1948
      3  C1        17.8790   28.5030   10.3010 C.2   401  TS5401      0.3819
      4  OE1       17.9060   27.4860   11.0310 O.co2 401  TS5401     -0.2441
      5  OE2       16.8220   29.1550   10.1080 O.co2 401  TS5401     -0.2441
      6  CB1       20.0070   29.6360   10.7270 C.3   401  TS5401      0.0402
      7  CG1       19.2480   30.6860   11.5300 C.3   401  TS5401      0.0889
      8  CD1       20.2880   31.5820   12.1410 C.2   401  TS5401      0.2418
      9  O1        20.9720   32.4820   11.4820 O.2   401  TS5401     -0.2733
     10  N2        20.5210   31.4860   13.4480 N.am  401  TS5401     -0.1968
     11  CA2       21.6400   32.0370   14.1480 C.3   401  TS5401      0.1843
     12  C2        22.4920   31.0440   14.9050 C.2   401  TS5401      0.2626
     13  O2        21.9540   30.0390   15.6140 O.2   401  TS5401     -0.2714
     14  CB2       21.0830   32.9900   15.2070 C.3   401  TS5401      0.0997
     15  SG2       19.7700   34.1070   14.6520 S.3   401  TS5401     -0.0797
     16  N3        23.7890   31.3820   14.7830 N.am  401  TS5401     -0.1940
     17  CA3       24.7530   30.6930   15.6160 C.3   401  TS5401      0.2014
     18  C3        25.7680   29.9180   14.8160 C.2   401  TS5401      0.2635
     19  O3        25.3170   29.3390   13.7290 O.2   401  TS5401     -0.2714
     20  N1'       27.0550   29.7740   15.0990 N.am  401  TS5401     -0.2039
     21  C1'       27.8100   28.6710   14.5570 C.3   401  TS5401      0.1167
     22  C2'       28.9120   29.3000   13.7230 C.3   401  TS5401      0.0422
     23  N2'       30.9250   28.7700   12.3500 N.3   401  TS5401     -0.2180
     24  C3'       29.9430   28.2530   13.2970 C.3   401  TS5401      0.0905
     25  C4'       31.9110   27.7970   11.9000 C.3   401  TS5401      0.0887
     26  C5'       33.2110   28.4010   11.3610 C.3   401  TS5401      0.0203
     27  C6'       34.2980   27.3670   11.0660 C.3   401  TS5401      0.0220
     28  C7'       35.2940   27.8230   10.0030 C.3   401  TS5401      0.1094
     29  N3'       36.4020   26.9170    9.7190 N.3   401  TS5401     -0.1314
@<TRIPOS>BOND
     1     1     2    1
     2     2     3    1
     3     2     6    1
     4    29    28    1
     5    28    27    1
     6     5     3   ar
     7     3     4   ar
     8     6     7    1
     9    27    26    1
    10    26    25    1
    11     9     8    2
    12     7     8    1
    13    25    23    1
    14     8    10   am
    15    23    24    1
    16    24    22    1
    17    10    11    1
    18    22    21    1
    19    19    18    2
    20    11    12    1
    21    11    14    1
    22    21    20    1
    23    15    14    1
    24    16    12   am
    25    16    17    1
    26    18    20   am
    27    18    17    1
    28    12    13    2
