@<TRIPOS>MOLECULE
1i5l_URI_A_1.pdb
 17 18 0 0 0
SMALL
GASTEIGER

@<TRIPOS>ATOM
      1  N1        13.8590    6.2580   12.5180 N.am  201  URI201     -0.1766
      2  C2        14.1530    5.7790   11.2540 C.1   201  URI201      0.2845
      3  N3        13.3200    6.2270   10.2570 N.2   201  URI201     -0.2452
      4  C4        12.2380    7.0730   10.3940 C.1   201  URI201      0.2182
      5  C5        11.9770    7.4970   11.7380 C.2   201  URI201      0.1242
      6  C6        12.7710    7.0800   12.7310 C.2   201  URI201      0.0929
      7  O2        15.0780    5.0100   11.0370 O.2   201  URI201     -0.1918
      8  O4        11.5930    7.3950    9.3950 O.2   201  URI201     -0.2085
      9  C1'       14.7790    5.8940   13.6070 C.3   201  URI201      0.2401
     10  C2'       14.6480    6.7990   14.8330 C.3   201  URI201      0.2319
     11  C3'       14.8680    5.8420   16.0030 C.3   201  URI201      0.2159
     12  C4'       14.5000    4.4720   15.4460 C.3   201  URI201      0.1829
     13  O2'       15.5970    7.8440   14.7830 O.3   201  URI201     -0.2157
     14  O3'       16.2750    5.8930   16.1890 O.3   201  URI201     -0.2175
     15  O4'       14.5130    4.5710   14.0030 O.3   201  URI201     -0.3318
     16  C5'       13.1810    3.8910   15.8910 C.3   201  URI201      0.2142
     17  O5'       13.2400    3.2910   17.1910 O.3   201  URI201     -0.2176
@<TRIPOS>BOND
     1     8     4    2
     2     3     4    2
     3     3     2    2
     4     4     5    1
     5     7     2    2
     6     2     1   am
     7     5     6    2
     8     1     6    1
     9     1     9    1
    10     9    15    1
    11     9    10    1
    12    15    12    1
    13    13    10    1
    14    10    11    1
    15    12    16    1
    16    12    11    1
    17    16    17    1
    18    11    14    1
