@<TRIPOS>MOLECULE
1i5o_PAL_B_1.pdb
 16 15 0 0 0
SMALL
GASTEIGER

@<TRIPOS>ATOM
      1  P         10.3400   81.9170   25.5550 P.3   998  PAL998      0.1264
      2  O1P       11.1970   83.2110   25.9010 O.3   998  PAL998     -0.3568
      3  O2P       10.2360   80.9400   26.8220 O.3   998  PAL998     -0.3568
      4  O3P       11.0030   81.1430   24.3320 O.2   998  PAL998     -0.4596
      5  C1P        8.5450   82.4740   25.2060 C.3   998  PAL998      0.1454
      6  C1         8.1120   82.9210   23.8000 C.2   998  PAL998      0.2492
      7  O1         8.9300   82.9370   22.8750 O.2   998  PAL998     -0.2728
      8  N2         6.8270   83.2690   23.6430 N.am  998  PAL998     -0.1946
      9  C2         6.3330   83.9340   22.4240 C.3   998  PAL998      0.2090
     10  C4         5.1980   84.9550   22.6960 C.2   998  PAL998      0.3848
     11  O2         4.0730   84.7830   22.1760 O.co2 998  PAL998     -0.2437
     12  O3         5.4540   85.9550   23.4060 O.co2 998  PAL998     -0.2437
     13  C3         5.9080   82.8960   21.3620 C.3   998  PAL998      0.1472
     14  C5         6.6690   83.0420   20.0380 C.2   998  PAL998      0.3672
     15  O4         7.5490   82.2090   19.7390 O.co2 998  PAL998     -0.2456
     16  O5         6.3590   83.9720   19.2690 O.co2 998  PAL998     -0.2456
@<TRIPOS>BOND
     1    16    14   ar
     2    15    14   ar
     3    14    13    1
     4    13     9    1
     5    11    10   ar
     6     9    10    1
     7     9     8    1
     8    10    12   ar
     9     7     6    2
    10     8     6   am
    11     6     5    1
    12     4     1    2
    13     5     1    1
    14     1     2    1
    15     1     3    1
