@<TRIPOS>MOLECULE
1i5q_MOX_A_1.pdb
 29 30 0 0 0
SMALL
GASTEIGER

@<TRIPOS>ATOM
      1  C1        25.6660    5.1650   16.1800 C.2   964  MOX964      0.2597
      2  O1        24.7900    4.4780   16.7770 O.2   964  MOX964     -0.2836
      3  C2        25.2710    6.4620   15.4790 C.3   964  MOX964      0.2774
      4  N2        24.0870    6.2300   14.6640 N.am  964  MOX964     -0.1699
      5  C3        24.9350    7.6630   16.6300 C.3   964  MOX964      0.2730
      6  O4        23.5200    7.9540   16.5040 O.3   964  MOX964     -0.3261
      7  C5        22.9410    8.5370   17.7120 C.3   964  MOX964      0.1726
      8  C6        23.0960    7.5110   18.8010 C.2   964  MOX964      0.0312
      9  C7        24.4860    6.9850   18.9360 C.2   964  MOX964      0.1565
     10  C8        25.1010    6.3430   20.1590 C.2   964  MOX964      0.4045
     11  N8        25.2750    7.0950   17.9110 N.2   964  MOX964     -0.2327
     12  C9        22.0090    7.1060   19.5160 C.2   964  MOX964     -0.0003
     13  C21       23.8500    5.1880   13.7960 C.2   964  MOX964      0.2584
     14  O21       24.6600    4.3020   13.6670 O.2   964  MOX964     -0.2723
     15  C22       22.5230    5.2540   12.9730 C.3   964  MOX964      0.2032
     16  C23       22.8050    5.9230   11.6470 C.ar  964  MOX964     -0.0028
     17  C24       23.5490    7.1420   11.6480 C.ar  964  MOX964      0.0000
     18  C25       23.8560    7.8170   10.4540 C.ar  964  MOX964      0.0417
     19  C26       23.4210    7.2910    9.2140 C.ar  964  MOX964      0.1957
     20  O26       23.7520    7.9930    8.0750 O.3   964  MOX964     -0.2866
     21  C27       22.6750    6.0790    9.1830 C.ar  964  MOX964      0.0417
     22  C28       22.3700    5.3960   10.3950 C.ar  964  MOX964      0.0000
     23  C29       21.2860    5.9260   13.6990 C.2   964  MOX964      0.3771
     24  O30       20.0910    5.5880   13.3600 O.co2 964  MOX964     -0.2448
     25  O31       21.5370    6.8000   14.5550 O.co2 964  MOX964     -0.2448
     26  O61       26.3520    6.8760   14.6870 O.3   964  MOX964     -0.3279
     27  C62       26.2450    8.1580   14.0100 C.3   964  MOX964      0.1766
     28  O81       24.3570    6.2210   21.1750 O.co2 964  MOX964     -0.2389
     29  O82       26.3140    6.0060   20.0380 O.co2 964  MOX964     -0.2389
@<TRIPOS>BOND
     1    20    19    1
     2    21    19   ar
     3    21    22   ar
     4    19    18   ar
     5    22    16   ar
     6    18    17   ar
     7    16    17   ar
     8    16    15    1
     9    15    23    1
    10    15    13    1
    11    24    23   ar
    12    14    13    2
    13    23    25   ar
    14    13     4   am
    15    27    26    1
    16     4     3    1
    17    26     3    1
    18     3     1    1
    19     3     5    1
    20     1     2    2
    21     6     5    1
    22     6     7    1
    23     5    11    1
    24     7     8    1
    25    11     9    2
    26     8     9    1
    27     8    12    2
    28     9    10    1
    29    29    10   ar
    30    10    28   ar
