@<TRIPOS>MOLECULE
1i5r_HYC_A_1.pdb
 49 55 0 0 0
SMALL
GASTEIGER

@<TRIPOS>ATOM
      1  C1         9.5910   11.4690  -11.3480 C.ar  328  HYC328     -0.0013
      2  C2         8.8490   12.2670  -12.2430 C.ar  328  HYC328      0.0417
      3  C3         8.4840   11.7920  -13.5070 C.ar  328  HYC328      0.1954
      4  O3         7.8080   12.5360  -14.3070 O.3   328  HYC328     -0.2866
      5  C4         8.8560   10.4830  -13.9180 C.ar  328  HYC328      0.0375
      6  C5         9.6040    9.6400  -13.0510 C.ar  328  HYC328     -0.0230
      7  C6         9.9900    8.2060  -13.5490 C.3   328  HYC328      0.0261
      8  C7        11.1000    7.5010  -12.6550 C.3   328  HYC328      0.0050
      9  C8        10.6400    7.7270  -11.1740 C.3   328  HYC328      0.0044
     10  C9        10.7920    9.2360  -10.7870 C.3   328  HYC328      0.0220
     11  C10        9.9750   10.1410  -11.7500 C.ar  328  HYC328     -0.0263
     12  C11       10.3150    9.4500   -9.2890 C.3   328  HYC328      0.0044
     13  C12       11.0970    8.5550   -8.2760 C.3   328  HYC328      0.0028
     14  C13       11.0950    7.0540   -8.6680 C.3   328  HYC328      0.0282
     15  C14       11.4950    6.8710  -10.1750 C.3   328  HYC328      0.0028
     16  C15       11.4500    5.2540  -10.4250 C.3   328  HYC328      0.0026
     17  C16       12.4530    4.9260   -9.1210 C.3   328  HYC328      0.0304
     18  C17       12.1830    6.0680   -8.0340 C.3   328  HYC328      0.1518
     19  O17       11.6130    5.6280   -6.8430 O.3   328  HYC328     -0.2232
     20  C18        9.6360    6.4090   -8.4670 C.3   328  HYC328      0.0025
     21  C21       11.9990    3.6130   -8.5850 C.3   328  HYC328      0.0025
     22  C22       12.2890    2.6410   -9.6260 C.3   328  HYC328      0.0001
     23  C23       11.8820    1.1960   -9.2410 C.3   328  HYC328      0.0000
     24  C24       12.9940    0.6540   -8.4110 C.3   328  HYC328      0.0000
     25  C25       12.9160   -0.8050   -8.3630 C.3   328  HYC328      0.0000
     26  C26       14.0010   -1.3910   -7.5480 C.3   328  HYC328      0.0006
     27  C27       13.2470   -2.1970   -6.6170 C.3   328  HYC328      0.0116
     28  C28       14.2990   -2.8430   -5.7240 C.3   328  HYC328      0.1096
     29  C31       16.2250   -6.2660   -1.9410 C.3   328  HYC328      0.3186
     30  C32       16.8810   -6.2360   -3.2820 C.3   328  HYC328      0.2570
     31  O32       17.5030   -7.3610   -3.6240 O.3   328  HYC328     -0.2130
     32  C33       17.6560   -5.0180   -3.1390 C.3   328  HYC328      0.2197
     33  O33       18.8010   -5.2660   -2.6840 O.3   328  HYC328     -0.2174
     34  C34       16.8820   -4.1110   -2.2120 C.3   328  HYC328      0.1958
     35  O34       15.6900   -4.9350   -1.9090 O.3   328  HYC328     -0.3123
     36  C35       16.2480   -2.7840   -2.7520 C.3   328  HYC328      0.2405
     37  O35       15.7120   -3.2520   -4.0410 O.3   328  HYC328     -0.4457
     38  C36       14.6950   -2.2150   -4.4750 C.2   328  HYC328      0.3170
     39  O36       14.2470   -1.2000   -4.0830 O.2   328  HYC328     -0.2501
     40  N41       14.0330   -9.5360    1.2550 N.2   328  HYC328      0.0021
     41  C42       15.0830   -8.7200    1.4210 C.3   328  HYC328      0.5254
     42  N43       15.5930   -7.8870    0.5150 N.2   328  HYC328     -0.0055
     43  C44       14.9600   -7.8600   -0.7570 C.2   328  HYC328      0.3518
     44  C45       13.7930   -8.7260   -1.0340 C.2   328  HYC328      0.2526
     45  C46       13.4030   -9.5610    0.1050 C.2   328  HYC328      0.4393
     46  N46       12.2890  -10.3840   -0.1710 N.pl3 328  HYC328      0.2180
     47  N47       13.3050   -8.5660   -2.3290 N.2   328  HYC328     -0.2095
     48  C48       14.2030   -7.6110   -2.7680 C.3   328  HYC328      0.3377
     49  N49       15.1900   -7.1520   -1.9150 N.pl3 328  HYC328     -0.1439
@<TRIPOS>BOND
     1     4     3    1
     2     5     3   ar
     3     5     6   ar
     4     7     6    1
     5     7     8    1
     6     3     2   ar
     7     6    11   ar
     8     8     9    1
     9     2     1   ar
    10    11     1   ar
    11    11    10    1
    12     9    10    1
    13     9    15    1
    14    10    12    1
    15    16    15    1
    16    16    17    1
    17    15    14    1
    18    22    23    1
    19    22    21    1
    20    12    13    1
    21    23    24    1
    22    17    21    1
    23    17    18    1
    24    14    20    1
    25    14    13    1
    26    14    18    1
    27    24    25    1
    28    25    26    1
    29    18    19    1
    30    26    27    1
    31    27    28    1
    32    28    38    1
    33    38    39    2
    34    38    37    1
    35    37    36    1
    36    31    30    1
    37    30    32    1
    38    30    29    1
    39    32    33    1
    40    32    34    1
    41    48    47    1
    42    48    49    1
    43    36    34    1
    44    47    44    2
    45    34    35    1
    46    29    49    1
    47    29    35    1
    48    49    43    1
    49    44    43    1
    50    44    45    1
    51    43    42    2
    52    46    45    1
    53    45    40    2
    54    42    41    1
    55    40    41    1
