@<TRIPOS>MOLECULE
1i5s_ADP_A_1.pdb
 27 29 0 0 0
SMALL
GASTEIGER

@<TRIPOS>ATOM
      1  PB        24.0840  -19.8590    7.0630 P.3   2000  ADP2000     0.5373
      2  O1B       25.3990  -20.1990    6.5410 O.2   2000  ADP2000    -0.2221
      3  O2B       22.9470  -20.8140    6.8460 O.3   2000  ADP2000    -0.1143
      4  O3B       24.2870  -19.4010    8.5430 O.3   2000  ADP2000    -0.1143
      5  PA        23.3770  -17.1000    6.8940 P.3   2000  ADP2000     0.2231
      6  O1A       21.9790  -17.2780    7.5490 O.3   2000  ADP2000    -0.4370
      7  O2A       23.9040  -16.1860    6.0160 O.2   2000  ADP2000    -0.5169
      8  O3A       24.0230  -18.5650    6.3930 O.3   2000  ADP2000    -0.2261
      9  O5'       22.2700  -17.1630    5.5300 O.3   2000  ADP2000    -0.3111
     10  C5'       22.6580  -17.0330    4.0500 C.3   2000  ADP2000     0.1813
     11  C4'       22.3600  -15.6620    3.4240 C.3   2000  ADP2000     0.1821
     12  O4'       21.0120  -15.6360    2.9330 O.3   2000  ADP2000    -0.3135
     13  C3'       22.3600  -14.3220    4.2190 C.3   2000  ADP2000     0.2184
     14  O3'       22.8500  -13.2900    3.3310 O.3   2000  ADP2000    -0.2174
     15  C2'       20.8440  -13.9530    4.5600 C.3   2000  ADP2000     0.2570
     16  O2'       20.5920  -12.5260    4.6350 O.3   2000  ADP2000    -0.2130
     17  C1'       20.0510  -14.6260    3.3990 C.3   2000  ADP2000     0.3186
     18  N9        18.7980  -15.3260    3.8720 N.pl3 2000  ADP2000    -0.1439
     19  C8        18.6990  -16.5670    4.3410 C.3   2000  ADP2000     0.3377
     20  N7        17.5020  -16.8930    4.6430 N.2   2000  ADP2000    -0.2095
     21  C5        16.7450  -15.7870    4.2740 C.2   2000  ADP2000     0.2526
     22  C6        15.2880  -15.4790    4.3170 C.2   2000  ADP2000     0.4393
     23  N6        14.3400  -16.3990    4.6660 N.pl3 2000  ADP2000     0.2180
     24  N1        14.8910  -14.2420    3.8820 N.2   2000  ADP2000     0.0021
     25  C2        15.8060  -13.3440    3.5080 C.3   2000  ADP2000     0.5254
     26  N3        17.1480  -13.5350    3.4660 N.2   2000  ADP2000    -0.0055
     27  C4        17.5430  -14.7850    3.8460 C.2   2000  ADP2000     0.3518
@<TRIPOS>BOND
     1    12    17    1
     2    12    11    1
     3    14    13    1
     4    17    18    1
     5    17    15    1
     6    11    10    1
     7    11    13    1
     8    26    25    1
     9    26    27    2
    10    25    24    1
    11    27    18    1
    12    27    21    1
    13    18    19    1
    14    24    22    2
    15    10     9    1
    16    13    15    1
    17    21    22    1
    18    21    20    2
    19    22    23    1
    20    19    20    1
    21    15    16    1
    22     9     5    1
    23     7     5    2
    24     8     5    1
    25     8     1    1
    26     2     1    2
    27     3     1    1
    28     5     6    1
    29     1     4    1
