@<TRIPOS>MOLECULE
1i5z_CMP_A_1.pdb
 22 25 0 0 0
SMALL
GASTEIGER

@<TRIPOS>ATOM
      1  P         39.3100   41.1390   51.8000 P.3   301  CMP301      0.2141
      2  O1P       38.9910   40.1610   50.7330 O.2   301  CMP301     -0.5172
      3  O2P       39.5930   40.6560   53.1570 O.3   301  CMP301     -0.4373
      4  O5'       40.7080   41.8260   51.2540 O.3   301  CMP301     -0.3114
      5  C5'       40.8290   43.1180   50.5720 C.3   301  CMP301      0.1812
      6  C4'       39.5240   43.9490   50.3890 C.3   301  CMP301      0.1793
      7  O4'       39.2530   44.4170   49.0930 O.3   301  CMP301     -0.3136
      8  C3'       38.2920   43.1440   50.6450 C.3   301  CMP301      0.1884
      9  O3'       38.2700   42.3610   51.8520 O.3   301  CMP301     -0.3111
     10  C2'       37.2800   44.1420   50.4040 C.3   301  CMP301      0.2541
     11  O2'       37.2040   45.0390   51.5070 O.3   301  CMP301     -0.2131
     12  C1'       37.9110   44.9440   49.2440 C.3   301  CMP301      0.3185
     13  N9        37.1790   44.6330   47.9820 N.pl3 301  CMP301     -0.1439
     14  C8        37.2950   43.4940   47.1850 C.3   301  CMP301      0.3377
     15  N7        36.5230   43.4700   46.1310 N.2   301  CMP301     -0.2095
     16  C5        35.8350   44.6710   46.2180 C.2   301  CMP301      0.2526
     17  C6        34.8460   45.2620   45.3920 C.2   301  CMP301      0.4393
     18  N6        34.4040   44.6500   44.2860 N.pl3 301  CMP301      0.2180
     19  N1        34.3430   46.4890   45.7460 N.2   301  CMP301      0.0021
     20  C2        34.8120   47.0890   46.8750 C.3   301  CMP301      0.5254
     21  N3        35.7420   46.6400   47.7440 N.2   301  CMP301     -0.0055
     22  C4        36.2250   45.3980   47.3480 C.2   301  CMP301      0.3518
@<TRIPOS>BOND
     1    18    17    1
     2    17    19    2
     3    17    16    1
     4    19    20    1
     5    15    16    2
     6    15    14    1
     7    16    22    1
     8    20    21    1
     9    14    13    1
    10    22    21    2
    11    22    13    1
    12    13    12    1
    13     7    12    1
    14     7     6    1
    15    12    10    1
    16     6     5    1
    17     6     8    1
    18    10     8    1
    19    10    11    1
    20     5     4    1
    21     8     9    1
    22     2     1    2
    23     4     1    1
    24     1     9    1
    25     1     3    1
