@<TRIPOS>MOLECULE
1i6i_ACP_A_1.pdb
 31 33 0 0 0
SMALL
GASTEIGER

@<TRIPOS>ATOM
      1  PG        -7.3440   22.1440    7.5970 P.3   500  ACP500      0.1295
      2  O1G       -7.0070   23.5890    7.4400 O.3   500  ACP500     -0.3567
      3  O2G       -7.2710   21.7890    9.1570 O.3   500  ACP500     -0.3567
      4  O3G       -8.6850   21.8170    7.0440 O.2   500  ACP500     -0.4595
      5  PB        -4.3860   21.0630    7.2650 P.3   500  ACP500      0.3815
      6  O1B       -4.4100   20.6180    8.6720 O.3   500  ACP500     -0.1391
      7  O2B       -3.6740   22.3850    7.0560 O.2   500  ACP500     -0.2547
      8  C3B       -6.1070   21.1090    6.7420 C.3   500  ACP500      0.1768
      9  PA        -3.3350   18.4700    6.4230 P.3   500  ACP500      0.2209
     10  O1A       -4.5820   17.7120    6.4150 O.2   500  ACP500     -0.5170
     11  O2A       -2.5250   18.1710    7.6050 O.3   500  ACP500     -0.4371
     12  O3A       -3.6430   20.0310    6.3480 O.3   500  ACP500     -0.2483
     13  O5'       -2.5120   18.2950    5.0670 O.3   500  ACP500     -0.3111
     14  C5'       -3.1990   18.0890    3.8130 C.3   500  ACP500      0.1813
     15  C4'       -2.5570   16.8860    3.1060 C.3   500  ACP500      0.1821
     16  O4'       -1.1600   17.1210    2.8640 O.3   500  ACP500     -0.3135
     17  C3'       -2.6480   15.5800    3.9170 C.3   500  ACP500      0.2184
     18  O3'       -3.0160   14.5030    3.0450 O.3   500  ACP500     -0.2174
     19  C2'       -1.2550   15.4200    4.5370 C.3   500  ACP500      0.2570
     20  O2'       -0.9360   14.0590    4.8860 O.3   500  ACP500     -0.2130
     21  C1'       -0.3710   16.0510    3.4600 C.3   500  ACP500      0.3186
     22  N9         0.9160   16.6320    3.9810 N.pl3 500  ACP500     -0.1439
     23  C8         0.9990   17.7820    4.7000 C.3   500  ACP500      0.3377
     24  N7         2.2640   18.0340    4.9860 N.2   500  ACP500     -0.2095
     25  C5         3.0200   17.0630    4.4660 C.2   500  ACP500      0.2526
     26  C6         4.3970   16.8210    4.4430 C.2   500  ACP500      0.4393
     27  N6         5.2650   17.6450    5.0330 N.pl3 500  ACP500      0.2180
     28  N1         4.8480   15.6900    3.7960 N.2   500  ACP500      0.0021
     29  C2         3.9880   14.8200    3.1750 C.3   500  ACP500      0.5254
     30  N3         2.6740   15.0700    3.2000 N.2   500  ACP500     -0.0055
     31  C4         2.1380   16.1900    3.8280 C.2   500  ACP500      0.3518
@<TRIPOS>BOND
     1    16    15    1
     2    16    21    1
     3    18    17    1
     4    15    14    1
     5    15    17    1
     6    29    30    1
     7    29    28    1
     8    30    31    2
     9    21    22    1
    10    21    19    1
    11    28    26    2
    12    14    13    1
    13    31    22    1
    14    31    25    1
    15    17    19    1
    16    22    23    1
    17    26    25    1
    18    26    27    1
    19    25    24    2
    20    19    20    1
    21    23    24    1
    22    13     9    1
    23    12     9    1
    24    12     5    1
    25    10     9    2
    26     9    11    1
    27     8     5    1
    28     8     1    1
    29     4     1    2
    30     7     5    2
    31     5     6    1
    32     2     1    1
    33     1     3    1
