@<TRIPOS>MOLECULE
1i6k_TYM_A_1.pdb
 37 41 0 0 0
SMALL
GASTEIGER

@<TRIPOS>ATOM
      1  P         51.0990   20.9170   40.4260 P.3   350  TYM350      0.2723
      2  O1P       51.3240   19.3750   40.3810 O.3   350  TYM350     -0.4273
      3  O2P       49.7420   21.5010   40.1750 O.2   350  TYM350     -0.5082
      4  O5'       52.2780   21.7720   39.5660 O.3   350  TYM350     -0.3024
      5  C5'       53.6300   21.3750   39.5980 C.3   350  TYM350      0.1823
      6  C4'       54.5550   22.5560   39.5150 C.3   350  TYM350      0.1822
      7  O4'       54.2710   23.2780   38.3070 O.3   350  TYM350     -0.3135
      8  C1'       54.0000   24.6330   38.5350 C.3   350  TYM350      0.3186
      9  N9        52.9790   25.1280   37.6260 N.pl3 350  TYM350     -0.1439
     10  C4        53.1280   26.2260   36.7810 C.2   350  TYM350      0.3518
     11  N3        54.2090   27.0170   36.6550 N.2   350  TYM350     -0.0055
     12  C2        53.9630   28.0090   35.7810 C.3   350  TYM350      0.5254
     13  N1        52.8630   28.2330   35.0650 N.2   350  TYM350      0.0021
     14  C6        51.8390   27.3970   35.1730 C.2   350  TYM350      0.4393
     15  N6        50.7390   27.5850   34.4630 N.pl3 350  TYM350      0.2180
     16  C5        51.9480   26.3400   36.1030 C.2   350  TYM350      0.2526
     17  N7        51.0620   25.3540   36.4890 N.2   350  TYM350     -0.2095
     18  C8        51.7010   24.6690   37.3840 C.3   350  TYM350      0.3377
     19  C2'       53.4590   24.5930   40.0360 C.3   350  TYM350      0.2570
     20  O2'       53.6600   25.8810   40.5550 O.3   350  TYM350     -0.2130
     21  C3'       54.3840   23.5690   40.6730 C.3   350  TYM350      0.2184
     22  O3'       55.6720   24.0900   40.9190 O.3   350  TYM350     -0.2174
     23  NH3       50.7200   21.3800   45.5310 N.3   350  TYM350     -0.1206
     24  CA        51.7370   21.2790   44.4200 C.3   350  TYM350      0.1946
     25  CB        52.4940   19.9330   44.5180 C.3   350  TYM350      0.0584
     26  CG        53.3730   19.8000   45.7790 C.2   350  TYM350      0.0001
     27  CD2       54.5430   20.4850   46.0630 C.2   350  TYM350      0.0115
     28  CE2       54.9070   19.9580   47.3360 C.2   350  TYM350      0.0631
     29  CE3       55.3440   21.4550   45.4730 C.2   350  TYM350      0.0006
     30  CD1       53.0390   18.9030   46.7980 C.2   350  TYM350      0.0942
     31  NE1       54.0010   19.0380   47.7150 N.2   350  TYM350     -0.2482
     32  CZ2       56.0900   20.4230   47.9620 C.3   350  TYM350      0.0717
     33  CZ3       56.4960   21.9290   46.0850 C.2   350  TYM350     -0.0042
     34  CH2       56.8840   21.4100   47.3370 C.2   350  TYM350     -0.0198
     35  C         50.9600   21.1720   43.1060 C.2   350  TYM350      0.3389
     36  O         49.8350   20.6910   43.0340 O.2   350  TYM350     -0.2482
     37  OPP       51.6310   21.5480   41.9960 O.3   350  TYM350     -0.4091
@<TRIPOS>BOND
     1    15    14    1
     2    13    14    2
     3    13    12    1
     4    14    16    1
     5    12    11    1
     6    16    17    2
     7    16    10    1
     8    17    18    1
     9    11    10    2
    10    10     9    1
    11    18     9    1
    12     9     8    1
    13     7     8    1
    14     7     6    1
    15     8    19    1
    16     6     5    1
    17     6    21    1
    18     4     5    1
    19     4     1    1
    20    19    20    1
    21    19    21    1
    22     3     1    2
    23     2     1    1
    24     1    37    1
    25    21    22    1
    26    37    35    1
    27    36    35    2
    28    35    24    1
    29    24    25    1
    30    24    23    1
    31    25    26    1
    32    29    27    2
    33    29    33    1
    34    26    27    1
    35    26    30    2
    36    27    28    1
    37    33    34    2
    38    30    31    1
    39    28    31    2
    40    28    32    1
    41    34    32    1
