@<TRIPOS>MOLECULE
1i6l_TYM_A_1.pdb
 37 41 0 0 0
SMALL
GASTEIGER

@<TRIPOS>ATOM
      1  P         50.9810   20.9900   40.3720 P.3   350  TYM350      0.2723
      2  O1P       51.2120   19.4940   40.3190 O.3   350  TYM350     -0.4273
      3  O2P       49.6510   21.6300   40.0920 O.2   350  TYM350     -0.5082
      4  O5'       52.1760   21.8430   39.4790 O.3   350  TYM350     -0.3024
      5  C5'       53.4910   21.4150   39.5670 C.3   350  TYM350      0.1823
      6  C4'       54.4420   22.5930   39.4350 C.3   350  TYM350      0.1822
      7  O4'       54.0930   23.3010   38.2250 O.3   350  TYM350     -0.3135
      8  C1'       53.8980   24.6920   38.4540 C.3   350  TYM350      0.3186
      9  N9        52.8870   25.2170   37.5570 N.pl3 350  TYM350     -0.1439
     10  C4        53.0620   26.3200   36.6980 C.2   350  TYM350      0.3518
     11  N3        54.1830   27.0980   36.5500 N.2   350  TYM350     -0.0055
     12  C2        53.9770   28.0550   35.6530 C.3   350  TYM350      0.5254
     13  N1        52.8810   28.2920   34.9330 N.2   350  TYM350      0.0021
     14  C6        51.8100   27.4990   35.0700 C.2   350  TYM350      0.4393
     15  N6        50.6940   27.7350   34.3520 N.pl3 350  TYM350      0.2180
     16  C5        51.8880   26.4480   36.0230 C.2   350  TYM350      0.2526
     17  N7        50.9670   25.4790   36.4240 N.2   350  TYM350     -0.2095
     18  C8        51.5880   24.7760   37.3170 C.3   350  TYM350      0.3377
     19  C2'       53.4380   24.7050   39.9840 C.3   350  TYM350      0.2570
     20  O2'       53.6210   26.0290   40.5420 O.3   350  TYM350     -0.2130
     21  C3'       54.3620   23.6550   40.6090 C.3   350  TYM350      0.2184
     22  O3'       55.6740   24.1100   40.8330 O.3   350  TYM350     -0.2174
     23  NH3       50.6030   21.3980   45.4330 N.3   350  TYM350     -0.1206
     24  CA        51.6430   21.3360   44.3670 C.3   350  TYM350      0.1943
     25  CB        52.4140   20.0290   44.4520 C.3   350  TYM350      0.0547
     26  CG        53.2700   19.8610   45.7190 C.2   350  TYM350     -0.0138
     27  CD2       54.4420   20.5420   46.0220 C.3   350  TYM350      0.0819
     28  CE2       54.7850   20.0140   47.3050 C.2   350  TYM350      0.0665
     29  CE3       55.2520   21.5140   45.4280 C.2   350  TYM350     -0.0164
     30  CD1       52.9100   18.9620   46.7180 C.2   350  TYM350      0.0907
     31  NE1       53.8730   19.0860   47.6640 N.2   350  TYM350     -0.2482
     32  CZ2       55.9640   20.4740   47.9630 C.2   350  TYM350      0.0153
     33  CZ3       56.3900   21.9690   46.0810 C.2   350  TYM350     -0.0038
     34  CH2       56.7550   21.4430   47.3440 C.2   350  TYM350      0.0009
     35  C         50.9020   21.2150   43.0120 C.2   350  TYM350      0.3389
     36  O         49.7820   20.7330   42.8970 O.2   350  TYM350     -0.2482
     37  OPP       51.5730   21.6050   41.9040 O.3   350  TYM350     -0.4091
@<TRIPOS>BOND
     1    15    14    1
     2    13    14    2
     3    13    12    1
     4    14    16    1
     5    12    11    1
     6    16    17    2
     7    16    10    1
     8    17    18    1
     9    11    10    2
    10    10     9    1
    11    18     9    1
    12     9     8    1
    13     7     8    1
    14     7     6    1
    15     8    19    1
    16     6     5    1
    17     6    21    1
    18     4     5    1
    19     4     1    1
    20    19    20    1
    21    19    21    1
    22     3     1    2
    23     2     1    1
    24     1    37    1
    25    21    22    1
    26    37    35    1
    27    36    35    2
    28    35    24    1
    29    24    25    1
    30    24    23    1
    31    25    26    1
    32    29    27    1
    33    29    33    2
    34    26    27    1
    35    26    30    2
    36    27    28    1
    37    33    34    1
    38    30    31    1
    39    28    31    2
    40    28    32    1
    41    34    32    2
