@<TRIPOS>MOLECULE
1i6m_TYM_A_1.pdb
 37 41 0 0 0
SMALL
GASTEIGER

@<TRIPOS>ATOM
      1  P         51.2440   20.9330   40.5440 P.3   350  TYM350      0.2723
      2  O1P       51.5310   19.4550   40.4880 O.3   350  TYM350     -0.4273
      3  O2P       49.9090   21.5660   40.3050 O.2   350  TYM350     -0.5082
      4  O5'       52.3770   21.7730   39.5950 O.3   350  TYM350     -0.3024
      5  C5'       53.6960   21.3220   39.6920 C.3   350  TYM350      0.1823
      6  C4'       54.6720   22.4680   39.6140 C.3   350  TYM350      0.1822
      7  O4'       54.3880   23.1860   38.3920 O.3   350  TYM350     -0.3135
      8  C1'       54.1790   24.5610   38.6030 C.3   350  TYM350      0.3186
      9  N9        53.1670   25.1050   37.6470 N.pl3 350  TYM350     -0.1439
     10  C4        53.3270   26.2120   36.8280 C.2   350  TYM350      0.3518
     11  N3        54.4180   26.9860   36.7260 N.2   350  TYM350     -0.0055
     12  C2        54.1970   27.9930   35.8790 C.3   350  TYM350      0.5254
     13  N1        53.0980   28.2340   35.1340 N.2   350  TYM350      0.0021
     14  C6        52.0460   27.4170   35.2200 C.2   350  TYM350      0.4393
     15  N6        50.9580   27.6380   34.4810 N.pl3 350  TYM350      0.2180
     16  C5        52.1410   26.3480   36.1350 C.2   350  TYM350      0.2526
     17  N7        51.2480   25.3680   36.4950 N.2   350  TYM350     -0.2095
     18  C8        51.8950   24.6610   37.3800 C.3   350  TYM350      0.3377
     19  C2'       53.6390   24.5420   40.0870 C.3   350  TYM350      0.2570
     20  O2'       53.7770   25.8290   40.6910 O.3   350  TYM350     -0.2130
     21  C3'       54.5090   23.4970   40.7730 C.3   350  TYM350      0.2184
     22  O3'       55.7930   24.0140   41.0850 O.3   350  TYM350     -0.2174
     23  NH3       51.0430   21.3290   45.5830 N.3   350  TYM350     -0.1206
     24  CA        51.9800   21.1720   44.4580 C.3   350  TYM350      0.1943
     25  CB        52.6720   19.8370   44.5700 C.3   350  TYM350      0.0547
     26  CG        53.5300   19.7110   45.8300 C.2   350  TYM350     -0.0138
     27  CD2       54.7070   20.4070   46.1260 C.3   350  TYM350      0.0819
     28  CE2       55.0750   19.8710   47.3770 C.2   350  TYM350      0.0665
     29  CE3       55.4980   21.3860   45.5110 C.2   350  TYM350     -0.0164
     30  CD1       53.2030   18.8010   46.8340 C.2   350  TYM350      0.0907
     31  NE1       54.1710   18.9270   47.7620 N.2   350  TYM350     -0.2482
     32  CZ2       56.2710   20.3520   48.0170 C.2   350  TYM350      0.0153
     33  CZ3       56.6430   21.8400   46.1340 C.2   350  TYM350     -0.0038
     34  CH2       57.0420   21.3310   47.3830 C.2   350  TYM350      0.0009
     35  C         51.1880   21.1450   43.1640 C.2   350  TYM350      0.3389
     36  O         50.0220   20.8000   43.0970 O.2   350  TYM350     -0.2482
     37  OPP       51.8310   21.5770   42.0180 O.3   350  TYM350     -0.4091
@<TRIPOS>BOND
     1    15    14    1
     2    13    14    2
     3    13    12    1
     4    14    16    1
     5    12    11    1
     6    16    17    2
     7    16    10    1
     8    17    18    1
     9    11    10    2
    10    10     9    1
    11    18     9    1
    12     9     8    1
    13     7     8    1
    14     7     6    1
    15     8    19    1
    16     4     5    1
    17     4     1    1
    18     6     5    1
    19     6    21    1
    20    19    20    1
    21    19    21    1
    22     3     1    2
    23     2     1    1
    24     1    37    1
    25    21    22    1
    26    37    35    1
    27    36    35    2
    28    35    24    1
    29    24    25    1
    30    24    23    1
    31    25    26    1
    32    29    27    1
    33    29    33    2
    34    26    27    1
    35    26    30    2
    36    27    28    1
    37    33    34    1
    38    30    31    1
    39    28    31    2
    40    28    32    1
    41    34    32    2
