@<TRIPOS>MOLECULE
1i6x_CMP_A_1.pdb
 22 25 0 0 0
SMALL
GASTEIGER

@<TRIPOS>ATOM
      1  P         40.0360   41.1540   51.8430 P.3   301  CMP301      0.2141
      2  O1P       39.6490   40.0520   50.9250 O.2   301  CMP301     -0.5172
      3  O2P       40.3680   40.8330   53.2400 O.3   301  CMP301     -0.4373
      4  O5'       41.4170   41.7620   51.1720 O.3   301  CMP301     -0.3114
      5  C5'       41.5290   43.0240   50.4080 C.3   301  CMP301      0.1812
      6  C4'       40.2330   43.8990   50.2480 C.3   301  CMP301      0.1793
      7  O4'       39.9270   44.3580   48.9400 O.3   301  CMP301     -0.3136
      8  C3'       39.0030   43.1160   50.5650 C.3   301  CMP301      0.1884
      9  O3'       39.0100   42.4040   51.8150 O.3   301  CMP301     -0.3111
     10  C2'       37.9660   44.1040   50.2720 C.3   301  CMP301      0.2541
     11  O2'       37.8260   45.0350   51.3370 O.3   301  CMP301     -0.2131
     12  C1'       38.5830   44.8720   49.0800 C.3   301  CMP301      0.3185
     13  N9        37.8430   44.5110   47.8380 N.pl3 301  CMP301     -0.1439
     14  C8        37.9370   43.3280   47.1100 C.3   301  CMP301      0.3377
     15  N7        37.1690   43.2530   46.0680 N.2   301  CMP301     -0.2095
     16  C5        36.5030   44.4690   46.0780 C.2   301  CMP301      0.2526
     17  C6        35.5220   45.0310   45.2200 C.2   301  CMP301      0.4393
     18  N6        35.0550   44.3780   44.1550 N.pl3 301  CMP301      0.2180
     19  N1        35.0480   46.2800   45.5030 N.2   301  CMP301      0.0021
     20  C2        35.5340   46.9190   46.5880 C.3   301  CMP301      0.5254
     21  N3        36.4540   46.5030   47.4740 N.2   301  CMP301     -0.0055
     22  C4        36.9070   45.2500   47.1580 C.2   301  CMP301      0.3518
@<TRIPOS>BOND
     1    18    17    1
     2    17    19    2
     3    17    16    1
     4    19    20    1
     5    15    16    2
     6    15    14    1
     7    16    22    1
     8    20    21    1
     9    14    13    1
    10    22    21    2
    11    22    13    1
    12    13    12    1
    13     7    12    1
    14     7     6    1
    15    12    10    1
    16     6     5    1
    17     6     8    1
    18    10     8    1
    19    10    11    1
    20     5     4    1
    21     8     9    1
    22     2     1    2
    23     4     1    1
    24     9     1    1
    25     1     3    1
