@<TRIPOS>MOLECULE
1i73_III_B_1.pdb
 31 33 0 0 0
SMALL
GASTEIGER

@<TRIPOS>ATOM
      1  N         24.1000   64.5590   59.6270 N.2     1  PRO1       -0.2701
      2  CA        24.0300   63.5220   58.5430 C.2     1  PRO1        0.1085
      3  C         24.8250   62.4410   58.0080 C.2     1  PRO1        0.2784
      4  O         26.0460   62.7280   57.9380 O.2     1  PRO1       -0.2671
      5  CB        23.0450   64.2160   57.6080 C.3     1  PRO1        0.0522
      6  CG        23.8080   65.5150   57.4720 C.3     1  PRO1        0.0327
      7  CD        24.3260   65.8200   58.8670 C.3     1  PRO1        0.1257
      8  N         24.2950   61.4170   57.6430 N.am    2  LEU2       -0.1930
      9  CA        25.1670   60.3910   57.0950 C.3     2  LEU2        0.1731
     10  C         25.1710   60.5830   55.5680 C.2     2  LEU2        0.2616
     11  O         24.0730   60.6230   55.0180 O.2     2  LEU2       -0.2715
     12  CB        24.6940   58.9650   57.3960 C.3     2  LEU2        0.0311
     13  CG        25.5600   58.1780   58.3730 C.3     2  LEU2        0.0022
     14  CD1       24.9000   56.8950   58.8620 C.3     2  LEU2        0.0001
     15  CD2       26.9150   57.8690   57.7440 C.3     2  LEU2        0.0001
     16  N         26.3830   60.4420   54.9750 N.am    3  TRP3       -0.1980
     17  CA        26.4750   60.6540   53.5500 C.3     3  TRP3        0.1507
     18  CB        27.7580   61.2530   53.0480 C.3     3  TRP3        0.0534
     19  CG        28.6260   61.9370   54.0460 C.2     3  TRP3       -0.0137
     20  CD1       29.7410   61.4040   54.6410 C.2     3  TRP3        0.0907
     21  CD2       28.5250   63.2750   54.5420 C.3     3  TRP3        0.0819
     22  NE1       30.3190   62.3190   55.4920 N.2     3  TRP3       -0.2482
     23  CE2       29.5830   63.4750   55.4480 C.2     3  TRP3        0.0665
     24  CE3       27.6430   64.3290   54.3200 C.2     3  TRP3       -0.0164
     25  CZ2       29.7830   64.6730   56.1340 C.2     3  TRP3        0.0153
     26  CZ3       27.8140   65.5180   54.9940 C.2     3  TRP3       -0.0038
     27  CH2       28.8860   65.6780   55.8950 C.2     3  TRP3        0.0009
     28  P         26.0510   59.0600   52.6780 P.3     3  TRP3        0.1371
     29  O1P       24.5650   58.8140   52.8290 O.3     3  TRP3       -0.3560
     30  O2P       26.7510   57.9390   53.3310 O.3     3  TRP3       -0.3560
     31  O3P       26.2540   59.2170   51.1970 O.2     3  TRP3       -0.4584
@<TRIPOS>BOND
     1    31    28    2
     2    28    29    1
     3    28    30    1
     4    28    17    1
     5    18    17    1
     6    18    19    1
     7    17    16    1
     8    19    21    1
     9    19    20    2
    10    24    21    1
    11    24    26    2
    12    21    23    1
    13    20    22    1
    14    16    10   am
    15    26    27    1
    16    11    10    2
    17    23    22    2
    18    23    25    1
    19    10     9    1
    20    27    25    2
    21     9    12    1
    22     9     8    1
    23    12    13    1
    24     6     5    1
    25     6     7    1
    26     5     2    1
    27     8     3   am
    28    15    13    1
    29     4     3    2
    30     3     2    1
    31    13    14    1
    32     2     1    2
    33     7     1    1
