@<TRIPOS>MOLECULE
1i75_NOJ_A_1.pdb
 11 11 0 0 0
SMALL
GASTEIGER

@<TRIPOS>ATOM
      1  C1        45.2950   54.2460   19.5050 C.3   2691  NOJ2691     0.1243
      2  C2        46.4720   53.3520   19.9670 C.3   2691  NOJ2691     0.2020
      3  O2        47.6940   54.0860   19.9250 O.3   2691  NOJ2691    -0.2188
      4  C3        46.5800   52.1620   19.0320 C.3   2691  NOJ2691     0.2151
      5  O3        47.6980   51.3160   19.3240 O.3   2691  NOJ2691    -0.2176
      6  C4        45.2800   51.3150   19.0880 C.3   2691  NOJ2691     0.2031
      7  O4        45.5110   50.1350   18.2740 O.3   2691  NOJ2691    -0.2187
      8  C5        44.0980   52.2460   18.5830 C.3   2691  NOJ2691     0.1386
      9  N5        44.0380   53.4810   19.3650 N.3   2691  NOJ2691    -0.2113
     10  C6        42.6820   51.6040   18.7650 C.3   2691  NOJ2691     0.2020
     11  O6        42.2520   51.8940   20.1210 O.3   2691  NOJ2691    -0.2188
@<TRIPOS>BOND
     1     7     6    1
     2     8    10    1
     3     8     6    1
     4     8     9    1
     5    10    11    1
     6     4     6    1
     7     4     5    1
     8     4     2    1
     9     9     1    1
    10     1     2    1
    11     3     2    1
