@<TRIPOS>MOLECULE
1i76_BSI_A_1.pdb
 28 31 0 0 0
SMALL
GASTEIGER

@<TRIPOS>ATOM
      1  C1        30.4890   58.3920   55.7230 C.ar    1  BSI1       -0.0003
      2  C2        30.4750   58.2630   54.3370 C.ar    1  BSI1       -0.0032
      3  C3        29.5360   59.0110   53.6250 C.ar    1  BSI1       -0.0084
      4  C7        29.5030   58.8900   52.1240 C.3     1  BSI1        0.1224
      5  C9        27.2180   59.9990   52.1790 C.3     1  BSI1        0.1868
      6  C10       27.6400   60.6780   53.4860 C.3     1  BSI1        0.0553
      7  C16       27.5990   58.0250   49.3870 C.ar    1  BSI1        0.1222
      8  C19       26.4650   55.6930   48.3920 C.ar    1  BSI1        0.0001
      9  C20       27.7650   55.7110   48.9000 C.ar    1  BSI1        0.0014
     10  C21       28.3440   56.8700   49.4010 C.ar    1  BSI1        0.0199
     11  C22       25.9020   54.4630   47.8590 C.ar    1  BSI1        0.0000
     12  C24       25.8700   52.0450   47.5590 C.ar    1  BSI1        0.0000
     13  C27       24.9880   54.6000   46.8000 C.ar    1  BSI1        0.0000
     14  O28       29.7190   59.4650   49.3460 O.2     1  BSI1       -0.1528
     15  C4        28.6590   59.8760   54.2780 C.ar    1  BSI1       -0.0228
     16  C5        28.6530   59.9650   55.6700 C.ar    1  BSI1       -0.0045
     17  C6        29.5800   59.2060   56.3900 C.ar    1  BSI1       -0.0003
     18  N8        28.5190   59.6820   51.4510 N.3     1  BSI1       -0.1412
     19  S15       28.3950   59.5360   49.8340 S.O2    1  BSI1        0.0640
     20  C17       26.2990   58.0110   48.9290 C.ar    1  BSI1        0.0199
     21  C18       25.6970   56.8510   48.4560 C.ar    1  BSI1        0.0014
     22  C23       26.3470   53.1860   48.1950 C.ar    1  BSI1        0.0000
     23  C25       24.9340   52.1800   46.5380 C.ar    1  BSI1        0.0000
     24  C26       24.5120   53.4540   46.1680 C.ar    1  BSI1        0.0000
     25  O29       27.5560   60.6100   49.3650 O.2     1  BSI1       -0.1528
     26  C43       26.3800   58.8340   52.5210 C.2     1  BSI1        0.3809
     27  O45       26.9580   57.7720   52.8730 O.co2   1  BSI1       -0.2441
     28  O46       25.1290   58.9180   52.5900 O.co2   1  BSI1       -0.2441
@<TRIPOS>BOND
     1    24    23   ar
     2    24    13   ar
     3    23    12   ar
     4    13    11   ar
     5    12    22   ar
     6    11    22   ar
     7    11     8    1
     8     8    21   ar
     9     8     9   ar
    10    21    20   ar
    11     9    10   ar
    12    20     7   ar
    13    14    19    2
    14    25    19    2
    15     7    10   ar
    16     7    19    1
    17    19    18    1
    18    18     4    1
    19    18     5    1
    20     4     3    1
    21     5    26    1
    22     5     6    1
    23    26    28   ar
    24    26    27   ar
    25     6    15    1
    26     3    15   ar
    27     3     2   ar
    28    15    16   ar
    29     2     1   ar
    30    16    17   ar
    31     1    17   ar
