@<TRIPOS>MOLECULE
1i77_HEM_A_1.pdb
 43 50 0 0 0
SMALL
GASTEIGER

@<TRIPOS>ATOM
      1 FE          7.2650   -3.4840   30.3170 Fe    108  HEM108      0.0000
      2  CHA        7.7520   -4.9010   27.2770 C.2   108  HEM108      0.0000
      3  CHB        7.1360   -6.5160   31.7300 C.2   108  HEM108      0.0000
      4  CHC        7.1160   -2.0120   33.4290 C.2   108  HEM108      0.0000
      5  CHD        6.8120   -0.4990   28.8990 C.2   108  HEM108      0.0000
      6  NA         7.4210   -5.3400   29.6410 N.2   108  HEM108      0.0000
      7  C1A        7.6560   -5.7550   28.3660 C.2   108  HEM108      0.0000
      8  C2A        7.6890   -7.1830   28.3170 C.2   108  HEM108      0.0000
      9  C3A        7.4430   -7.6530   29.5490 C.2   108  HEM108      0.0000
     10  C4A        7.2840   -6.4980   30.3740 C.2   108  HEM108      0.0000
     11  CMA        7.4980   -9.1120   30.0010 C.3   108  HEM108      0.0000
     12  CAA        8.0980   -7.9990   27.0970 C.3   108  HEM108      0.0000
     13  CBA        6.9100   -8.2140   26.1980 C.3   108  HEM108      0.0000
     14  CGA        7.2220   -9.1710   25.0760 C.2   108  HEM108      0.0000
     15  O1A        6.2990   -9.8980   24.6570 O.co2 108  HEM108      0.0000
     16  O2A        8.3880   -9.1960   24.6140 O.co2 108  HEM108      0.0000
     17  NB         7.1710   -4.1020   32.2000 N.ar  108  HEM108      0.0000
     18  C1B        7.1100   -5.4330   32.5920 C.ar  108  HEM108      0.0000
     19  C2B        6.9260   -5.5500   34.0120 C.ar  108  HEM108      0.0000
     20  C3B        6.9840   -4.2890   34.5390 C.ar  108  HEM108      0.0000
     21  C4B        7.1070   -3.3970   33.3760 C.ar  108  HEM108      0.0000
     22  CMB        6.5340   -6.8410   34.7440 C.3   108  HEM108      0.0000
     23  CAB        6.9650   -3.9100   35.8870 C.3   108  HEM108      0.0000
     24  CBB        7.9870   -4.3130   36.8160 C.3   108  HEM108      0.0000
     25  NC         7.0830   -1.6440   31.0230 N.2   108  HEM108      0.0000
     26  C1C        7.1090   -1.1930   32.3270 C.2   108  HEM108      0.0000
     27  C2C        6.9160    0.2520   32.4070 C.2   108  HEM108      0.0000
     28  C3C        6.7740    0.6980   31.1240 C.2   108  HEM108      0.0000
     29  C4C        6.8500   -0.5130   30.2720 C.2   108  HEM108      0.0000
     30  CMC        6.7790    1.0070   33.7180 C.3   108  HEM108      0.0000
     31  CAC        6.5760    2.0130   30.6810 C.3   108  HEM108      0.0000
     32  CBC        7.3010    3.0870   31.2240 C.3   108  HEM108      0.0000
     33  ND         7.3140   -2.8140   28.4720 N.ar  108  HEM108      0.0000
     34  C1D        7.1140   -1.5380   28.0590 C.ar  108  HEM108      0.0000
     35  C2D        7.2320   -1.4370   26.5930 C.ar  108  HEM108      0.0000
     36  C3D        7.5030   -2.6600   26.1390 C.ar  108  HEM108      0.0000
     37  C4D        7.5510   -3.5200   27.3040 C.ar  108  HEM108      0.0000
     38  CMD        7.0500   -0.1920   25.7540 C.3   108  HEM108      0.0000
     39  CAD        7.6090   -3.0690   24.6780 C.3   108  HEM108      0.0000
     40  CBD        6.3020   -3.6510   24.1470 C.3   108  HEM108      0.0000
     41  CGD        6.3090   -3.7980   22.6300 C.2   108  HEM108      0.0000
     42  O1D        7.4030   -3.9390   22.0610 O.co2 108  HEM108      0.0000
     43  O2D        5.2300   -3.7760   22.0060 O.co2 108  HEM108      0.0000
@<TRIPOS>BOND
     1    43    41   ar
     2    42    41   ar
     3    41    40    1
     4    40    39    1
     5    16    14   ar
     6    15    14   ar
     7    39    36    1
     8    14    13    1
     9    38    35    1
    10    36    35   ar
    11    36    37   ar
    12    13    12    1
    13    35    34   ar
    14    12     8    1
    15     2    37    2
    16     2     7    1
    17    37    33   ar
    18    34    33   ar
    19    34     5    2
    20     8     7    1
    21     8     9    2
    22     7     6    2
    23    33     1    1
    24     5    29    1
    25     9    11    1
    26     9    10    1
    27     6     1    1
    28     6    10    1
    29    29    25    2
    30    29    28    1
    31     1    25    1
    32     1    17    1
    33    10     3    2
    34    31    28    1
    35    31    32    1
    36    25    26    1
    37    28    27    2
    38     3    18    1
    39    17    18   ar
    40    17    21   ar
    41    26    27    1
    42    26     4    2
    43    27    30    1
    44    18    19   ar
    45    21     4    1
    46    21    20   ar
    47    19    20   ar
    48    19    22    1
    49    20    23    1
    50    23    24    1
