@<TRIPOS>MOLECULE
1i7a_PHE_A_1.pdb
 11 11 0 0 0
SMALL
GASTEIGER

@<TRIPOS>ATOM
      1  N         27.0480    2.9230   49.7660 N.3   403  PHE403     -0.1241
      2  CA        26.5560    3.8690   50.7640 C.3   403  PHE403      0.1605
      3  C         27.1240    5.2590   50.5140 C.2   403  PHE403      0.2264
      4  O         27.8540    5.4700   49.5480 O.2   403  PHE403     -0.2867
      5  CB        26.9340    3.4140   52.1830 C.3   403  PHE403      0.0534
      6  CG        26.2480    2.1530   52.6310 C.ar  403  PHE403     -0.0203
      7  CD1       26.3180    1.7520   53.9590 C.ar  403  PHE403     -0.0042
      8  CD2       25.5270    1.3690   51.7330 C.ar  403  PHE403     -0.0042
      9  CE1       25.6800    0.5790   54.3930 C.ar  403  PHE403     -0.0003
     10  CE2       24.8830    0.1930   52.1540 C.ar  403  PHE403     -0.0003
     11  CZ        24.9590   -0.2000   53.4870 C.ar  403  PHE403     -0.0000
@<TRIPOS>BOND
     1     4     3    2
     2     1     2    1
     3     3     2    1
     4     2     5    1
     5     8    10   ar
     6     8     6   ar
     7    10    11   ar
     8     5     6    1
     9     6     7   ar
    10    11     9   ar
    11     7     9   ar
