@<TRIPOS>MOLECULE
1i7a_III_E_1.pdb
 27 28 0 0 0
SMALL
GASTEIGER

@<TRIPOS>ATOM
      1  N         11.1280   14.6490   36.7760 N.3   201  PHE201     -0.1227
      2  CA        10.8150   14.0650   38.0780 C.3   201  PHE201      0.1736
      3  C          9.3870   13.5180   38.0000 C.2   201  PHE201      0.2595
      4  O          8.6100   13.6500   38.9450 O.2   201  PHE201     -0.2718
      5  CB        10.9080   15.1500   39.1590 C.3   201  PHE201      0.0547
      6  CG        11.1700   14.6290   40.5560 C.ar  201  PHE201     -0.0202
      7  CD1       10.6350   13.4180   40.9940 C.ar  201  PHE201     -0.0042
      8  CD2       11.8830   15.4040   41.4660 C.ar  201  PHE201     -0.0042
      9  CE1       10.8050   12.9950   42.3150 C.ar  201  PHE201     -0.0003
     10  CE2       12.0550   14.9850   42.7910 C.ar  201  PHE201     -0.0003
     11  CZ        11.5120   13.7800   43.2140 C.ar  201  PHE201     -0.0000
     12  N          9.0480   12.9010   36.8730 N.am  202  ALA202     -0.1966
     13  CA         7.7120   12.3680   36.6810 C.3   202  ALA202      0.1728
     14  C          7.3980   11.1930   37.6060 C.2   202  ALA202      0.2616
     15  O          8.2220   10.8020   38.4280 O.2   202  ALA202     -0.2715
     16  CB         7.5390   11.9510   35.2370 C.3   202  ALA202      0.0334
     17  N          6.1920   10.6450   37.4730 N.am  203  PHE203     -0.1974
     18  CA         5.7490    9.4980   38.2710 C.3   203  PHE203      0.1639
     19  C          5.0640    8.4580   37.3840 C.2   203  PHE203      0.2290
     20  O          5.2550    8.4370   36.1640 O.2   203  PHE203     -0.2864
     21  CB         4.7760    9.9370   39.3680 C.3   203  PHE203      0.0560
     22  CG         5.4450   10.3890   40.6300 C.ar  203  PHE203     -0.0200
     23  CD1        6.3050   11.4800   40.6290 C.ar  203  PHE203     -0.0042
     24  CD2        5.2070    9.7250   41.8250 C.ar  203  PHE203     -0.0042
     25  CE1        6.9170   11.9010   41.8040 C.ar  203  PHE203     -0.0003
     26  CE2        5.8130   10.1390   43.0050 C.ar  203  PHE203     -0.0003
     27  CZ         6.6680   11.2280   42.9940 C.ar  203  PHE203     -0.0000
@<TRIPOS>BOND
     1    16    13    1
     2    20    19    2
     3    13    12    1
     4    13    14    1
     5     1     2    1
     6    12     3   am
     7    19    18    1
     8    17    14   am
     9    17    18    1
    10    14    15    2
    11     3     2    1
    12     3     4    2
    13     2     5    1
    14    18    21    1
    15     5     6    1
    16    21    22    1
    17     6     7   ar
    18     6     8   ar
    19    23    22   ar
    20    23    25   ar
    21    22    24   ar
    22     7     9   ar
    23     8    10   ar
    24    25    27   ar
    25    24    26   ar
    26     9    11   ar
    27    10    11   ar
    28    27    26   ar
