@<TRIPOS>MOLECULE
1i7e_IBS_A_1.pdb
 29 29 0 0 0
SMALL
GASTEIGER

@<TRIPOS>ATOM
      1  C1        23.7150   38.9280   63.1850 C.3   2001  IBS2001     0.1873
      2  C2        24.9450   38.9490   64.1620 C.3   2001  IBS2001     0.2146
      3  C3        24.4400   38.4300   65.5400 C.3   2001  IBS2001     0.2146
      4  C4        23.7350   37.0370   65.5680 C.3   2001  IBS2001     0.1892
      5  C5        22.5180   37.1210   64.5380 C.3   2001  IBS2001     0.1891
      6  C6        23.0770   37.4590   63.1090 C.3   2001  IBS2001     0.2119
      7  O1        23.1820   40.2270   62.3780 O.3   2001  IBS2001    -0.3111
      8  O2        25.9550   38.0990   63.5230 O.3   2001  IBS2001    -0.2176
      9  O3        25.5410   38.4040   66.4110 O.3   2001  IBS2001    -0.2176
     10  O4        23.2930   36.7170   66.9330 O.3   2001  IBS2001    -0.2674
     11  O5        21.8640   35.8340   64.5820 O.3   2001  IBS2001    -0.2674
     12  O6        22.0000   37.4910   62.2250 O.3   2001  IBS2001    -0.2177
     13  P1        22.3000   41.0090   63.1790 P.3   2001  IBS2001     0.2141
     14  O11       22.4790   40.7550   64.7100 O.3   2001  IBS2001    -0.4373
     15  O12       20.7680   40.6900   62.9930 O.3   2001  IBS2001    -0.3112
     16  C21       19.9500   40.1590   61.9010 C.3   2001  IBS2001     0.1846
     17  C24       19.1690   41.3290   61.2810 C.3   2001  IBS2001     0.2146
     18  O29       19.6230   42.5590   61.8340 O.3   2001  IBS2001    -0.2176
     19  C25       17.6810   41.2570   61.5440 C.3   2001  IBS2001     0.2174
     20  O26       16.9200   41.4470   60.3890 O.3   2001  IBS2001    -0.2175
     21  O13       22.6520   42.3700   62.8210 O.2   2001  IBS2001    -0.5172
     22  P4        22.9820   37.5920   68.2920 P.3   2001  IBS2001     0.5327
     23  O41       24.1980   38.4510   68.9040 O.3   2001  IBS2001    -0.1145
     24  O42       22.4620   36.6130   69.4090 O.3   2001  IBS2001    -0.1145
     25  O43       21.7930   38.5570   67.8160 O.2   2001  IBS2001    -0.2224
     26  P5        20.3010   35.4160   64.4000 P.3   2001  IBS2001     0.5327
     27  O51       19.4170   36.5820   64.9840 O.3   2001  IBS2001    -0.1145
     28  O52       19.7930   35.2480   62.8810 O.2   2001  IBS2001    -0.2224
     29  O53       20.1110   33.9720   65.1650 O.3   2001  IBS2001    -0.1145
@<TRIPOS>BOND
     1    20    19    1
     2    17    19    1
     3    17    18    1
     4    17    16    1
     5    16    15    1
     6    12     6    1
     7     7    13    1
     8     7     1    1
     9    21    13    2
    10    28    26    2
    11    15    13    1
    12     6     1    1
    13     6     5    1
    14    13    14    1
    15     1     2    1
    16     8     2    1
    17     2     3    1
    18    26    11    1
    19    26    27    1
    20    26    29    1
    21     5    11    1
    22     5     4    1
    23     3     4    1
    24     3     9    1
    25     4    10    1
    26    10    22    1
    27    25    22    2
    28    22    23    1
    29    22    24    1
