@<TRIPOS>MOLECULE
1i7g_AZ2_A_1.pdb
 28 29 0 0 0
SMALL
GASTEIGER

@<TRIPOS>ATOM
      1  C1        38.5740   31.9690   36.6470 C.ar  469  AZ2469     -0.0190
      2  C2        39.5130   30.7880   36.6050 C.3   469  AZ2469      0.0676
      3  C5        40.3300   30.6260   37.9090 C.3   469  AZ2469      0.2220
      4  O7        41.2860   31.7030   37.9490 O.3   469  AZ2469     -0.3448
      5  C8        41.6910   32.1050   39.2530 C.3   469  AZ2469      0.1429
      6  C11       42.2940   33.4880   39.1140 C.3   469  AZ2469      0.0347
      7  C15       40.9620   29.2420   37.9120 C.2   469  AZ2469      0.3917
      8  O16       40.0910   28.2780   38.2830 O.co2 469  AZ2469     -0.2429
      9  O18       42.1140   28.9560   37.6270 O.co2 469  AZ2469     -0.2429
     10  C19       39.0760   33.2960   36.4380 C.ar  469  AZ2469     -0.0011
     11  C21       38.2100   34.4030   36.4970 C.ar  469  AZ2469      0.0366
     12  C23       36.8300   34.2240   36.7650 C.ar  469  AZ2469      0.1385
     13  C24       36.3250   32.8990   36.9670 C.ar  469  AZ2469      0.0366
     14  C26       37.1850   31.7900   36.9090 C.ar  469  AZ2469     -0.0011
     15  O28       36.1240   35.3940   36.7930 O.3   469  AZ2469     -0.4751
     16  C29       34.8720   35.4130   37.4750 C.3   469  AZ2469      0.2101
     17  C32       34.5440   36.8830   37.7090 C.3   469  AZ2469      0.0736
     18  C35       34.8830   37.3340   39.0980 C.ar  469  AZ2469     -0.0182
     19  C36       35.7260   38.4610   39.3000 C.ar  469  AZ2469     -0.0009
     20  C38       36.0290   38.8900   40.6080 C.ar  469  AZ2469      0.0395
     21  C40       35.4930   38.1950   41.7340 C.ar  469  AZ2469      0.1714
     22  C41       34.6630   37.0770   41.5380 C.ar  469  AZ2469      0.0395
     23  C43       34.3560   36.6440   40.2300 C.ar  469  AZ2469     -0.0009
     24  O45       35.8350   38.7070   42.9490 O.3   469  AZ2469     -0.3604
     25  S46       34.8030   39.7180   43.7040 S.3   469  AZ2469      0.0322
     26  C47       35.7830   39.9980   45.1580 C.3   469  AZ2469      0.1938
     27  O51       34.7270   40.9530   42.9560 O.3   469  AZ2469     -0.0616
     28  O52       33.6190   38.9790   44.0960 O.3   469  AZ2469     -0.0616
@<TRIPOS>BOND
     1    10    11   ar
     2    10     1   ar
     3    11    12   ar
     4     2     1    1
     5     2     3    1
     6     1    14   ar
     7    12    15    1
     8    12    13   ar
     9    15    16    1
    10    14    13   ar
    11    16    17    1
    12     9     7   ar
    13    17    18    1
    14     3     7    1
    15     3     4    1
    16     7     8   ar
    17     4     5    1
    18    18    19   ar
    19    18    23   ar
    20     6     5    1
    21    19    20   ar
    22    23    22   ar
    23    20    21   ar
    24    22    21   ar
    25    21    24    1
    26    24    25    1
    27    27    25    1
    28    25    28    1
    29    25    26    1
