@<TRIPOS>MOLECULE
1i7g_CPQ_A_1.pdb
 25 28 0 0 0
SMALL
GASTEIGER

@<TRIPOS>ATOM
      1  C1        17.6910   24.8420   19.5980 C.3   470  CPQ470      0.0026
      2  C2        16.7370   23.7830   19.0450 C.3   470  CPQ470      0.0002
      3  C3        18.2590   23.2560   17.0590 C.3   470  CPQ470      0.0329
      4  C4        18.7470   23.0640   15.5280 C.3   470  CPQ470      0.1519
      5  C5        17.7250   22.3940   14.6730 C.3   470  CPQ470      0.0282
      6  C6        16.3130   22.6130   15.1900 C.3   470  CPQ470      0.0024
      7  C7        15.3190   22.1170   14.1840 C.3   470  CPQ470      0.0001
      8  C8        16.1600   22.1230   12.7850 C.3   470  CPQ470      0.0001
      9  C9        17.7050   22.3490   13.2620 C.3   470  CPQ470      0.0024
     10  C10       17.8880   20.7150   15.0990 C.3   470  CPQ470      0.0025
     11  C11       16.9390   22.3720   19.7410 C.3   470  CPQ470      0.0000
     12  C12       17.4530   26.2960   19.2720 C.3   470  CPQ470      0.0329
     13  C13       16.0760   26.7890   19.4850 C.3   470  CPQ470      0.1520
     14  C14       15.0310   25.8080   18.8580 C.3   470  CPQ470      0.0329
     15  C15       15.2890   24.2860   19.2730 C.3   470  CPQ470      0.0025
     16  C16       14.2740   23.4680   18.6150 C.3   470  CPQ470      0.0001
     17  C17       14.3890   23.2980   17.1150 C.3   470  CPQ470      0.0000
     18  C18       15.8200   22.6780   16.6030 C.3   470  CPQ470      0.0002
     19  C19       16.8730   23.6580   17.4890 C.3   470  CPQ470      0.0025
     20  C20       18.7770   21.8500   12.2050 C.3   470  CPQ470      0.0001
     21  C21       20.2230   21.7350   12.5930 C.3   470  CPQ470      0.0000
     22  C22       18.6380   22.6720   10.8860 C.3   470  CPQ470      0.0000
     23  C23       18.6900   21.9020    9.6700 C.3   470  CPQ470      0.0000
     24  O2        15.7970   28.1790   18.9330 O.3   470  CPQ470     -0.2232
     25  O4        18.7270   24.2030   15.1200 O.3   470  CPQ470     -0.2232
@<TRIPOS>BOND
     1    23    22    1
     2    22    20    1
     3    20    21    1
     4    20     9    1
     5     8     9    1
     6     8     7    1
     7     9     5    1
     8     7     6    1
     9     5    10    1
    10     5     6    1
    11     5     4    1
    12    25     4    1
    13     6    18    1
    14     4     3    1
    15    18    17    1
    16    18    19    1
    17     3    19    1
    18    17    16    1
    19    19     2    1
    20    16    15    1
    21    14    15    1
    22    14    13    1
    23    24    13    1
    24     2    15    1
    25     2     1    1
    26     2    11    1
    27    12    13    1
    28    12     1    1
