@<TRIPOS>MOLECULE
1i7i_AZ2_A_1.pdb
 28 29 0 0 0
SMALL
GASTEIGER

@<TRIPOS>ATOM
      1  C1        18.3960   16.3430   16.4840 C.ar  101  AZ2101     -0.0190
      2  C2        18.8060   16.4240   17.9370 C.3   101  AZ2101      0.0676
      3  C5        19.2630   17.8180   18.4260 C.3   101  AZ2101      0.2220
      4  O7        20.4490   18.1410   17.6930 O.3   101  AZ2101     -0.3448
      5  C8        20.6920   19.5210   17.5290 C.3   101  AZ2101      0.1429
      6  C11       22.0860   19.6460   16.9440 C.3   101  AZ2101      0.0347
      7  C15       19.4700   17.7540   19.9600 C.2   101  AZ2101      0.3917
      8  O16       18.3230   17.9030   20.6580 O.co2 101  AZ2101     -0.2429
      9  O18       20.5210   17.5850   20.5410 O.co2 101  AZ2101     -0.2429
     10  C19       19.3450   16.0130   15.4660 C.ar  101  AZ2101     -0.0011
     11  C21       18.9390   15.9390   14.1020 C.ar  101  AZ2101      0.0366
     12  C23       17.5740   16.1940   13.7360 C.ar  101  AZ2101      0.1385
     13  C24       16.6480   16.5200   14.7520 C.ar  101  AZ2101      0.0366
     14  C26       17.0570   16.5930   16.1130 C.ar  101  AZ2101     -0.0011
     15  O28       17.2390   16.1010   12.3820 O.3   101  AZ2101     -0.4751
     16  C29       18.2370   15.8860   11.3530 C.3   101  AZ2101      0.2101
     17  C32       17.6420   16.3750   10.0300 C.3   101  AZ2101      0.0736
     18  C35       17.6740   17.8740    9.9160 C.ar  101  AZ2101     -0.0182
     19  C36       18.7320   18.5310    9.2180 C.ar  101  AZ2101     -0.0009
     20  C38       18.7580   19.9510    9.1180 C.ar  101  AZ2101      0.0395
     21  C40       17.7250   20.7240    9.7160 C.ar  101  AZ2101      0.1714
     22  C41       16.6680   20.0780   10.4080 C.ar  101  AZ2101      0.0395
     23  C43       16.6510   18.6630   10.5030 C.ar  101  AZ2101     -0.0009
     24  O45       17.8440   22.0760    9.5550 O.3   101  AZ2101     -0.3604
     25  S46       17.2560   22.7890    8.2240 S.3   101  AZ2101      0.0322
     26  C47       17.5950   24.4670    8.7020 C.3   101  AZ2101      0.1938
     27  O51       18.1020   22.4590    7.1090 O.3   101  AZ2101     -0.0616
     28  O52       15.8090   22.5980    8.1760 O.3   101  AZ2101     -0.0616
@<TRIPOS>BOND
     1    27    25    1
     2    28    25    1
     3    25    26    1
     4    25    24    1
     5    20    19   ar
     6    20    21   ar
     7    19    18   ar
     8    24    21    1
     9    21    22   ar
    10    18    17    1
    11    18    23   ar
    12    17    16    1
    13    22    23   ar
    14    16    15    1
    15    15    12    1
    16    12    11   ar
    17    12    13   ar
    18    11    10   ar
    19    13    14   ar
    20    10     1   ar
    21    14     1   ar
    22     1     2    1
    23     6     5    1
    24     5     4    1
    25     4     3    1
    26     2     3    1
    27     3     7    1
    28     7     9   ar
    29     7     8   ar
