@<TRIPOS>MOLECULE
1i7l_ATP_A_1.pdb
 31 33 0 0 0
SMALL
GASTEIGER

@<TRIPOS>ATOM
      1  PG        20.2830   61.1680   14.8760 P.3   800  ATP800      0.5373
      2  O1G       19.7610   61.0580   16.2670 O.3   800  ATP800     -0.1143
      3  O2G       19.2810   60.9350   13.8100 O.2   800  ATP800     -0.2221
      4  O3G       21.1960   62.3550   14.6610 O.3   800  ATP800     -0.1143
      5  PB        22.4150   59.2850   15.6480 P.3   800  ATP800      0.2277
      6  O1B       21.8370   58.2490   16.5720 O.3   800  ATP800     -0.4368
      7  O2B       23.1200   60.4440   16.2440 O.2   800  ATP800     -0.5168
      8  O3B       21.1960   59.8440   14.7190 O.3   800  ATP800     -0.2258
      9  PA        24.6750   57.7050   14.5110 P.3   800  ATP800      0.2189
     10  O1A       25.4570   58.2410   13.3760 O.2   800  ATP800     -0.5170
     11  O2A       25.2890   57.6070   15.8510 O.3   800  ATP800     -0.4371
     12  O3A       23.2850   58.5120   14.5790 O.3   800  ATP800     -0.2700
     13  O5'       24.1830   56.2890   14.0960 O.3   800  ATP800     -0.3112
     14  C5'       23.1180   56.0670   13.1340 C.3   800  ATP800      0.1813
     15  C4'       22.3170   54.8350   13.5190 C.3   800  ATP800      0.1821
     16  O4'       23.2220   53.6990   13.3580 O.3   800  ATP800     -0.3135
     17  C3'       21.8520   54.8070   14.9680 C.3   800  ATP800      0.2184
     18  O3'       20.4440   54.5370   15.1040 O.3   800  ATP800     -0.2174
     19  C2'       22.7090   53.7840   15.6070 C.3   800  ATP800      0.2570
     20  O2'       22.0670   53.0330   16.6060 O.3   800  ATP800     -0.2130
     21  C1'       23.0860   52.8210   14.4590 C.3   800  ATP800      0.3186
     22  N9        24.3700   52.1740   14.6770 N.pl3 800  ATP800     -0.1439
     23  C8        25.5580   52.7510   14.9610 C.3   800  ATP800      0.3377
     24  N7        26.5600   51.9280   15.1170 N.2   800  ATP800     -0.2095
     25  C5        25.9760   50.7140   14.9150 C.2   800  ATP800      0.2526
     26  C6        26.4920   49.4150   14.9420 C.2   800  ATP800      0.4393
     27  N6        27.7630   49.2030   15.2040 N.pl3 800  ATP800      0.2180
     28  N1        25.6640   48.3870   14.6960 N.2   800  ATP800      0.0021
     29  C2        24.3690   48.6220   14.4340 C.3   800  ATP800      0.5254
     30  N3        23.7330   49.8140   14.3810 N.2   800  ATP800     -0.0055
     31  C4        24.6240   50.8420   14.6380 C.2   800  ATP800      0.3518
@<TRIPOS>BOND
     1    14    15    1
     2    14    13    1
     3    16    15    1
     4    16    21    1
     5    10     9    2
     6    15    17    1
     7     3     1    2
     8    13     9    1
     9    30    29    1
    10    30    31    2
    11    29    28    1
    12    21    22    1
    13    21    19    1
    14     9    12    1
    15     9    11    1
    16    12     5    1
    17    31    22    1
    18    31    25    1
    19     4     1    1
    20    22    23    1
    21    28    26    2
    22     8     1    1
    23     8     5    1
    24     1     2    1
    25    25    26    1
    26    25    24    2
    27    26    27    1
    28    23    24    1
    29    17    18    1
    30    17    19    1
    31    19    20    1
    32     5     7    2
    33     5     6    1
