@<TRIPOS>MOLECULE
1i7y_CYC_A_1.pdb
 43 46 0 0 0
SMALL
GASTEIGER

@<TRIPOS>ATOM
      1  CHA      111.4850  127.4750   13.3550 C.3   184  CYC184      0.1170
      2  NA       109.2560  127.8500   12.5730 N.2   184  CYC184     -0.4104
      3  C1A      110.4010  128.3050   13.1260 C.2   184  CYC184      0.1114
      4  C2A      110.2780  129.7000   13.4630 C.2   184  CYC184      0.0024
      5  C3A      109.0050  130.1250   13.1080 C.2   184  CYC184      0.0021
      6  C4A      108.3530  128.9090   12.5340 C.2   184  CYC184      0.1114
      7  CMA      108.4630  131.5600   13.3040 C.3   184  CYC184      0.0331
      8  CAA      111.3800  130.5570   14.1120 C.3   184  CYC184      0.0402
      9  CBA      111.1530  130.8290   15.6090 C.3   184  CYC184      0.1188
     10  CGA      111.1500  129.5640   16.4460 C.2   184  CYC184      0.3652
     11  O1A      110.0300  129.1330   16.8140 O.co2 184  CYC184     -0.2456
     12  O2A      112.2380  128.9960   16.7220 O.co2 184  CYC184     -0.2456
     13  CHB      107.0310  128.7130   12.0000 C.3   184  CYC184      0.1181
     14  NB       105.7510  129.9760   13.6430 N.2   184  CYC184     -0.3375
     15  C1B      105.8210  129.1940   12.5080 C.2   184  CYC184      0.1254
     16  C2B      104.4760  129.0150   11.9750 C.2   184  CYC184      0.0128
     17  C3B      103.6010  129.7060   12.7880 C.2   184  CYC184      0.0706
     18  C4B      104.4320  130.2760   13.7950 C.1   184  CYC184      0.2000
     19  CMB      104.1400  128.2220   10.7520 C.3   184  CYC184      0.0339
     20  CAB      102.0590  129.8140   12.6170 C.3   184  CYC184      0.0390
     21  CBB      101.2670  129.3670   13.8130 C.3   184  CYC184      0.0058
     22  OB       104.0020  130.9710   14.7090 O.2   184  CYC184     -0.2096
     23  NC       113.5390  122.2810    9.6890 N.2   184  CYC184     -0.3448
     24  C1C      113.7570  121.2540    8.8710 C.1   184  CYC184      0.1788
     25  C2C      112.5400  120.7010    8.1710 C.3   184  CYC184      0.1246
     26  C3C      111.4720  121.6910    8.6900 C.3   184  CYC184      0.0660
     27  C4C      112.1670  122.6160    9.6710 C.2   184  CYC184      0.1070
     28  CMC      112.5710  120.4730    6.6690 C.3   184  CYC184      0.0192
     29  CAC      110.1080  121.1670    9.2700 C.3   184  CYC184      0.0078
     30  CBC      109.0480  121.2540    8.1690 C.3   184  CYC184      0.0005
     31  OC       114.9180  120.8110    8.5940 O.2   184  CYC184     -0.2142
     32  CHD      111.5650  123.5290   10.5850 C.3   184  CYC184      0.1138
     33  ND       111.2870  125.4990   11.8180 N.2   184  CYC184     -0.4104
     34  C1D      112.0550  124.4250   11.5370 C.2   184  CYC184      0.1111
     35  C2D      113.2690  124.4820   12.3600 C.2   184  CYC184      0.0021
     36  C3D      113.1920  125.6400   13.1190 C.2   184  CYC184      0.0024
     37  C4D      111.9290  126.2600   12.7700 C.2   184  CYC184      0.1114
     38  CMD      114.4640  123.4990   12.4530 C.3   184  CYC184      0.0331
     39  CAD      114.2760  126.3130   14.0060 C.3   184  CYC184      0.0402
     40  CBD      115.1840  127.2950   13.2780 C.3   184  CYC184      0.1188
     41  CGD      116.2560  127.9930   14.0980 C.2   184  CYC184      0.3652
     42  O1D      117.1340  128.6740   13.5140 O.co2 184  CYC184     -0.2456
     43  O2D      116.2270  127.8750   15.3500 O.co2 184  CYC184     -0.2456
@<TRIPOS>BOND
     1    28    25    1
     2    30    29    1
     3    25    26    1
     4    25    24    1
     5    31    24    2
     6    26    29    1
     7    26    27    1
     8    24    23    2
     9    27    23    2
    10    27    32    1
    11    32    34    1
    12    19    16    1
    13    34    33    2
    14    34    35    1
    15    33    37    2
    16    16    15    1
    17    16    17    2
    18    13    15    1
    19    13     6    1
    20    35    38    1
    21    35    36    2
    22    15    14    2
    23     6     2    2
    24     6     5    1
    25     2     3    2
    26    20    17    1
    27    20    21    1
    28    37    36    1
    29    37     1    1
    30    17    18    1
    31     5     7    1
    32     5     4    2
    33    36    39    1
    34     3     1    1
    35     3     4    1
    36    40    39    1
    37    40    41    1
    38     4     8    1
    39    42    41   ar
    40    14    18    2
    41    18    22    2
    42    41    43   ar
    43     8     9    1
    44     9    10    1
    45    10    12   ar
    46    10    11   ar
