@<TRIPOS>MOLECULE
1i7z_COC_A_1.pdb
 22 24 0 0 0
SMALL
GASTEIGER

@<TRIPOS>ATOM
      1  C1        40.3620    4.8820   50.1180 C.3   301  COC301      0.2556
      2  O5        39.6820    4.2280   49.0120 O.3   301  COC301     -0.4443
      3  C6        40.1310    4.4390   47.7590 C.2   301  COC301      0.3215
      4  O7        41.2660    4.7520   47.4970 O.2   301  COC301     -0.2499
      5  C8        38.9430    4.2070   46.8010 C.3   301  COC301      0.1535
      6  C10       39.4460    3.4330   45.5100 C.3   301  COC301      0.0716
      7  N12       40.5100    4.2460   44.8810 N.3   301  COC301     -0.2733
      8  C14       41.3640    3.4710   43.9470 C.3   301  COC301      0.0896
      9  C18       38.3560    3.2370   44.4180 C.3   301  COC301      0.0180
     10  C21       38.5320    4.4870   43.5100 C.3   301  COC301      0.0175
     11  C24       39.6850    5.2640   44.1930 C.3   301  COC301      0.0612
     12  C26       39.1480    6.2560   45.2890 C.3   301  COC301      0.0602
     13  C29       38.2790    5.5110   46.3060 C.3   301  COC301      0.1823
     14  O1        37.9450    6.3730   47.4520 O.3   301  COC301     -0.4485
     15  C2        36.9150    6.0730   48.2820 C.2   301  COC301      0.3411
     16  O3        36.0530    5.2800   48.0160 O.2   301  COC301     -0.2449
     17  C4        36.9850    6.8630   49.5910 C.ar  301  COC301      0.0756
     18  C5        36.0250    6.5910   50.6020 C.ar  301  COC301      0.0064
     19  C7        36.0760    7.3130   51.8230 C.ar  301  COC301      0.0002
     20  C9        37.0400    8.2650   52.0360 C.ar  301  COC301      0.0000
     21  C11       37.9830    8.5380   51.0520 C.ar  301  COC301      0.0002
     22  C13       37.9560    7.8350   49.8230 C.ar  301  COC301      0.0064
@<TRIPOS>BOND
     1    10    11    1
     2    10     9    1
     3     8     7    1
     4    11     7    1
     5    11    12    1
     6     9     6    1
     7     7     6    1
     8    12    13    1
     9     6     5    1
    10    13     5    1
    11    13    14    1
    12     5     3    1
    13    14    15    1
    14     4     3    2
    15     3     2    1
    16    16    15    2
    17    15    17    1
    18     2     1    1
    19    17    22   ar
    20    17    18   ar
    21    22    21   ar
    22    18    19   ar
    23    21    20   ar
    24    19    20   ar
