@<TRIPOS>MOLECULE
1i80_9HX_A_1.pdb
 10 11 0 0 0
SMALL
GASTEIGER

@<TRIPOS>ATOM
      1  C9         3.9160   13.5390   10.5600 C.2   301  9HX301      0.0417
      2  C8         3.6490   12.6810   11.6070 C.2   301  9HX301      0.1014
      3  N7         4.4580   12.9510   12.6590 N.2   301  9HX301     -0.2307
      4  C5         5.2550   13.9920   12.2870 C.2   301  9HX301      0.1807
      5  C6         6.2760   14.6980   12.9740 C.1   301  9HX301      0.1716
      6  O6         6.7290   14.5370   14.1210 O.2   301  9HX301     -0.2206
      7  N1         6.8150   15.7080   12.1730 N.2   301  9HX301     -0.1739
      8  C2         6.4370   16.0270   10.8790 C.3   301  9HX301      0.2626
      9  N3         5.4750   15.3580   10.2450 N.2   301  9HX301     -0.2413
     10  C4         4.9240   14.3650   10.9980 C.2   301  9HX301      0.1086
@<TRIPOS>BOND
     1     9     8    1
     2     9    10    2
     3     1    10    1
     4     1     2    2
     5     8     7    1
     6    10     4    1
     7     2     3    1
     8     7     5    2
     9     4     3    2
    10     4     5    1
    11     5     6    2
