@<TRIPOS>MOLECULE
1i82_BGC_A_1.pdb
 11 11 0 0 0
SMALL
GASTEIGER

@<TRIPOS>ATOM
      1  C2        38.2230   45.1600   28.2020 C.3   189  BGC189      0.2141
      2  C3        37.5010   45.4650   29.5120 C.3   189  BGC189      0.2173
      3  C4        36.6590   46.7510   29.3760 C.3   189  BGC189      0.2142
      4  C5        35.7480   46.6480   28.1480 C.3   189  BGC189      0.1810
      5  C6        34.9270   47.8930   27.8960 C.3   189  BGC189      0.2141
      6  C1        37.2450   45.1610   27.0180 C.3   189  BGC189      0.1777
      7  O2        38.8600   43.9010   28.2920 O.3   189  BGC189     -0.2176
      8  O3        38.4580   45.6250   30.5510 O.3   189  BGC189     -0.2175
      9  O4        35.8530   46.9130   30.5350 O.3   189  BGC189     -0.2176
     10  O5        36.5350   46.4120   26.9640 O.3   189  BGC189     -0.3481
     11  O6        34.2520   47.8070   26.6450 O.3   189  BGC189     -0.2176
@<TRIPOS>BOND
     1    11     5    1
     2    10     6    1
     3    10     4    1
     4     6     1    1
     5     5     4    1
     6     4     3    1
     7     1     7    1
     8     1     2    1
     9     3     2    1
    10     3     9    1
    11     2     8    1
