@<TRIPOS>MOLECULE
1i83_HEM_A_1.pdb
 43 50 0 0 0
SMALL
GASTEIGER

@<TRIPOS>ATOM
      1  CHA        9.3140    8.9610   35.1540 C.2   500  HEM500      0.0000
      2  CHB        4.7110    9.1000   33.6380 C.2   500  HEM500      0.0000
      3  CHC        6.0680    7.2830   29.3880 C.2   500  HEM500      0.0000
      4  CHD       10.5450    6.5840   31.1210 C.2   500  HEM500      0.0000
      5  C1A        7.9360    9.1910   35.0770 C.2   500  HEM500      0.0000
      6  C2A        7.1830    9.9770   36.0280 C.2   500  HEM500      0.0000
      7  C3A        5.8780    9.9840   35.6360 C.2   500  HEM500      0.0000
      8  C4A        5.8320    9.2040   34.4210 C.2   500  HEM500      0.0000
      9  CMA        4.7010   10.6350   36.3730 C.3   500  HEM500      0.0000
     10  CAA        7.7670   10.6740   37.2660 C.3   500  HEM500      0.0000
     11  CBA        7.7990   12.1770   37.0820 C.3   500  HEM500      0.0000
     12  CGA        8.3310   12.8940   38.3050 C.2   500  HEM500      0.0000
     13  O1A        7.8450   12.6150   39.4200 O.co2 500  HEM500      0.0000
     14  O2A        9.2330   13.7450   38.1480 O.co2 500  HEM500      0.0000
     15  C1B        4.6790    8.5250   32.3920 C.ar  500  HEM500      0.0000
     16  C2B        3.4770    8.5290   31.5680 C.ar  500  HEM500      0.0000
     17  C3B        3.8150    7.9690   30.3830 C.ar  500  HEM500      0.0000
     18  C4B        5.2520    7.6380   30.4780 C.ar  500  HEM500      0.0000
     19  CMB        2.1110    9.0660   31.9920 C.3   500  HEM500      0.0000
     20  CAB        2.9380    7.8690   29.3230 C.2   500  HEM500      0.0000
     21  CBB        2.8970    6.8630   28.4190 C.2   500  HEM500      0.0000
     22  C1C        7.4550    7.1040   29.4620 C.2   500  HEM500      0.0000
     23  C2C        8.2760    6.6780   28.3500 C.2   500  HEM500      0.0000
     24  C3C        9.5200    6.3660   28.8390 C.2   500  HEM500      0.0000
     25  C4C        9.4520    6.6440   30.2660 C.2   500  HEM500      0.0000
     26  CMC        7.8590    6.5320   26.8850 C.3   500  HEM500      0.0000
     27  CAC       10.6410    5.8760   28.1350 C.2   500  HEM500      0.0000
     28  CBC       10.6930    5.0890   27.0120 C.2   500  HEM500      0.0000
     29  C1D       10.5830    7.1240   32.4080 C.ar  500  HEM500      0.0000
     30  C2D       11.7980    7.2740   33.1980 C.ar  500  HEM500      0.0000
     31  C3D       11.4530    7.9820   34.2880 C.ar  500  HEM500      0.0000
     32  C4D       10.0370    8.2420   34.2090 C.ar  500  HEM500      0.0000
     33  CMD       13.1810    6.7110   32.8860 C.3   500  HEM500      0.0000
     34  CAD       12.3380    8.5200   35.4000 C.3   500  HEM500      0.0000
     35  CBD       13.0920    9.7810   35.0110 C.3   500  HEM500      0.0000
     36  CGD       13.7110   10.4750   36.2080 C.2   500  HEM500      0.0000
     37  O1D       14.2160    9.7710   37.1050 O.co2 500  HEM500      0.0000
     38  O2D       13.7020   11.7270   36.2490 O.co2 500  HEM500      0.0000
     39  NA         7.0990    8.6880   34.0740 N.2   500  HEM500      0.0000
     40  NB         5.7670    7.9500   31.7390 N.ar  500  HEM500      0.0000
     41  NC         8.1700    7.1230   30.6580 N.2   500  HEM500      0.0000
     42  ND         9.4970    7.6880   33.0510 N.ar  500  HEM500      0.0000
     43 FE          7.5860    7.6140   32.4890 Fe    500  HEM500      0.0000
@<TRIPOS>BOND
     1    26    23    1
     2    28    27    2
     3    27    24    1
     4    23    24    2
     5    23    22    1
     6    21    20    2
     7    24    25    1
     8    20    17    1
     9     3    22    2
    10     3    18    1
    11    22    41    1
    12    25    41    2
    13    25     4    1
    14    17    18   ar
    15    17    16   ar
    16    18    40   ar
    17    41    43    1
    18     4    29    2
    19    16    19    1
    20    16    15   ar
    21    40    15   ar
    22    40    43    1
    23    15     2    1
    24    29    42   ar
    25    29    30   ar
    26    43    42    1
    27    43    39    1
    28    33    30    1
    29    42    32   ar
    30    30    31   ar
    31     2     8    2
    32    39     8    1
    33    39     5    2
    34    32    31   ar
    35    32     1    2
    36    31    34    1
    37     8     7    1
    38    35    34    1
    39    35    36    1
    40     5     1    1
    41     5     6    1
    42     7     6    2
    43     7     9    1
    44     6    10    1
    45    36    38   ar
    46    36    37   ar
    47    11    10    1
    48    11    12    1
    49    14    12   ar
    50    12    13   ar
