@<TRIPOS>MOLECULE
1i8a_BGC_A_1.pdb
 12 12 0 0 0
SMALL
GASTEIGER

@<TRIPOS>ATOM
      1  C2        37.1500   44.6110   22.6460 C.3   189  BGC189      0.2434
      2  C3        37.3810   43.8500   23.9560 C.3   189  BGC189      0.2199
      3  C4        37.3680   44.8090   25.1450 C.3   189  BGC189      0.2144
      4  C5        36.0690   45.6150   25.1300 C.3   189  BGC189      0.1836
      5  C6        36.0170   46.6240   26.2580 C.3   189  BGC189      0.2142
      6  C1        35.9030   45.5110   22.7360 C.3   189  BGC189      0.3024
      7  O1        35.8500   46.3310   21.6210 O.3   189  BGC189     -0.1869
      8  O2        36.9900   43.6880   21.5810 O.3   189  BGC189     -0.2148
      9  O3        38.6380   43.1880   23.9010 O.3   189  BGC189     -0.2174
     10  O4        37.4660   44.0810   26.3580 O.3   189  BGC189     -0.2176
     11  O5        35.9650   46.3500   23.8960 O.3   189  BGC189     -0.3236
     12  O6        34.7700   47.3090   26.2910 O.3   189  BGC189     -0.2176
@<TRIPOS>BOND
     1     8     1    1
     2     7     6    1
     3     1     6    1
     4     1     2    1
     5     6    11    1
     6    11     4    1
     7     9     2    1
     8     2     3    1
     9     4     3    1
    10     4     5    1
    11     3    10    1
    12     5    12    1
