@<TRIPOS>MOLECULE
1i8j_DSB_A_1.pdb
 14 13 0 0 0
SMALL
GASTEIGER

@<TRIPOS>ATOM
      1  C1        21.0900   91.0970   49.0530 C.2   350  DSB350      0.3649
      2  O2        22.1830   90.9440   48.4620 O.co2 350  DSB350     -0.2457
      3  C2        20.8720   90.2110   50.2440 C.3   350  DSB350      0.1141
      4  C3        19.4260   90.2940   50.6570 C.3   350  DSB350      0.0118
      5  C5        19.4090   89.3190   53.0310 C.3   350  DSB350      0.0000
      6  O1        20.1800   91.9210   48.7380 O.co2 350  DSB350     -0.2457
      7  C6        19.1040   88.1300   53.8630 C.3   350  DSB350      0.0000
      8  C8        21.2680   87.0130   52.8070 C.3   350  DSB350      0.0118
      9  C9        22.1730   88.0670   53.4550 C.3   350  DSB350      0.1141
     10  C10       23.6270   87.6400   53.4910 C.2   350  DSB350      0.3649
     11  O11       23.8890   86.4150   53.4100 O.co2 350  DSB350     -0.2457
     12  O12       24.4650   88.5480   53.6370 O.co2 350  DSB350     -0.2457
     13  C7        19.9240   86.9150   53.4810 C.3   350  DSB350      0.0006
     14  C4        19.0370   89.1560   51.5690 C.3   350  DSB350      0.0006
@<TRIPOS>BOND
     1     2     1   ar
     2     6     1   ar
     3     1     3    1
     4     3     4    1
     5     4    14    1
     6    14     5    1
     7     8     9    1
     8     8    13    1
     9     5     7    1
    10    11    10   ar
    11     9    10    1
    12    13     7    1
    13    10    12   ar
