@<TRIPOS>MOLECULE
1i8m_NUC_D_1.pdb
 24 25 0 0 0
SMALL
GASTEIGER

@<TRIPOS>ATOM
      1  P         89.5580   82.3120   21.8810 P.3     2  DT2         0.3942
      2  OP1       90.9260   81.8140   22.2060 O.3     2  DT2        -0.1425
      3  OP2       88.4060   81.8800   22.7110 O.3     2  DT2        -0.1425
      4  O5'       89.2240   81.9450   20.3670 O.3     2  DT2        -0.2926
      5  C5'       89.6230   82.8040   19.3040 C.3     2  DT2         0.1828
      6  C4'       89.8820   81.9950   18.0560 C.3     2  DT2         0.1747
      7  O4'       88.6680   81.3130   17.6520 O.3     2  DT2        -0.3340
      8  C3'       90.3270   82.8300   16.8560 C.3     2  DT2         0.1600
      9  O3'       91.2930   82.0920   16.0880 O.3     2  DT2        -0.2700
     10  C2'       89.0360   83.0260   16.0770 C.3     2  DT2         0.0847
     11  C1'       88.2660   81.7380   16.3550 C.3     2  DT2         0.2089
     12  N1        86.7860   81.8890   16.3650 N.am    2  DT2        -0.1794
     13  C2        86.0410   81.2400   15.3920 C.1     2  DT2         0.2844
     14  O2        86.5380   80.5320   14.5280 O.2     2  DT2        -0.1918
     15  N3        84.6780   81.4500   15.4780 N.2     2  DT2        -0.2455
     16  C4        84.0050   82.2170   16.4180 C.1     2  DT2         0.2134
     17  O4        82.7780   82.3200   16.3670 O.2     2  DT2        -0.2088
     18  C5        84.8470   82.8550   17.4100 C.2     2  DT2         0.0891
     19  C7        84.2080   83.6920   18.4710 C.3     2  DT2         0.0462
     20  C6        86.1740   82.6640   17.3330 C.2     2  DT2         0.0877
     21  P         92.8630   82.1440   16.4880 P.3     3  DT3         0.5326
     22  OP1       93.4140   83.4420   16.0090 O.2     3  DT3        -0.2224
     23  OP2       93.4880   80.8650   16.0410 O.3     3  DT3        -0.1145
     24  O5'       92.8790   82.1590   18.0830 O.3     3  DT3        -0.1145
@<TRIPOS>BOND
     1    14    13    2
     2    13    15    2
     3    13    12   am
     4    15    16    2
     5    22    21    2
     6    23    21    1
     7    10    11    1
     8    10     8    1
     9     9    21    1
    10     9     8    1
    11    11    12    1
    12    11     7    1
    13    12    20    1
    14    17    16    2
    15    16    18    1
    16    21    24    1
    17     8     6    1
    18    20    18    2
    19    18    19    1
    20     7     6    1
    21     6     5    1
    22     5     4    1
    23     4     1    1
    24     1     2    1
    25     1     3    1
