@<TRIPOS>MOLECULE
1i8o_HEC_A_1.pdb
 43 50 0 0 0
SMALL
GASTEIGER

@<TRIPOS>ATOM
      1 FE        -11.0210   27.9190   15.5060 Fe    115  HEC115      0.0000
      2  CHA      -12.4340   28.0640   12.3740 C.2   115  HEC115      0.0000
      3  CHB       -8.2960   29.6170   14.3900 C.2   115  HEC115      0.0000
      4  CHC       -9.8010   28.0590   18.6960 C.2   115  HEC115      0.0000
      5  CHD      -13.5110   25.8750   16.5360 C.2   115  HEC115      0.0000
      6  NA       -10.4980   28.6890   13.7550 N.ar  115  HEC115      0.0000
      7  C1A      -11.2040   28.7030   12.5760 C.ar  115  HEC115      0.0000
      8  C2A      -10.5650   29.5030   11.5870 C.ar  115  HEC115      0.0000
      9  C3A       -9.3920   29.9120   12.1030 C.ar  115  HEC115      0.0000
     10  C4A       -9.3430   29.4090   13.4830 C.ar  115  HEC115      0.0000
     11  CMA       -8.3250   30.7790   11.4810 C.3   115  HEC115      0.0000
     12  CAA      -11.0190   29.7040   10.1360 C.3   115  HEC115      0.0000
     13  CBA      -10.4380   28.5630    9.3140 C.3   115  HEC115      0.0000
     14  CGA      -10.8240   28.5260    7.8580 C.2   115  HEC115      0.0000
     15  O1A      -11.5920   29.3780    7.3600 O.co2 115  HEC115      0.0000
     16  O2A      -10.3200   27.5700    7.1830 O.co2 115  HEC115      0.0000
     17  NB        -9.4000   28.6840   16.3460 N.2   115  HEC115      0.0000
     18  C1B       -8.2990   29.2880   15.6990 C.2   115  HEC115      0.0000
     19  C2B       -7.2700   29.5660   16.6250 C.2   115  HEC115      0.0000
     20  C3B       -7.7140   29.2450   17.8400 C.2   115  HEC115      0.0000
     21  C4B       -9.0380   28.6250   17.6740 C.2   115  HEC115      0.0000
     22  CMB       -5.9300   30.1680   16.2270 C.3   115  HEC115      0.0000
     23  CAB       -7.0320   29.4330   19.2050 C.3   115  HEC115      0.0000
     24  CBB       -6.8280   30.9560   19.5610 C.3   115  HEC115      0.0000
     25  NC       -11.5770   27.1760   17.2930 N.ar  115  HEC115      0.0000
     26  C1C      -10.9830   27.3540   18.4870 C.ar  115  HEC115      0.0000
     27  C2C      -11.6390   26.5970   19.5060 C.ar  115  HEC115      0.0000
     28  C3C      -12.6690   25.9630   18.9010 C.ar  115  HEC115      0.0000
     29  C4C      -12.6510   26.3530   17.5190 C.ar  115  HEC115      0.0000
     30  CMC      -11.1380   26.4540   20.9200 C.3   115  HEC115      0.0000
     31  CAC      -13.6600   24.9420   19.4420 C.3   115  HEC115      0.0000
     32  CBC      -14.4230   25.4350   20.6920 C.3   115  HEC115      0.0000
     33  ND       -12.6310   27.1140   14.6160 N.2   115  HEC115      0.0000
     34  C1D      -13.5200   26.2440   15.2400 C.2   115  HEC115      0.0000
     35  C2D      -14.4700   25.8140   14.1930 C.2   115  HEC115      0.0000
     36  C3D      -14.2220   26.4420   13.0490 C.2   115  HEC115      0.0000
     37  C4D      -13.0270   27.2710   13.3230 C.2   115  HEC115      0.0000
     38  CMD      -15.5980   24.7830   14.5260 C.3   115  HEC115      0.0000
     39  CAD      -15.0340   26.3770   11.8210 C.3   115  HEC115      0.0000
     40  CBD      -16.3240   27.2100   12.0500 C.3   115  HEC115      0.0000
     41  CGD      -17.3410   27.2230   10.9330 C.2   115  HEC115      0.0000
     42  O1D      -17.2210   26.5420    9.8910 O.co2 115  HEC115      0.0000
     43  O2D      -18.3730   27.9040   11.1960 O.co2 115  HEC115      0.0000
@<TRIPOS>BOND
     1    16    14   ar
     2    15    14   ar
     3    14    13    1
     4    13    12    1
     5    42    41   ar
     6    12     8    1
     7    41    43   ar
     8    41    40    1
     9    11     9    1
    10     8     9   ar
    11     8     7   ar
    12    39    40    1
    13    39    36    1
    14     9    10   ar
    15     2     7    2
    16     2    37    1
    17     7     6   ar
    18    36    37    1
    19    36    35    2
    20    37    33    2
    21    10     6   ar
    22    10     3    2
    23     6     1    1
    24    35    38    1
    25    35    34    1
    26     3    18    1
    27    33    34    1
    28    33     1    1
    29    34     5    2
    30     1    17    1
    31     1    25    1
    32    18    17    2
    33    18    19    1
    34    22    19    1
    35    17    21    1
    36     5    29    1
    37    19    20    2
    38    25    29   ar
    39    25    26   ar
    40    29    28   ar
    41    21    20    1
    42    21     4    2
    43    20    23    1
    44    26     4    1
    45    26    27   ar
    46    28    31    1
    47    28    27   ar
    48    23    24    1
    49    31    32    1
    50    27    30    1
