@<TRIPOS>MOLECULE
1i8p_HEC_A_1.pdb
 43 50 0 0 0
SMALL
GASTEIGER

@<TRIPOS>ATOM
      1 FE         15.6470   25.4740   32.0260 Fe    115  HEC115      0.0000
      2  CHA       17.7750   27.0740   29.8990 C.2   115  HEC115      0.0000
      3  CHB       18.3550   24.7360   34.1410 C.2   115  HEC115      0.0000
      4  CHC       13.5070   24.1010   34.4040 C.2   115  HEC115      0.0000
      5  CHD       13.0430   25.8490   29.9410 C.2   115  HEC115      0.0000
      6  NA        17.6560   25.8580   32.0220 N.2   115  HEC115      0.0000
      7  C1A       18.3280   26.5370   31.0290 C.2   115  HEC115      0.0000
      8  C2A       19.7330   26.6220   31.4450 C.2   115  HEC115      0.0000
      9  C3A       19.8890   26.0160   32.5950 C.2   115  HEC115      0.0000
     10  C4A       18.5870   25.5070   32.9960 C.2   115  HEC115      0.0000
     11  CMA       21.1960   25.9380   33.4120 C.3   115  HEC115      0.0000
     12  CAA       20.8080   27.3170   30.5630 C.3   115  HEC115      0.0000
     13  CBA       21.2730   26.2070   29.5840 C.3   115  HEC115      0.0000
     14  CGA       22.3090   26.6560   28.5450 C.2   115  HEC115      0.0000
     15  O1A       22.7190   27.8330   28.5600 O.co2 115  HEC115      0.0000
     16  O2A       22.7090   25.7070   27.7590 O.co2 115  HEC115      0.0000
     17  NB        15.8580   24.6470   33.9070 N.ar  115  HEC115      0.0000
     18  C1B       17.0660   24.3350   34.5150 C.ar  115  HEC115      0.0000
     19  C2B       16.8030   23.6330   35.6980 C.ar  115  HEC115      0.0000
     20  C3B       15.4990   23.4440   35.8040 C.ar  115  HEC115      0.0000
     21  C4B       14.8990   24.1070   34.6710 C.ar  115  HEC115      0.0000
     22  CMB       17.9270   23.0740   36.5700 C.3   115  HEC115      0.0000
     23  CAB       14.7350   22.7220   36.9010 C.3   115  HEC115      0.0000
     24  CBB       14.9740   23.3080   38.3060 C.3   115  HEC115      0.0000
     25  NC        13.6590   25.0420   32.1290 N.2   115  HEC115      0.0000
     26  C1C       12.9800   24.4330   33.1810 C.2   115  HEC115      0.0000
     27  C2C       11.5480   24.5330   32.9120 C.2   115  HEC115      0.0000
     28  C3C       11.4250   24.8960   31.6430 C.2   115  HEC115      0.0000
     29  C4C       12.7330   25.3050   31.1600 C.2   115  HEC115      0.0000
     30  CMC       10.5540   23.7300   33.8780 C.3   115  HEC115      0.0000
     31  CAC       10.1450   24.9660   30.7390 C.3   115  HEC115      0.0000
     32  CBC        9.0390   25.7830   31.3610 C.3   115  HEC115      0.0000
     33  ND        15.4630   26.2660   30.2600 N.ar  115  HEC115      0.0000
     34  C1D       14.2710   26.3900   29.5300 C.ar  115  HEC115      0.0000
     35  C2D       14.5600   27.0130   28.2530 C.ar  115  HEC115      0.0000
     36  C3D       15.8500   27.3190   28.2240 C.ar  115  HEC115      0.0000
     37  C4D       16.4350   26.9220   29.4760 C.ar  115  HEC115      0.0000
     38  CMD       13.5110   27.2610   27.1470 C.3   115  HEC115      0.0000
     39  CAD       16.5570   28.0990   27.0450 C.3   115  HEC115      0.0000
     40  CBD       16.7590   29.5700   27.5990 C.3   115  HEC115      0.0000
     41  CGD       17.0170   30.6930   26.5370 C.2   115  HEC115      0.0000
     42  O1D       17.3300   30.3350   25.4050 O.co2 115  HEC115      0.0000
     43  O2D       16.7870   31.9210   26.9070 O.co2 115  HEC115      0.0000
@<TRIPOS>BOND
     1    42    41   ar
     2    41    43   ar
     3    41    40    1
     4    39    40    1
     5    39    36    1
     6    38    35    1
     7    16    14   ar
     8    36    35   ar
     9    36    37   ar
    10    35    34   ar
    11    14    15   ar
    12    14    13    1
    13    37     2    2
    14    37    33   ar
    15    34     5    2
    16    34    33   ar
    17    13    12    1
    18     2     7    1
    19     5    29    1
    20    33     1    1
    21    12     8    1
    22    31    32    1
    23    31    28    1
    24     7     8    1
    25     7     6    2
    26    29    28    1
    27    29    25    2
    28     8     9    2
    29    28    27    2
    30     6     1    1
    31     6    10    1
    32     1    25    1
    33     1    17    1
    34    25    26    1
    35     9    10    1
    36     9    11    1
    37    27    26    1
    38    27    30    1
    39    10     3    2
    40    26     4    2
    41    17    18   ar
    42    17    21   ar
    43     3    18    1
    44     4    21    1
    45    18    19   ar
    46    21    20   ar
    47    19    20   ar
    48    19    22    1
    49    20    23    1
    50    23    24    1
