@<TRIPOS>MOLECULE
1i8z_INL_A_1.pdb
 30 33 0 0 0
SMALL
GASTEIGER

@<TRIPOS>ATOM
      1  S1        -5.9430    0.6900   16.7430 S.O2  555  INL555      0.0992
      2  O2        -5.4330    0.7710   18.0390 O.2   555  INL555     -0.1498
      3  O3        -7.3270    0.7100   16.7950 O.2   555  INL555     -0.1498
      4  N4        -5.4450   -0.5330   16.1380 N.3   555  INL555      0.0397
      5  C5        -5.4080    1.9220   15.8850 C.ar  555  INL555      0.1557
      6  C6        -4.0990    1.9930   15.3380 C.ar  555  INL555      0.0286
      7  C7        -3.9320    3.2050   14.5940 C.ar  555  INL555      0.0280
      8  C8        -5.1610    3.9930   14.6270 C.ar  555  INL555      0.1564
      9  S9        -6.1140    3.1920   15.4520 S.2   555  INL555     -0.0471
     10  C10       -2.7850    3.7620   13.8900 C.2   555  INL555      0.0155
     11  C11       -2.7680    5.0980   13.1030 C.2   555  INL555      0.0676
     12  N12       -4.1030    5.8440   13.1700 N.pl3 555  INL555     -0.1714
     13  S13       -5.1930    5.3870   14.0850 S.O2  555  INL555      0.0856
     14  O14       -5.0530    6.2980   15.1230 O.2   555  INL555     -0.1489
     15  O15       -6.4060    5.5890   13.4820 O.2   555  INL555     -0.1489
     16  C16       -1.6680    5.6690   12.2600 C.3   555  INL555      0.1161
     17  C17       -0.9650    8.2270   12.2380 C.3   555  INL555      0.1049
     18  C18       -1.3190    9.6400   12.7770 C.3   555  INL555      0.1595
     19  O19       -1.2940    9.6780   14.3340 O.3   555  INL555     -0.3508
     20  C20       -2.1370    8.5850   14.9930 C.3   555  INL555      0.1595
     21  C21       -1.8700    7.1860   14.4570 C.3   555  INL555      0.1049
     22  N22       -1.8960    7.1600   12.8610 N.3   555  INL555     -0.2635
     23  C23       -5.2900    7.1760   11.4220 C.ar  555  INL555      0.0534
     24  C24       -4.5910    5.9900   11.8120 C.ar  555  INL555      0.0764
     25  C25       -4.4490    4.9060   10.8600 C.ar  555  INL555      0.0167
     26  C26       -4.9800    4.9620    9.4990 C.ar  555  INL555      0.0044
     27  C27       -5.6710    6.2500    9.2340 C.ar  555  INL555      0.0370
     28  C28       -5.9010    7.3800   10.1620 C.ar  555  INL555      0.1400
     29  O29       -6.6000    8.4870    9.8150 O.3   555  INL555     -0.4714
     30  C30       -6.5270    9.9610   10.5910 C.3   555  INL555      0.2525
@<TRIPOS>BOND
     1    27    26   ar
     2    27    28   ar
     3    26    25   ar
     4    29    28    1
     5    29    30    1
     6    28    23   ar
     7    25    24   ar
     8    23    24   ar
     9    24    12    1
    10    17    18    1
    11    17    22    1
    12    16    22    1
    13    16    11    1
    14    18    19    1
    15    22    21    1
    16    11    12    1
    17    11    10    2
    18    12    13    1
    19    15    13    2
    20    10     7    1
    21    13     8    1
    22    13    14    2
    23    19    20    1
    24    21    20    1
    25     7     8   ar
    26     7     6   ar
    27     8     9   ar
    28     6     5   ar
    29     9     5   ar
    30     5     1    1
    31     4     1    1
    32     1     3    2
    33     1     2    2
