@<TRIPOS>MOLECULE
1i90_INM_A_1.pdb
 21 22 0 0 0
SMALL
GASTEIGER

@<TRIPOS>ATOM
      1  N01       -3.8070    6.1240   13.3620 N.3   555  INM555     -0.1532
      2  C02       -3.2350    5.0040   12.6710 C.3   555  INM555      0.1193
      3  S03       -5.2710    5.7440   14.0800 S.O2  555  INM555      0.0688
      4  O04       -6.4790    5.8450   12.8990 O.2   555  INM555     -0.1523
      5  O05       -5.6330    6.8010   15.3370 O.2   555  INM555     -0.1523
      6  C06       -2.9130    3.7540   13.5460 C.3   555  INM555      0.1335
      7  N07       -2.4240    2.6860   12.6490 N.3   555  INM555     -0.1265
      8  C08       -2.8620    6.7840   14.2810 C.3   555  INM555      0.0985
      9  C09       -2.3560    8.0930   13.6810 C.3   555  INM555      0.0512
     10  C10       -1.3800    8.8020   14.6000 C.3   555  INM555      0.1438
     11  O11       -0.9490   10.0090   13.9940 O.3   555  INM555     -0.3511
     12  C12       -0.0220   10.7120   14.8280 C.3   555  INM555      0.1741
     13  C13       -4.1150    2.1930   15.0390 C.ar  555  INM555      0.0257
     14  C14       -4.0170    3.3230   14.3240 C.ar  555  INM555      0.0232
     15  C15       -5.1960    4.1310   14.6120 C.ar  555  INM555      0.1503
     16  S16       -6.0290    3.4300   15.4720 S.2   555  INM555     -0.0477
     17  C17       -5.3800    2.1290   15.7970 C.ar  555  INM555      0.1554
     18  S18       -5.8920    0.9590   16.7020 S.O2  555  INM555      0.0992
     19  N19       -5.8390   -0.2510   15.9890 N.3   555  INM555      0.0397
     20  O20       -5.0620    0.8360   17.8050 O.2   555  INM555     -0.1498
     21  O21       -7.1600    1.2450   17.1710 O.2   555  INM555     -0.1498
@<TRIPOS>BOND
     1     7     6    1
     2     2     1    1
     3     2     6    1
     4     4     3    2
     5     1     3    1
     6     1     8    1
     7     6    14    1
     8     9     8    1
     9     9    10    1
    10    11    10    1
    11    11    12    1
    12     3    15    1
    13     3     5    2
    14    14    15   ar
    15    14    13   ar
    16    15    16   ar
    17    13    17   ar
    18    16    17   ar
    19    17    18    1
    20    19    18    1
    21    18    21    2
    22    18    20    2
