@<TRIPOS>MOLECULE
1i91_INQ_A_1.pdb
 29 32 0 0 0
SMALL
GASTEIGER

@<TRIPOS>ATOM
      1  S01       -6.1530    0.2870   16.8760 S.O2  555  INQ555      0.0992
      2  O02       -7.5280    0.3360   17.0620 O.2   555  INQ555     -0.1498
      3  N03       -5.7960   -0.9580   16.1640 N.3   555  INQ555      0.0397
      4  C04       -5.7080    1.6050   16.0510 C.ar  555  INQ555      0.1557
      5  C05       -4.4210    1.7460   15.3990 C.ar  555  INQ555      0.0286
      6  C06       -4.3170    2.9990   14.7280 C.ar  555  INQ555      0.0280
      7  C07       -5.5490    3.7790   14.9020 C.ar  555  INQ555      0.1564
      8  S08       -6.4750    2.9090   15.7660 S.2   555  INQ555     -0.0471
      9  C09       -3.2340    3.5670   13.9310 C.2   555  INQ555      0.0155
     10  C10       -3.2460    4.9490   13.1950 C.2   555  INQ555      0.0676
     11  N11       -4.5660    5.7190   13.3990 N.pl3 555  INQ555     -0.1714
     12  S12       -5.6820    5.1790   14.2850 S.O2  555  INQ555      0.0856
     13  O13       -5.7200    6.1470   15.3100 O.2   555  INQ555     -0.1489
     14  O14       -6.9280    5.2890   13.6260 O.2   555  INQ555     -0.1489
     15  C15       -2.1680    5.5830   12.3100 C.3   555  INQ555      0.1161
     16  C16       -1.3740    8.1220   12.3990 C.3   555  INQ555      0.1049
     17  C17       -1.5760    9.5000   13.1220 C.3   555  INQ555      0.1595
     18  O18       -1.3080    9.3870   14.6680 O.3   555  INQ555     -0.3508
     19  C19       -2.0660    8.2320   15.3390 C.3   555  INQ555      0.1595
     20  C20       -1.9740    6.9030   14.5960 C.3   555  INQ555      0.1049
     21  N21       -2.3010    7.0400   13.0300 N.3   555  INQ555     -0.2635
     22  C22       -5.7150    7.1820   11.6870 C.ar  555  INQ555      0.0585
     23  C23       -5.1200    5.9270   12.0430 C.ar  555  INQ555      0.0765
     24  C24       -5.0930    4.8510   11.0330 C.ar  555  INQ555      0.0167
     25  C25       -5.6500    5.0030    9.6610 C.ar  555  INQ555      0.0046
     26  C26       -6.2290    6.3580    9.4470 C.ar  555  INQ555      0.0421
     27  C27       -6.2930    7.4860   10.4080 C.ar  555  INQ555      0.1970
     28  O28       -6.8860    8.8780   10.1060 O.3   555  INQ555     -0.2865
     29  O29       -5.5090    0.2980   18.1190 O.2   555  INQ555     -0.1498
@<TRIPOS>BOND
     1    26    25   ar
     2    26    27   ar
     3    25    24   ar
     4    28    27    1
     5    27    22   ar
     6    24    23   ar
     7    22    23   ar
     8    23    11    1
     9    15    21    1
    10    15    10    1
    11    16    21    1
    12    16    17    1
    13    21    20    1
    14    17    18    1
    15    10    11    1
    16    10     9    2
    17    11    12    1
    18    14    12    2
    19     9     6    1
    20    12     7    1
    21    12    13    2
    22    20    19    1
    23    18    19    1
    24     6     7   ar
    25     6     5   ar
    26     7     8   ar
    27     5     4   ar
    28     8     4   ar
    29     4     1    1
    30     3     1    1
    31     1     2    2
    32     1    29    2
