@<TRIPOS>MOLECULE
1i97_TAC_A_1.pdb
 32 35 0 0 0
SMALL
GASTEIGER

@<TRIPOS>ATOM
      1  C1         5.1470   76.6890  141.0280 C.2   2004  TAC2004     0.1966
      2  O1         4.3250   76.5930  140.0920 O.2   2004  TAC2004    -0.2924
      3  C2         6.1200   77.7410  141.0650 C.3   2004  TAC2004     0.2018
      4  C21        6.2160   78.7190  140.0520 C.2   2004  TAC2004     0.2749
      5  O21        6.8830   79.7810  140.2360 O.2   2004  TAC2004    -0.2707
      6  N21        5.5290   78.6100  138.8680 N.am  2004  TAC2004    -0.0870
      7  C3         6.8530   77.8920  142.2440 C.2   2004  TAC2004     0.1978
      8  O3         7.3480   79.1250  142.6000 O.2   2004  TAC2004    -0.2894
      9  C4         6.8020   76.8810  143.3070 C.2   2004  TAC2004     0.0635
     10  N4         7.4300   77.3360  144.5860 N.pl3 2004  TAC2004    -0.3051
     11  C42        7.8360   76.1890  145.4980 C.3   2004  TAC2004     0.1121
     12  C43        6.3480   78.1030  145.3250 C.3   2004  TAC2004     0.1121
     13  C41        5.9860   75.6100  143.1750 C.3   2004  TAC2004     0.0761
     14  C5         6.6560   74.5810  142.2070 C.3   2004  TAC2004     0.0120
     15  C51        5.8020   73.3290  142.1060 C.3   2004  TAC2004     0.0423
     16  C6         6.2440   72.2490  141.1250 C.3   2004  TAC2004     0.1460
     17  C62        7.6730   71.7770  141.2720 C.3   2004  TAC2004     0.0375
     18  O6         6.1100   72.8600  139.8260 O.3   2004  TAC2004    -0.2212
     19  C61        5.3100   71.0300  141.2000 C.ar  2004  TAC2004     0.0109
     20  C7         5.7400   69.7880  140.7370 C.ar  2004  TAC2004    -0.0016
     21  C8         4.8910   68.6750  140.7790 C.ar  2004  TAC2004     0.0030
     22  C9         3.6070   68.7990  141.2200 C.ar  2004  TAC2004     0.0421
     23  C10        3.1210   70.0480  141.6200 C.ar  2004  TAC2004     0.1982
     24  O10        1.7350   70.1270  142.0430 O.3   2004  TAC2004    -0.2865
     25  C1A        3.9710   71.1830  141.6190 C.ar  2004  TAC2004     0.0720
     26  C11        3.4670   72.4730  141.9140 C.2   2004  TAC2004     0.1781
     27  O11        2.2620   72.6070  142.1980 O.2   2004  TAC2004    -0.2912
     28  C1B        4.2930   73.5780  142.0380 C.3   2004  TAC2004     0.0980
     29  C12        3.8170   74.8450  142.3530 C.3   2004  TAC2004     0.1940
     30  O12        2.4470   75.0720  142.5950 O.3   2004  TAC2004    -0.2196
     31  C1C        4.7130   76.0780  142.3800 C.3   2004  TAC2004     0.2109
     32  O1C        4.0350   77.0910  143.1260 O.3   2004  TAC2004    -0.2151
@<TRIPOS>BOND
     1     6     4   am
     2    18    16    1
     3     4     5    2
     4     4     3    1
     5     2     1    2
     6    20    21   ar
     7    20    19   ar
     8    21    22   ar
     9     1     3    1
    10     1    31    1
    11     3     7    1
    12    16    19    1
    13    16    17    1
    14    16    15    1
    15    19    25   ar
    16    22    23   ar
    17    25    23   ar
    18    25    26    1
    19    23    24    1
    20    26    28    1
    21    26    27    2
    22    28    15    1
    23    28    29    1
    24    15    14    1
    25    14    13    1
    26     7     8    1
    27     7     9    2
    28    29    31    1
    29    29    30    1
    30    31    32    1
    31    31    13    1
    32    13     9    1
    33     9    10    1
    34    10    12    1
    35    10    11    1
