@<TRIPOS>MOLECULE
1i9c_2AS_B_1.pdb
 10 9 0 0 0
SMALL
GASTEIGER

@<TRIPOS>ATOM
      1  C          0.4030   -5.1060   87.0390 C.2   1307  2AS1307     0.3824
      2  O          1.2190   -4.3960   87.6750 O.co2 1307  2AS1307    -0.2440
      3  CA         0.9650   -6.4330   86.5190 C.3   1307  2AS1307     0.2049
      4  N         -0.0570   -7.3580   86.0700 N.3   1307  2AS1307    -0.1202
      5  CB         1.9110   -6.0670   85.3770 C.3   1307  2AS1307     0.1319
      6  CG         3.0580   -7.0370   85.2680 C.2   1307  2AS1307     0.3663
      7  OD1        3.9660   -6.8560   86.0970 O.co2 1307  2AS1307    -0.2456
      8  C4         1.2310   -5.8150   84.0520 C.3   1307  2AS1307     0.0139
      9  OD2        3.0100   -7.9100   84.3870 O.co2 1307  2AS1307    -0.2456
     10  OXT       -0.7950   -4.8810   86.7750 O.co2 1307  2AS1307    -0.2440
@<TRIPOS>BOND
     1     8     5    1
     2     9     6   ar
     3     6     5    1
     4     6     7   ar
     5     5     3    1
     6     4     3    1
     7     3     1    1
     8    10     1   ar
     9     1     2   ar
