@<TRIPOS>MOLECULE
1i9c_GLU_B_1.pdb
 10 9 0 0 0
SMALL
GASTEIGER

@<TRIPOS>ATOM
      1  N         -0.7700   -7.3720   86.2720 N.3   1305  GLU1305    -0.1208
      2  CA         0.4130   -6.5810   86.5110 C.3   1305  GLU1305     0.1949
      3  C          0.1360   -5.1850   87.0660 C.2   1305  GLU1305     0.3819
      4  O         -0.9980   -4.7170   86.8540 O.co2 1305  GLU1305    -0.2441
      5  CB         1.1950   -6.3790   85.1970 C.3   1305  GLU1305     0.0424
      6  CG         2.5480   -5.7410   85.5290 C.3   1305  GLU1305     0.1161
      7  CD         3.5980   -6.8390   85.5730 C.2   1305  GLU1305     0.3649
      8  OE1        3.6860   -7.5620   84.5590 O.co2 1305  GLU1305    -0.2457
      9  OE2        4.2610   -6.9400   86.6210 O.co2 1305  GLU1305    -0.2457
     10  OXT        1.0640   -4.6020   87.6750 O.co2 1305  GLU1305    -0.2441
@<TRIPOS>BOND
     1     8     7   ar
     2     5     6    1
     3     5     2    1
     4     6     7    1
     5     7     9   ar
     6     1     2    1
     7     2     3    1
     8     4     3   ar
     9     3    10   ar
