@<TRIPOS>MOLECULE
1i9g_SAM_A_1.pdb
 27 29 0 0 0
SMALL
GASTEIGER

@<TRIPOS>ATOM
      1  N         21.3670   -8.8210   19.0340 N.3   301  SAM301     -0.1208
      2  CA        21.1160  -10.1940   19.4590 C.3   301  SAM301      0.1952
      3  C         22.4540  -10.9190   19.6770 C.2   301  SAM301      0.3819
      4  O         23.5260  -10.3980   19.3340 O.co2 301  SAM301     -0.2441
      5  OXT       22.4240  -12.1420   19.9090 O.co2 301  SAM301     -0.2441
      6  CB        20.2900  -10.9150   18.3690 C.3   301  SAM301      0.0414
      7  CG        18.7870  -10.5290   18.3470 C.3   301  SAM301      0.0503
      8  SD        17.8110  -11.5710   17.1840 S.3   301  SAM301     -0.1761
      9  CE        18.2180  -10.9710   15.5470 C.3   301  SAM301      0.0590
     10  C5'       16.1370  -10.8400   17.3490 C.3   301  SAM301      0.0806
     11  C4'       15.6180  -11.3010   18.6250 C.3   301  SAM301      0.1622
     12  O4'       14.5690  -10.3180   18.9810 O.3   301  SAM301     -0.3153
     13  C3'       14.8940  -12.7220   18.4630 C.3   301  SAM301      0.2168
     14  O3'       15.3800  -13.6200   19.5290 O.3   301  SAM301     -0.2175
     15  C2'       13.4190  -12.4090   18.6780 C.3   301  SAM301      0.2569
     16  O2'       12.6730  -13.4300   19.3220 O.3   301  SAM301     -0.2130
     17  C1'       13.4210  -11.0940   19.4450 C.3   301  SAM301      0.3185
     18  N9        12.1130  -10.2790   19.4220 N.pl3 301  SAM301     -0.1439
     19  C8        11.5200   -9.8390   18.2430 C.3   301  SAM301      0.3377
     20  N7        10.5730   -8.9520   18.4180 N.2   301  SAM301     -0.2095
     21  C5        10.5650   -8.7690   19.8230 C.2   301  SAM301      0.2526
     22  C6         9.7700   -7.9490   20.6560 C.2   301  SAM301      0.4393
     23  N6         8.8140   -7.1260   20.1640 N.pl3 301  SAM301      0.2180
     24  N1         9.9920   -8.0120   21.9910 N.2   301  SAM301      0.0021
     25  C2        10.9300   -8.8370   22.4790 C.3   301  SAM301      0.5254
     26  N3        11.7390   -9.6660   21.8090 N.2   301  SAM301     -0.0055
     27  C4        11.4920   -9.5660   20.4600 C.2   301  SAM301      0.3518
@<TRIPOS>BOND
     1     9     8    1
     2     8    10    1
     3     8     7    1
     4    10    11    1
     5    19    20    1
     6    19    18    1
     7     7     6    1
     8     6     2    1
     9    20    21    2
    10    13    11    1
    11    13    15    1
    12    13    14    1
    13    11    12    1
    14    15    16    1
    15    15    17    1
    16    12    17    1
    17     1     2    1
    18     4     3   ar
    19    18    17    1
    20    18    27    1
    21     2     3    1
    22     3     5   ar
    23    21    27    1
    24    21    22    1
    25    23    22    1
    26    27    26    2
    27    22    24    2
    28    26    25    1
    29    24    25    1
