@<TRIPOS>MOLECULE
1i9h_BNI_A_1.pdb
 25 27 0 0 0
SMALL
GASTEIGER

@<TRIPOS>ATOM
      1  C1        33.4060   29.6790   38.3410 C.2   501  BNI501      0.2456
      2  C10       32.2930   30.2800   37.4600 C.3   501  BNI501      0.0872
      3  C9        31.7640   31.6650   37.8390 C.3   501  BNI501      0.0097
      4  C8        31.0970   31.6170   39.2080 C.3   501  BNI501      0.0014
      5  C7        30.4440   32.9310   39.5720 C.3   501  BNI501      0.0129
      6  C2        29.7570   32.8740   40.9880 C.3   501  BNI501      0.0729
      7  C6        27.6810   32.8410   42.4700 C.3   501  BNI501      0.0848
      8  C4        29.5870   34.2860   41.6410 C.3   501  BNI501      0.1500
      9  C5        28.3410   34.2110   42.5380 C.3   501  BNI501      0.1509
     10  C3        28.0360   35.7930   40.9130 C.1   501  BNI501      0.2386
     11  O2        34.2510   30.5510   38.6360 O.2   501  BNI501     -0.2730
     12  O3        27.4700   36.6800   40.2560 O.2   501  BNI501     -0.2023
     13  N1        27.4880   35.1930   41.9600 N.2   501  BNI501     -0.1859
     14  N2        29.2500   35.3220   40.6690 N.2   501  BNI501     -0.1860
     15  S1        28.0690   32.1730   40.8000 S.3   501  BNI501     -0.1369
     16  N17       33.1030   28.7200   39.2230 N.am  501  BNI501     -0.1792
     17  C18       33.8800   28.0370   40.1200 C.ar  501  BNI501      0.0735
     18  C20       34.4030   26.7200   39.9040 C.ar  501  BNI501      0.0183
     19  C21       35.2070   26.1040   40.9420 C.ar  501  BNI501      0.0254
     20  C22       35.4800   26.8180   42.1950 C.ar  501  BNI501      0.1430
     21  C23       34.9550   28.1310   42.3900 C.ar  501  BNI501      0.0254
     22  C24       34.1690   28.7310   41.3740 C.ar  501  BNI501      0.0183
     23  N25       36.3100   26.1950   43.2980 N.pl3 501  BNI501      0.0577
     24  O26       36.7750   25.0950   43.1920 O.2   501  BNI501     -0.1261
     25  O27       36.5210   26.7920   44.3180 O.2   501  BNI501     -0.1261
@<TRIPOS>BOND
     1     2     3    1
     2     2     1    1
     3     3     4    1
     4     1    11    2
     5     1    16   am
     6     4     5    1
     7    16    17    1
     8     5     6    1
     9    18    17   ar
    10    18    19   ar
    11    17    22   ar
    12    12    10    2
    13    14    10    2
    14    14     8    1
    15    15     6    1
    16    15     7    1
    17    10    13    2
    18    19    20   ar
    19     6     8    1
    20    22    21   ar
    21     8     9    1
    22    13     9    1
    23    20    21   ar
    24    20    23    1
    25     7     9    1
    26    24    23    2
    27    23    25    2
