@<TRIPOS>MOLECULE
1i9j_TES_H_1.pdb
 21 24 0 0 0
SMALL
GASTEIGER

@<TRIPOS>ATOM
      1  C1        22.8090   15.2370   40.5570 C.3   1010  TES1010     0.0118
      2  C2        22.9530   15.9550   39.1810 C.3   1010  TES1010     0.0694
      3  C3        21.5700   16.1290   38.5030 C.2   1010  TES1010     0.1725
      4  O3        21.4800   16.1470   37.2520 O.2   1010  TES1010    -0.2914
      5  C4        20.2980   16.2480   39.3740 C.2   1010  TES1010     0.0289
      6  C5        20.3760   16.1870   40.7430 C.2   1010  TES1010    -0.0420
      7  C6        19.0860   16.3880   41.5730 C.3   1010  TES1010     0.0221
      8  C7        19.0670   15.3420   42.6840 C.3   1010  TES1010     0.0044
      9  C8        20.2850   15.2930   43.5940 C.3   1010  TES1010     0.0007
     10  C9        21.5280   14.9030   42.6630 C.3   1010  TES1010     0.0035
     11  C10       21.7640   15.9480   41.4870 C.3   1010  TES1010     0.0157
     12  C11       22.8490   14.7730   43.5530 C.3   1010  TES1010     0.0004
     13  C12       22.6570   13.7220   44.6900 C.3   1010  TES1010     0.0025
     14  C13       21.4730   14.1430   45.5760 C.3   1010  TES1010     0.0282
     15  C14       20.1770   14.2340   44.7330 C.3   1010  TES1010     0.0025
     16  C15       19.1910   14.5600   45.8430 C.3   1010  TES1010     0.0027
     17  C16       19.5710   13.5310   46.9620 C.3   1010  TES1010     0.0329
     18  C17       21.0150   13.0700   46.5350 C.3   1010  TES1010     0.1519
     19  O17       21.8870   12.7410   47.6200 O.3   1010  TES1010    -0.2232
     20  C18       21.8910   15.4650   46.3350 C.3   1010  TES1010     0.0025
     21  C19       22.2660   17.3710   41.8580 C.3   1010  TES1010     0.0041
@<TRIPOS>BOND
     1     4     3    2
     2     3     2    1
     3     3     5    1
     4     2     1    1
     5     5     6    2
     6     1    11    1
     7     6    11    1
     8     6     7    1
     9    11    21    1
    10    11    10    1
    11     7     8    1
    12    10    12    1
    13    10     9    1
    14     8     9    1
    15    12    13    1
    16     9    15    1
    17    13    14    1
    18    15    14    1
    19    15    16    1
    20    14    20    1
    21    14    18    1
    22    16    17    1
    23    18    17    1
    24    18    19    1
