@<TRIPOS>MOLECULE
1i9l_INV_A_1.pdb
 21 22 0 0 0
SMALL
GASTEIGER

@<TRIPOS>ATOM
      1  C01       -3.7880    2.9570   14.9130 C.ar  555  INV555      0.0059
      2  C02       -4.2250    1.8450   15.6210 C.ar  555  INV555      0.0202
      3  C03       -5.6130    1.7560   16.0180 C.ar  555  INV555      0.1251
      4  C04       -6.4770    2.8040   15.6800 C.ar  555  INV555      0.0202
      5  C05       -5.9990    3.9120   14.9680 C.ar  555  INV555      0.0059
      6  C06       -4.6600    4.0010   14.5770 C.ar  555  INV555      0.0551
      7  C07       -4.1000    5.1980   13.7860 C.2   555  INV555      0.2651
      8  O08       -4.9140    6.1180   13.5010 O.2   555  INV555     -0.2684
      9  N09       -2.7120    5.2960   13.3690 N.am  555  INV555     -0.1968
     10  C10       -2.2780    6.5590   12.8220 C.3   555  INV555      0.1418
     11  S11       -6.0830    0.2740   16.9310 S.O2  555  INV555      0.0935
     12  NP2       -5.6210   -1.1680   16.1600 N.3   555  INV555      0.0392
     13  O13       -7.5130    0.4880   17.1220 O.2   555  INV555     -0.1503
     14  O14       -5.3780    0.5550   18.2120 O.2   555  INV555     -0.1503
     15  C15       -1.5640    7.4610   13.6090 C.ar  555  INV555     -0.0004
     16  C16       -2.0640    7.7550   14.9390 C.ar  555  INV555     -0.0002
     17  C17       -1.3290    8.7030   15.7590 C.ar  555  INV555      0.0294
     18  C18       -0.1090    9.3430   15.2530 C.ar  555  INV555      0.1401
     19  C19        0.3780    9.0300   13.9210 C.ar  555  INV555      0.0294
     20  C20       -0.3360    8.0950   13.0890 C.ar  555  INV555     -0.0002
     21  F21        0.5740   10.2350   16.0390 F     555  INV555     -0.2042
@<TRIPOS>BOND
     1    10     9    1
     2    10    15    1
     3    20    15   ar
     4    20    19   ar
     5     9     7   am
     6     8     7    2
     7    15    16   ar
     8     7     6    1
     9    19    18   ar
    10     6     1   ar
    11     6     5   ar
    12     1     2   ar
    13    16    17   ar
    14     5     4   ar
    15    18    17   ar
    16    18    21    1
    17     2     3   ar
    18     4     3   ar
    19     3    11    1
    20    12    11    1
    21    11    13    2
    22    11    14    2
