@<TRIPOS>MOLECULE
1i9m_INW_A_1.pdb
 22 23 0 0 0
SMALL
GASTEIGER

@<TRIPOS>ATOM
      1  C01       -3.9680    2.8040   14.6740 C.ar  555  INW555      0.0059
      2  C02       -4.3270    1.6720   15.4360 C.ar  555  INW555      0.0202
      3  C03       -5.7060    1.5440   15.8940 C.ar  555  INW555      0.1251
      4  C04       -6.6270    2.5370   15.5880 C.ar  555  INW555      0.0202
      5  C05       -6.2270    3.6780   14.8150 C.ar  555  INW555      0.0059
      6  C06       -4.9050    3.8160   14.3500 C.ar  555  INW555      0.0551
      7  C07       -4.4080    5.0030   13.4890 C.2   555  INW555      0.2651
      8  O08       -5.2540    5.9000   13.1880 O.2   555  INW555     -0.2684
      9  N09       -3.0020    5.0920   13.0130 N.am  555  INW555     -0.1967
     10  C10       -2.5060    6.2930   12.4110 C.3   555  INW555      0.1440
     11  S11       -6.0790    0.0920   16.8130 S.O2  555  INW555      0.0935
     12  NP2       -5.6260   -1.3670   16.0730 N.3   555  INW555      0.0392
     13  O13       -7.4590    0.3680   16.9980 O.2   555  INW555     -0.1503
     14  O14       -5.3510    0.4320   18.0720 O.2   555  INW555     -0.1503
     15  C15       -1.7550    7.1970   13.1670 C.ar  555  INW555      0.0271
     16  C16       -1.9520    7.2980   14.6770 C.ar  555  INW555      0.1400
     17  C17       -1.1090    8.2910   15.4010 C.ar  555  INW555      0.0590
     18  C18       -0.1170    9.1450   14.6790 C.ar  555  INW555      0.1424
     19  C19        0.0510    9.0210   13.2010 C.ar  555  INW555      0.0295
     20  C20       -0.7530    8.0620   12.4420 C.ar  555  INW555      0.0020
     21  F21        0.5680    9.9590   15.3070 F     555  INW555     -0.2041
     22  F22       -2.7600    6.6110   15.2960 F     555  INW555     -0.2044
@<TRIPOS>BOND
     1    10     9    1
     2    10    15    1
     3    20    15   ar
     4    20    19   ar
     5     9     7   am
     6    15    16   ar
     7     8     7    2
     8    19    18   ar
     9     7     6    1
    10     6     1   ar
    11     6     5   ar
    12     1     2   ar
    13    16    22    1
    14    16    17   ar
    15    18    21    1
    16    18    17   ar
    17     5     4   ar
    18     2     3   ar
    19     4     3   ar
    20     3    11    1
    21    12    11    1
    22    11    13    2
    23    11    14    2
