@<TRIPOS>MOLECULE
1i9n_IOA_A_1.pdb
 22 23 0 0 0
SMALL
GASTEIGER

@<TRIPOS>ATOM
      1  C01       -3.8580    2.6650   14.6340 C.ar  555  IOA555      0.0059
      2  C02       -4.2550    1.6000   15.4550 C.ar  555  IOA555      0.0202
      3  C03       -5.6300    1.5110   15.8800 C.ar  555  IOA555      0.1251
      4  C04       -6.5210    2.5060   15.4670 C.ar  555  IOA555      0.0202
      5  C05       -6.0910    3.5650   14.6510 C.ar  555  IOA555      0.0059
      6  C06       -4.7660    3.6560   14.2180 C.ar  555  IOA555      0.0551
      7  C07       -4.2940    4.7950   13.3100 C.2   555  IOA555      0.2651
      8  O08       -5.1660    5.6310   12.9800 O.2   555  IOA555     -0.2684
      9  N09       -2.9430    4.9470   12.8050 N.am  555  IOA555     -0.1967
     10  C10       -2.5340    6.2940   12.4270 C.3   555  IOA555      0.1441
     11  S11       -6.0970    0.1220   16.9150 S.O2  555  IOA555      0.0935
     12  NP2       -5.6460   -1.3760   16.2760 N.3   555  IOA555      0.0392
     13  O13       -7.5310    0.3470   17.0640 O.2   555  IOA555     -0.1503
     14  O14       -5.4160    0.4830   18.1730 O.2   555  IOA555     -0.1503
     15  C15       -1.8730    7.1420   13.3370 C.ar  555  IOA555      0.0292
     16  C16       -2.1550    7.0100   14.7610 C.ar  555  IOA555      0.0293
     17  C17       -1.4740    7.8960   15.7000 C.ar  555  IOA555      0.1400
     18  C18       -0.5340    8.8880   15.2000 C.ar  555  IOA555      0.0319
     19  C19       -0.2600    9.0020   13.7600 C.ar  555  IOA555      0.0317
     20  C20       -0.9230    8.1380   12.8340 C.ar  555  IOA555      0.1379
     21  F21       -0.6810    8.2560   11.6550 F     555  IOA555     -0.2044
     22  F22       -1.7210    7.7970   17.0360 F     555  IOA555     -0.2042
@<TRIPOS>BOND
     1    21    20    1
     2    10     9    1
     3    10    15    1
     4     9     7   am
     5    20    15   ar
     6    20    19   ar
     7     8     7    2
     8     7     6    1
     9    15    16   ar
    10    19    18   ar
    11     6     1   ar
    12     6     5   ar
    13     1     2   ar
    14     5     4   ar
    15    16    17   ar
    16    18    17   ar
    17     2     3   ar
    18     4     3   ar
    19    17    22    1
    20     3    11    1
    21    12    11    1
    22    11    13    2
    23    11    14    2
