@<TRIPOS>MOLECULE
1i9o_IOC_A_1.pdb
 23 24 0 0 0
SMALL
GASTEIGER

@<TRIPOS>ATOM
      1  C01       -3.9360    1.9150   14.5970 C.ar  555  IOC555      0.0059
      2  C02       -4.2800    0.8310   15.4190 C.ar  555  IOC555      0.0202
      3  C03       -5.6590    0.6690   15.8500 C.ar  555  IOC555      0.1251
      4  C04       -6.6010    1.6060   15.4410 C.ar  555  IOC555      0.0202
      5  C05       -6.2150    2.6940   14.6070 C.ar  555  IOC555      0.0059
      6  C06       -4.9000    2.8550   14.1790 C.ar  555  IOC555      0.0551
      7  C07       -4.4480    4.0020   13.2670 C.2   555  IOC555      0.2651
      8  O08       -5.3330    4.8290   12.8840 O.2   555  IOC555     -0.2684
      9  N09       -3.0390    4.1480   12.8440 N.am  555  IOC555     -0.1967
     10  C10       -2.5630    5.4530   12.4640 C.3   555  IOC555      0.1441
     11  S11       -6.0320   -0.7390   16.8650 S.O2  555  IOC555      0.0935
     12  NP2       -5.4410   -2.2260   16.2460 N.3   555  IOC555      0.0392
     13  O13       -7.4490   -0.5280   16.9760 O.2   555  IOC555     -0.1503
     14  O14       -5.3920   -0.2990   18.1360 O.2   555  IOC555     -0.1503
     15  C15       -1.8810    6.2960   13.3720 C.ar  555  IOC555      0.0293
     16  C16       -2.4240    6.4970   14.7420 C.ar  555  IOC555      0.1673
     17  C17       -1.6650    7.4000   15.6490 C.ar  555  IOC555      0.1943
     18  C18       -0.4220    8.0690   15.2040 C.ar  555  IOC555      0.1696
     19  C19        0.1000    7.8500   13.8340 C.ar  555  IOC555      0.0318
     20  C20       -0.6110    6.9760   12.9220 C.ar  555  IOC555      0.0021
     21  F21        0.1860    8.8150   15.9810 F     555  IOC555     -0.2017
     22  F22       -3.4580    5.9510   15.1270 F     555  IOC555     -0.2020
     23  F23       -2.1330    7.6090   16.9100 F     555  IOC555     -0.1994
@<TRIPOS>BOND
     1    10     9    1
     2    10    15    1
     3     9     7   am
     4     8     7    2
     5    20    15   ar
     6    20    19   ar
     7     7     6    1
     8    15    16   ar
     9    19    18   ar
    10     6     1   ar
    11     6     5   ar
    12     1     2   ar
    13     5     4   ar
    14    16    22    1
    15    16    17   ar
    16    18    17   ar
    17    18    21    1
    18     2     3   ar
    19     4     3   ar
    20    17    23    1
    21     3    11    1
    22    12    11    1
    23    11    13    2
    24    11    14    2
