@<TRIPOS>MOLECULE
1i9p_IOE_A_1.pdb
 23 24 0 0 0
SMALL
GASTEIGER

@<TRIPOS>ATOM
      1  C01       -3.8510    1.6170   14.7430 C.ar  555  IOE555      0.0059
      2  C02       -4.1800    0.4630   15.4890 C.ar  555  IOE555      0.0202
      3  C03       -5.5540    0.2410   15.9110 C.ar  555  IOE555      0.1251
      4  C04       -6.5050    1.2040   15.5580 C.ar  555  IOE555      0.0202
      5  C05       -6.1370    2.3520   14.8100 C.ar  555  IOE555      0.0059
      6  C06       -4.8310    2.5760   14.3920 C.ar  555  IOE555      0.0551
      7  C07       -4.4640    3.8270   13.5640 C.2   555  IOE555      0.2651
      8  O08       -5.4180    4.6030   13.2970 O.2   555  IOE555     -0.2684
      9  N09       -3.1290    4.1660   13.0660 N.am  555  IOE555     -0.1966
     10  C10       -2.3080    4.9940   13.9390 C.3   555  IOE555      0.1463
     11  S11       -5.9440   -1.2630   16.8650 S.O2  555  IOE555      0.0935
     12  NP2       -5.3910   -2.7190   16.1190 N.3   555  IOE555      0.0392
     13  O13       -7.4090   -1.0910   17.0270 O.2   555  IOE555     -0.1503
     14  O14       -5.3240   -0.9270   18.1850 O.2   555  IOE555     -0.1503
     15  C15       -2.5470    6.3760   14.1340 C.ar  555  IOE555      0.0545
     16  C16       -3.4810    7.1050   13.2430 C.ar  555  IOE555      0.1422
     17  C17       -3.6960    8.5470   13.4920 C.ar  555  IOE555      0.0591
     18  C18       -3.0030    9.2390   14.5910 C.ar  555  IOE555      0.1446
     19  C19       -2.0840    8.4920   15.4510 C.ar  555  IOE555      0.0591
     20  C20       -1.8530    7.0760   15.2350 C.ar  555  IOE555      0.1422
     21  F21       -0.9930    6.3940   16.0510 F     555  IOE555     -0.2043
     22  F22       -3.2140   10.5740   14.8050 F     555  IOE555     -0.2040
     23  F23       -4.1280    6.4780   12.2160 F     555  IOE555     -0.2043
@<TRIPOS>BOND
     1    23    16    1
     2     9     7   am
     3     9    10    1
     4    16    17   ar
     5    16    15   ar
     6     8     7    2
     7    17    18   ar
     8     7     6    1
     9    10    15    1
    10    15    20   ar
    11     6     1   ar
    12     6     5   ar
    13    18    22    1
    14    18    19   ar
    15     1     2   ar
    16     5     4   ar
    17    20    19   ar
    18    20    21    1
    19     2     3   ar
    20     4     3   ar
    21     3    11    1
    22    12    11    1
    23    11    13    2
    24    11    14    2
