@<TRIPOS>MOLECULE
1i9q_IOF_A_1.pdb
 23 24 0 0 0
SMALL
GASTEIGER

@<TRIPOS>ATOM
      1  C01       -8.3710   11.9370    8.1040 C.ar  555  IOF555      0.0059
      2  C02       -9.4460   12.5360    7.4290 C.ar  555  IOF555      0.0202
      3  C03      -10.4660   11.7230    6.8500 C.ar  555  IOF555      0.1251
      4  C04      -10.3160   10.3390    6.9800 C.ar  555  IOF555      0.0202
      5  C05       -9.2350    9.7770    7.6580 C.ar  555  IOF555      0.0059
      6  C06       -8.2650   10.5510    8.2300 C.ar  555  IOF555      0.0551
      7  C07       -7.1550    9.8950    8.9930 C.2   555  IOF555      0.2651
      8  O08       -7.2420    8.6610    9.0200 O.2   555  IOF555     -0.2684
      9  N09       -6.0730   10.5330    9.6900 N.am  555  IOF555     -0.1968
     10  C10       -5.2000    9.6080   10.4210 C.3   555  IOF555      0.1419
     11  S11      -11.8820   12.5110    6.0150 S.O2  555  IOF555      0.0935
     12  NP2      -12.6410   13.4800    7.1230 N.3   555  IOF555      0.0392
     13  O13      -12.6270   11.3310    5.5850 O.2   555  IOF555     -0.1503
     14  O14      -11.3730   13.2730    4.8860 O.2   555  IOF555     -0.1503
     15  C15       -5.5620    9.2820   11.7660 C.ar  555  IOF555      0.0041
     16  C16       -4.7650    9.7510   12.8820 C.ar  555  IOF555      0.0296
     17  C17       -5.1840    9.3990   14.2270 C.ar  555  IOF555      0.1694
     18  C18       -6.3620    8.6080   14.4430 C.ar  555  IOF555      0.1946
     19  C19       -7.1430    8.1530   13.3320 C.ar  555  IOF555      0.1694
     20  C20       -6.7570    8.4810   12.0060 C.ar  555  IOF555      0.0296
     21  F21       -4.4600    9.8190   15.2720 F     555  IOF555     -0.2017
     22  F22       -6.7390    8.2890   15.6880 F     555  IOF555     -0.1994
     23  F23       -8.2440    7.4140   13.5240 F     555  IOF555     -0.2017
@<TRIPOS>BOND
     1    14    11    2
     2    13    11    2
     3    11     3    1
     4    11    12    1
     5     3     4   ar
     6     3     2   ar
     7     4     5   ar
     8     2     1   ar
     9     5     6   ar
    10     1     6   ar
    11     6     7    1
    12     7     8    2
    13     7     9   am
    14     9    10    1
    15    10    15    1
    16    15    20   ar
    17    15    16   ar
    18    20    19   ar
    19    16    17   ar
    20    19    23    1
    21    19    18   ar
    22    17    18   ar
    23    17    21    1
    24    18    22    1
