@<TRIPOS>MOLECULE
1i9z_2IP_A_1.pdb
 20 20 0 0 0
SMALL
GASTEIGER

@<TRIPOS>ATOM
      1  C1        39.2070   31.2180   33.3290 C.3   302  2IP302      0.1919
      2  C2        39.6290   30.3720   34.5580 C.3   302  2IP302      0.2147
      3  C3        39.4580   31.1640   35.8980 C.3   302  2IP302      0.2147
      4  C4        38.0340   31.7450   36.1010 C.3   302  2IP302      0.1919
      5  C5        37.7470   32.6800   34.9050 C.3   302  2IP302      0.2147
      6  C6        37.8170   31.9330   33.5400 C.3   302  2IP302      0.2147
      7  O1        39.9550   31.6060   32.2080 O.3   302  2IP302     -0.2673
      8  O2        38.8670   29.2020   34.6830 O.3   302  2IP302     -0.2176
      9  O3        39.7130   30.3320   36.9910 O.3   302  2IP302     -0.2176
     10  O4        37.9980   32.4880   37.3630 O.3   302  2IP302     -0.2673
     11  O5        36.4480   33.2590   35.0280 O.3   302  2IP302     -0.2176
     12  O6        37.5570   32.9830   32.6180 O.3   302  2IP302     -0.2176
     13  P4        37.1350   32.0680   38.6100 P.3   302  2IP302      0.5327
     14  O41       35.6650   31.8650   38.0860 O.2   302  2IP302     -0.2224
     15  O42       37.1790   33.1200   39.6240 O.3   302  2IP302     -0.1145
     16  O43       37.8290   30.7740   39.0700 O.3   302  2IP302     -0.1145
     17  P1        39.9570   31.1740   30.7680 P.3   302  2IP302      0.5327
     18  O11       41.4450   30.8860   30.5050 O.3   302  2IP302     -0.1145
     19  O12       39.1340   29.9850   30.3350 O.3   302  2IP302     -0.1145
     20  O13       39.6180   32.4520   29.9920 O.2   302  2IP302     -0.2224
@<TRIPOS>BOND
     1    20    17    2
     2    19    17    1
     3    18    17    1
     4    17     7    1
     5     7     1    1
     6    12     6    1
     7     1     6    1
     8     1     2    1
     9     6     5    1
    10     2     8    1
    11     2     3    1
    12     5    11    1
    13     5     4    1
    14     3     4    1
    15     3     9    1
    16     4    10    1
    17    10    13    1
    18    14    13    2
    19    13    16    1
    20    13    15    1
