@<TRIPOS>MOLECULE
1ia0_GDP_B_1.pdb
 28 30 0 0 0
SMALL
GASTEIGER

@<TRIPOS>ATOM
      1  PB       -21.8970 -126.0540   71.6770 P.3   501  GDP501      0.5373
      2  O1B      -22.1060 -127.1590   70.8050 O.2   501  GDP501     -0.2221
      3  O2B      -22.6130 -124.8150   71.4480 O.3   501  GDP501     -0.1143
      4  O3B      -22.0440 -126.5340   73.1230 O.3   501  GDP501     -0.1143
      5  O3A      -20.4100 -125.7790   71.5360 O.3   501  GDP501     -0.2261
      6  PA       -19.7080 -124.4260   71.1730 P.3   501  GDP501      0.2231
      7  O1A      -19.8630 -124.1520   69.7520 O.2   501  GDP501     -0.5169
      8  O2A      -20.0470 -123.4030   72.1660 O.3   501  GDP501     -0.4370
      9  O5'      -18.2480 -124.9410   71.4350 O.3   501  GDP501     -0.3111
     10  C5'      -17.8300 -126.2080   70.9680 C.3   501  GDP501      0.1813
     11  C4'      -16.4260 -126.1800   70.5240 C.3   501  GDP501      0.1799
     12  O4'      -16.3240 -125.3140   69.4190 O.3   501  GDP501     -0.3326
     13  C3'      -15.4660 -125.6950   71.5540 C.3   501  GDP501      0.2158
     14  O3'      -14.8620 -126.7810   72.2300 O.3   501  GDP501     -0.2175
     15  C2'      -14.5610 -124.7800   70.8330 C.3   501  GDP501      0.2310
     16  O2'      -13.3550 -125.3710   70.4920 O.3   501  GDP501     -0.2158
     17  C1'      -15.3100 -124.3910   69.6260 C.3   501  GDP501      0.2293
     18  N9       -15.8200 -123.0060   69.6610 N.pl3 501  GDP501     -0.2354
     19  C8       -16.5450 -122.3030   70.5640 C.3   501  GDP501      0.2246
     20  N7       -16.8130 -121.0670   70.2470 N.2   501  GDP501     -0.2322
     21  C5       -16.2110 -120.9320   69.0300 C.2   501  GDP501      0.2182
     22  C6       -16.1480 -119.8110   68.1630 C.1   501  GDP501      0.2372
     23  O6       -16.6260 -118.7040   68.3260 O.2   501  GDP501     -0.2069
     24  N1       -15.4300 -120.1090   67.0040 N.2   501  GDP501     -0.2485
     25  C2       -14.8470 -121.3460   66.7160 C.1   501  GDP501      0.2531
     26  N2       -14.2130 -121.4830   65.5930 N.pl3 501  GDP501     -0.0226
     27  N3       -14.9010 -122.3770   67.5240 N.2   501  GDP501     -0.3074
     28  C4       -15.6010 -122.1110   68.6580 C.2   501  GDP501      0.2300
@<TRIPOS>BOND
     1    26    25    1
     2    25    24    2
     3    25    27    2
     4    24    22    2
     5    27    28    2
     6    22    23    2
     7    22    21    1
     8    28    21    1
     9    28    18    1
    10    21    20    2
    11    12    17    1
    12    12    11    1
    13    17    18    1
    14    17    15    1
    15    18    19    1
    16     7     6    2
    17    20    19    1
    18    16    15    1
    19    11    10    1
    20    11    13    1
    21     2     1    2
    22    15    13    1
    23    10     9    1
    24     6     9    1
    25     6     5    1
    26     6     8    1
    27     3     1    1
    28     5     1    1
    29    13    14    1
    30     1     4    1
