@<TRIPOS>MOLECULE
1ia0_ACP_K_1.pdb
 31 33 0 0 0
SMALL
GASTEIGER

@<TRIPOS>ATOM
      1  PG       -43.9830 -152.2340   79.8180 P.3   503  ACP503      0.1295
      2  O1G      -42.5480 -152.2530   79.4090 O.2   503  ACP503     -0.4595
      3  O2G      -44.0610 -152.6690   81.3580 O.3   503  ACP503     -0.3567
      4  O3G      -44.6060 -150.9000   79.6150 O.3   503  ACP503     -0.3567
      5  PB       -44.6160 -155.2250   78.9940 P.3   503  ACP503      0.3815
      6  O1B      -44.8220 -155.5550   80.4180 O.3   503  ACP503     -0.1391
      7  O2B      -43.2490 -155.6200   78.4690 O.2   503  ACP503     -0.2547
      8  C3B      -44.9320 -153.4600   78.8540 C.3   503  ACP503      0.1768
      9  PA       -47.1090 -156.5710   78.2810 P.3   503  ACP503      0.2209
     10  O1A      -48.0480 -155.5130   78.6400 O.2   503  ACP503     -0.5170
     11  O2A      -47.0770 -157.6330   79.2880 O.3   503  ACP503     -0.4371
     12  O3A      -45.6510 -155.9630   78.0770 O.3   503  ACP503     -0.2483
     13  O5'      -47.3700 -157.1390   76.8130 O.3   503  ACP503     -0.3111
     14  C5'      -47.8860 -156.2780   75.7740 C.3   503  ACP503      0.1813
     15  C4'      -49.0700 -156.9910   75.1040 C.3   503  ACP503      0.1821
     16  O4'      -48.6570 -158.2450   74.5370 O.3   503  ACP503     -0.3135
     17  C3'      -50.2230 -157.3060   76.0750 C.3   503  ACP503      0.2184
     18  O3'      -51.4730 -156.9910   75.4470 O.3   503  ACP503     -0.2174
     19  C2'      -50.0540 -158.7960   76.3930 C.3   503  ACP503      0.2570
     20  O2'      -51.2700 -159.4290   76.8350 O.3   503  ACP503     -0.2130
     21  C1'      -49.4750 -159.3220   75.0790 C.3   503  ACP503      0.3186
     22  N9       -48.6170 -160.5500   75.2310 N.pl3 503  ACP503     -0.1439
     23  C8       -47.3670 -160.5480   75.7620 C.3   503  ACP503      0.3377
     24  N7       -46.8720 -161.7730   75.7330 N.2   503  ACP503     -0.2095
     25  C5       -47.7810 -162.5870   75.1900 C.2   503  ACP503      0.2526
     26  C6       -47.8000 -163.9550   74.9000 C.2   503  ACP503      0.4393
     27  N6       -46.7620 -164.7460   75.1780 N.pl3 503  ACP503      0.2180
     28  N1       -48.9350 -164.4810   74.3200 N.2   503  ACP503      0.0021
     29  C2       -50.0210 -163.7000   74.0160 C.3   503  ACP503      0.5254
     30  N3       -49.9840 -162.3920   74.2930 N.2   503  ACP503     -0.0055
     31  C4       -48.8770 -161.7820   74.8740 C.2   503  ACP503      0.3518
@<TRIPOS>BOND
     1    29    30    1
     2    29    28    1
     3    30    31    2
     4    28    26    2
     5    16    21    1
     6    16    15    1
     7    31    25    1
     8    31    22    1
     9    26    27    1
    10    26    25    1
    11    21    22    1
    12    21    19    1
    13    15    14    1
    14    15    17    1
    15    25    24    2
    16    22    23    1
    17    18    17    1
    18    24    23    1
    19    14    13    1
    20    17    19    1
    21    19    20    1
    22    13     9    1
    23    12     9    1
    24    12     5    1
    25     9    10    2
    26     9    11    1
    27     7     5    2
    28     8     5    1
    29     8     1    1
    30     5     6    1
    31     2     1    2
    32     4     1    1
    33     1     3    1
