@<TRIPOS>MOLECULE
1ia0_GTP_A_1.pdb
 32 34 0 0 0
SMALL
GASTEIGER

@<TRIPOS>ATOM
      1  PG       -22.4410 -126.3970  114.1430 P.3   500  GTP500      0.5373
      2  O1G      -23.6070 -125.9000  113.3790 O.2   500  GTP500     -0.2221
      3  O2G      -22.7060 -127.9090  114.2990 O.3   500  GTP500     -0.1143
      4  O3G      -22.5180 -125.7630  115.6190 O.3   500  GTP500     -0.1143
      5  O3B      -21.0990 -126.1130  113.3620 O.3   500  GTP500     -0.2258
      6  PB       -20.7260 -124.6820  112.7800 P.3   500  GTP500      0.2277
      7  O1B      -20.4680 -124.0130  114.0410 O.3   500  GTP500     -0.4368
      8  O2B      -21.4960 -124.0120  111.6850 O.2   500  GTP500     -0.5168
      9  O3A      -19.3410 -124.9820  112.2460 O.3   500  GTP500     -0.2700
     10  PA       -18.0350 -124.4490  112.8810 P.3   500  GTP500      0.2189
     11  O1A      -17.7350 -125.3030  114.0650 O.3   500  GTP500     -0.4371
     12  O2A      -18.2210 -122.9800  113.0450 O.2   500  GTP500     -0.5170
     13  O5'      -16.9990 -124.7830  111.7750 O.3   500  GTP500     -0.3112
     14  C5'      -16.8020 -126.1070  111.3510 C.3   500  GTP500      0.1813
     15  C4'      -15.6420 -126.1770  110.4900 C.3   500  GTP500      0.1799
     16  O4'      -15.7900 -125.1020  109.5710 O.3   500  GTP500     -0.3326
     17  C3'      -14.3810 -125.9710  111.2100 C.3   500  GTP500      0.2158
     18  O3'      -13.4800 -127.0010  110.8820 O.3   500  GTP500     -0.2175
     19  C2'      -13.8700 -124.7010  110.6390 C.3   500  GTP500      0.2310
     20  O2'      -12.5390 -124.7920  110.4440 O.3   500  GTP500     -0.2158
     21  C1'      -14.5780 -124.5640  109.3420 C.3   500  GTP500      0.2293
     22  N9       -14.8220 -123.1770  108.9970 N.pl3 500  GTP500     -0.2354
     23  C8       -15.7620 -122.3360  109.5140 C.3   500  GTP500      0.2246
     24  N7       -15.7330 -121.1190  109.0320 N.2   500  GTP500     -0.2322
     25  C5       -14.6920 -121.1650  108.1500 C.2   500  GTP500      0.2182
     26  C6       -14.2430 -120.1820  107.2740 C.1   500  GTP500      0.2372
     27  O6       -14.6890 -119.0520  107.0820 O.2   500  GTP500     -0.2069
     28  N1       -13.2640 -120.6650  106.4780 N.2   500  GTP500     -0.2485
     29  C2       -12.7420 -121.9280  106.5500 C.1   500  GTP500      0.2531
     30  N2       -11.7550 -122.1950  105.7280 N.pl3 500  GTP500     -0.0226
     31  N3       -13.1550 -122.8700  107.3580 N.2   500  GTP500     -0.3074
     32  C4       -14.1380 -122.4280  108.1150 C.2   500  GTP500      0.2300
@<TRIPOS>BOND
     1    30    29    1
     2    28    29    2
     3    28    26    2
     4    29    31    2
     5    27    26    2
     6    26    25    1
     7    31    32    2
     8    32    25    1
     9    32    22    1
    10    25    24    2
    11    22    21    1
    12    22    23    1
    13    24    23    1
    14    21    16    1
    15    21    19    1
    16    16    15    1
    17    20    19    1
    18    15    17    1
    19    15    14    1
    20    19    17    1
    21    18    17    1
    22    14    13    1
    23     8     6    2
    24    13    10    1
    25     9     6    1
    26     9    10    1
    27     6     5    1
    28     6     7    1
    29    10    12    2
    30    10    11    1
    31     5     1    1
    32     2     1    2
    33     1     3    1
    34     1     4    1
