@<TRIPOS>MOLECULE
1ia1_NDP_A_1.pdb
 48 52 0 0 0
SMALL
GASTEIGER

@<TRIPOS>ATOM
      1  PA        28.8470   -7.3260   12.6200 P.3   193  NDP193      0.2189
      2  O1A       27.6040   -6.5460   12.6930 O.3   193  NDP193     -0.4371
      3  O2A       29.8100   -6.8110   11.6130 O.2   193  NDP193     -0.5170
      4  O5B       29.6040   -7.4960   14.0240 O.3   193  NDP193     -0.3112
      5  C5B       28.8330   -7.8300   15.2110 C.3   193  NDP193      0.1813
      6  C4B       29.7400   -7.4960   16.4040 C.3   193  NDP193      0.1820
      7  O4B       29.8610   -6.0790   16.5400 O.3   193  NDP193     -0.3136
      8  C3B       29.1430   -7.9620   17.7680 C.3   193  NDP193      0.2157
      9  O3B       29.4810   -9.3440   17.9420 O.3   193  NDP193     -0.2175
     10  C2B       29.9050   -6.9450   18.7250 C.3   193  NDP193      0.2314
     11  O2B       31.3140   -7.2700   18.8560 O.3   193  NDP193     -0.2630
     12  C1B       29.8940   -5.6930   17.8710 C.3   193  NDP193      0.3158
     13  N9A       28.7440   -4.8870   18.0940 N.pl3 193  NDP193     -0.1439
     14  C8A       27.5170   -5.1240   17.5640 C.3   193  NDP193      0.3377
     15  N7A       26.6150   -4.2190   17.9260 N.2   193  NDP193     -0.2095
     16  C5A       27.3230   -3.4000   18.7560 C.2   193  NDP193      0.2526
     17  C6A       26.8960   -2.2520   19.4610 C.2   193  NDP193      0.4393
     18  N6A       25.6220   -1.8280   19.3810 N.pl3 193  NDP193      0.2180
     19  N1A       27.8390   -1.6190   20.1420 N.2   193  NDP193      0.0021
     20  C2A       29.1070   -2.1160   20.2250 C.3   193  NDP193      0.5254
     21  N3A       29.5810   -3.1890   19.6210 N.2   193  NDP193     -0.0055
     22  C4A       28.6360   -3.7710   18.8720 C.2   193  NDP193      0.3518
     23  O3        28.4830   -8.7890   12.3050 O.3   193  NDP193     -0.2703
     24  PN        27.2580   -9.6950   11.8190 P.3   193  NDP193      0.2189
     25  O1N       27.6080  -11.1110   11.8670 O.2   193  NDP193     -0.5170
     26  O2N       25.9920   -9.3090   12.4940 O.3   193  NDP193     -0.4371
     27  O5D       27.0820   -9.2690   10.2570 O.3   193  NDP193     -0.3112
     28  C5D       27.8850   -9.9730    9.2790 C.3   193  NDP193      0.1813
     29  C4D       27.0350  -10.1640    8.0310 C.3   193  NDP193      0.1799
     30  O4D       26.7150   -8.8660    7.4390 O.3   193  NDP193     -0.3327
     31  C3D       27.8160  -10.9580    6.9330 C.3   193  NDP193      0.2158
     32  O3D       26.8990  -11.8760    6.3350 O.3   193  NDP193     -0.2175
     33  C2D       28.2850   -9.8040    6.0460 C.3   193  NDP193      0.2309
     34  O2D       28.4880  -10.2500    4.6950 O.3   193  NDP193     -0.2158
     35  C1D       27.0800   -8.8640    6.0950 C.3   193  NDP193      0.2263
     36  N1N       27.3990   -7.5020    5.5610 N.pl3 193  NDP193     -0.2787
     37  C2N       26.6330   -7.1440    4.4630 C.3   193  NDP193      0.1244
     38  C3N       26.9110   -5.9470    3.8430 C.2   193  NDP193      0.0544
     39  C7N       26.0410   -5.5760    2.5900 C.2   193  NDP193      0.2818
     40  O7N       26.1880   -4.4200    2.1760 O.2   193  NDP193     -0.2670
     41  N7N       25.1630   -6.4640    2.0980 N.am  193  NDP193     -0.0839
     42  C4N       27.8400   -4.9790    4.3220 C.2   193  NDP193      0.0033
     43  C5N       28.5650   -5.4660    5.4360 C.2   193  NDP193      0.0157
     44  C6N       28.3980   -6.6630    6.0750 C.2   193  NDP193      0.0633
     45  P2B       31.6350   -8.1600   20.2670 P.3   193  NDP193      0.5328
     46  O1X       33.1610   -8.1630   20.1900 O.3   193  NDP193     -0.1145
     47  O2X       30.9800   -7.3210   21.2590 O.3   193  NDP193     -0.1145
     48  O3X       31.0040   -9.4540   19.9570 O.2   193  NDP193     -0.2224
@<TRIPOS>BOND
     1    41    39   am
     2    40    39    2
     3    39    38    1
     4    38    42    2
     5    38    37    1
     6    42    43    1
     7    37    36    1
     8    34    33    1
     9    43    44    2
    10    36    44    1
    11    36    35    1
    12    33    35    1
    13    33    31    1
    14    35    30    1
    15    32    31    1
    16    31    29    1
    17    30    29    1
    18    29    28    1
    19    28    27    1
    20    27    24    1
    21     3     1    2
    22    24    25    2
    23    24    23    1
    24    24    26    1
    25    23     1    1
    26     1     2    1
    27     1     4    1
    28     4     5    1
    29     5     6    1
    30     6     7    1
    31     6     8    1
    32     7    12    1
    33    14    15    1
    34    14    13    1
    35     8     9    1
    36     8    10    1
    37    12    13    1
    38    12    10    1
    39    15    16    2
    40    13    22    1
    41    10    11    1
    42    16    22    1
    43    16    17    1
    44    11    45    1
    45    22    21    2
    46    18    17    1
    47    17    19    2
    48    21    20    1
    49    48    45    2
    50    19    20    1
    51    46    45    1
    52    45    47    1
