@<TRIPOS>MOLECULE
1ia1_TQ3_A_1.pdb
 19 21 0 0 0
SMALL
GASTEIGER

@<TRIPOS>ATOM
      1  C1        29.4300   -2.6870   -0.1890 C.2   194  TQ3194      0.1350
      2  C2        29.6240   -2.5650    1.1880 C.3   194  TQ3194      0.1523
      3  C3        28.6600   -1.6800    1.9010 C.2   194  TQ3194      0.2210
      4  N4        27.7010   -1.0720    1.2670 N.2   194  TQ3194     -0.3111
      5  C5        27.5830   -1.1030   -0.0650 C.1   194  TQ3194      0.2422
      6  N6        28.3450   -1.9800   -0.8340 N.2   194  TQ3194     -0.3294
      7  N7        28.6630   -1.4890    3.1940 N.pl3 194  TQ3194     -0.0962
      8  C8        30.2390   -3.5100   -0.9560 C.2   194  TQ3194      0.0294
      9  C9        31.3010   -4.2190   -0.3280 C.2   194  TQ3194      0.0025
     10  C12       31.5420   -4.0910    1.0510 C.2   194  TQ3194      0.0031
     11  C13       30.7090   -3.2660    1.7900 C.2   194  TQ3194      0.0218
     12  N14       26.6190   -0.5070   -0.7380 N.pl3 194  TQ3194     -0.0232
     13  S20       31.0990   -3.1010    3.5170 S.3   194  TQ3194     -0.0904
     14  C22       32.2290   -4.4670    3.8830 C.ar  194  TQ3194      0.0292
     15  C23       31.7890   -5.7780    3.8940 C.ar  194  TQ3194      0.0065
     16  C24       32.6810   -6.8220    4.2050 C.ar  194  TQ3194      0.0005
     17  C25       34.0140   -6.4900    4.5350 C.ar  194  TQ3194      0.0000
     18  C26       34.4620   -5.1730    4.5710 C.ar  194  TQ3194      0.0005
     19  C27       33.5670   -4.1230    4.2390 C.ar  194  TQ3194      0.0065
@<TRIPOS>BOND
     1     8     9    2
     2     8     1    1
     3     6     1    2
     4     6     5    2
     5    12     5    1
     6     9    10    1
     7     1     2    1
     8     5     4    2
     9    10    11    2
    10     2    11    1
    11     2     3    1
    12     4     3    2
    13    11    13    1
    14     3     7    1
    15    13    14    1
    16    14    15   ar
    17    14    19   ar
    18    15    16   ar
    19    16    17   ar
    20    19    18   ar
    21    17    18   ar
