@<TRIPOS>MOLECULE
1ia2_NDP_A_1.pdb
 48 52 0 0 0
SMALL
GASTEIGER

@<TRIPOS>ATOM
      1  PA        28.9130   -7.4060   12.5630 P.3   193  NDP193      0.2189
      2  O1A       27.6460   -6.7920   12.6290 O.3   193  NDP193     -0.4371
      3  O2A       29.9060   -6.9770   11.5520 O.2   193  NDP193     -0.5170
      4  O5B       29.6240   -7.6560   13.9540 O.3   193  NDP193     -0.3112
      5  C5B       28.7680   -7.8560   15.1390 C.3   193  NDP193      0.1813
      6  C4B       29.6740   -7.6490   16.3060 C.3   193  NDP193      0.1820
      7  O4B       29.8560   -6.1790   16.4350 O.3   193  NDP193     -0.3136
      8  C3B       29.1460   -8.1030   17.7140 C.3   193  NDP193      0.2157
      9  O3B       29.5100   -9.4890   17.8840 O.3   193  NDP193     -0.2175
     10  C2B       29.8640   -7.0690   18.6370 C.3   193  NDP193      0.2314
     11  O2B       31.2800   -7.2300   18.9210 O.3   193  NDP193     -0.2630
     12  C1B       29.8190   -5.8440   17.7880 C.3   193  NDP193      0.3158
     13  N9A       28.6820   -5.0270   18.0280 N.pl3 193  NDP193     -0.1439
     14  C8A       27.4350   -5.2620   17.4930 C.3   193  NDP193      0.3377
     15  N7A       26.5650   -4.3250   17.8530 N.2   193  NDP193     -0.2095
     16  C5A       27.3010   -3.5290   18.6890 C.2   193  NDP193      0.2526
     17  C6A       26.8860   -2.3650   19.3700 C.2   193  NDP193      0.4393
     18  N6A       25.6160   -1.9560   19.2820 N.pl3 193  NDP193      0.2180
     19  N1A       27.8200   -1.7660   20.1350 N.2   193  NDP193      0.0021
     20  C2A       29.0930   -2.2720   20.1610 C.3   193  NDP193      0.5254
     21  N3A       29.5830   -3.3220   19.5750 N.2   193  NDP193     -0.0055
     22  C4A       28.6040   -3.9110   18.7850 C.2   193  NDP193      0.3518
     23  O3        28.5380   -8.9310   12.1710 O.3   193  NDP193     -0.2703
     24  PN        27.2740   -9.7640   11.7810 P.3   193  NDP193      0.2189
     25  O1N       27.6660  -11.1910   11.8670 O.2   193  NDP193     -0.5170
     26  O2N       26.0210   -9.4290   12.4920 O.3   193  NDP193     -0.4371
     27  O5D       27.0380   -9.4130   10.2200 O.3   193  NDP193     -0.3112
     28  C5D       27.8270  -10.0410    9.1920 C.3   193  NDP193      0.1813
     29  C4D       26.9400  -10.2460    7.9780 C.3   193  NDP193      0.1799
     30  O4D       26.5610   -8.9720    7.3820 O.3   193  NDP193     -0.3327
     31  C3D       27.5470  -11.0940    6.8510 C.3   193  NDP193      0.2158
     32  O3D       26.5890  -11.9580    6.2490 O.3   193  NDP193     -0.2175
     33  C2D       28.0190   -9.9700    5.8940 C.3   193  NDP193      0.2309
     34  O2D       28.1510  -10.4870    4.5660 O.3   193  NDP193     -0.2158
     35  C1D       26.8840   -8.9690    6.0050 C.3   193  NDP193      0.2263
     36  N1N       27.2570   -7.6240    5.5040 N.pl3 193  NDP193     -0.2787
     37  C2N       26.5270   -7.2090    4.3670 C.3   193  NDP193      0.1244
     38  C3N       26.7890   -6.0030    3.7970 C.2   193  NDP193      0.0544
     39  C7N       25.9330   -5.6030    2.5520 C.2   193  NDP193      0.2818
     40  O7N       26.0040   -4.5400    2.0480 O.2   193  NDP193     -0.2670
     41  N7N       25.0400   -6.5600    2.0530 N.am  193  NDP193     -0.0839
     42  C4N       27.7850   -5.0990    4.3100 C.2   193  NDP193      0.0033
     43  C5N       28.4590   -5.6340    5.4250 C.2   193  NDP193      0.0157
     44  C6N       28.2490   -6.8070    6.0390 C.2   193  NDP193      0.0633
     45  P2B       31.6260   -8.2070   20.2270 P.3   193  NDP193      0.5328
     46  O1X       33.1100   -8.2600   20.1130 O.3   193  NDP193     -0.1145
     47  O2X       30.9850   -7.3380   21.2950 O.3   193  NDP193     -0.1145
     48  O3X       30.8620   -9.3950   19.9480 O.2   193  NDP193     -0.2224
@<TRIPOS>BOND
     1    40    39    2
     2    41    39   am
     3    39    38    1
     4    38    42    2
     5    38    37    1
     6    42    43    1
     7    37    36    1
     8    34    33    1
     9    43    44    2
    10    36    35    1
    11    36    44    1
    12    33    35    1
    13    33    31    1
    14    35    30    1
    15    32    31    1
    16    31    29    1
    17    30    29    1
    18    29    28    1
    19    28    27    1
    20    27    24    1
    21     3     1    2
    22    24    25    2
    23    24    23    1
    24    24    26    1
    25    23     1    1
    26     1     2    1
    27     1     4    1
    28     4     5    1
    29     5     6    1
    30     6     7    1
    31     6     8    1
    32     7    12    1
    33    14    15    1
    34    14    13    1
    35     8     9    1
    36     8    10    1
    37    12    13    1
    38    12    10    1
    39    15    16    2
    40    13    22    1
    41    10    11    1
    42    16    22    1
    43    16    17    1
    44    22    21    2
    45    11    45    1
    46    18    17    1
    47    17    19    2
    48    21    20    1
    49    48    45    2
    50    46    45    1
    51    19    20    1
    52    45    47    1
