@<TRIPOS>MOLECULE
1ia2_TQ4_A_1.pdb
 20 22 0 0 0
SMALL
GASTEIGER

@<TRIPOS>ATOM
      1  C1        29.3960   -2.8620   -0.2650 C.2   194  TQ4194      0.1350
      2  C2        29.5750   -2.7480    1.1330 C.3   194  TQ4194      0.1523
      3  C3        28.5970   -1.8430    1.8200 C.2   194  TQ4194      0.2210
      4  N4        27.6850   -1.2250    1.2210 N.2   194  TQ4194     -0.3111
      5  C5        27.5320   -1.2900   -0.1270 C.1   194  TQ4194      0.2422
      6  N6        28.3390   -2.1380   -0.8960 N.2   194  TQ4194     -0.3294
      7  N7        28.5700   -1.5930    3.1470 N.pl3 194  TQ4194     -0.0962
      8  C8        30.2470   -3.6450   -1.0620 C.2   194  TQ4194      0.0294
      9  C9        31.2730   -4.3400   -0.4530 C.2   194  TQ4194      0.0025
     10  C12       31.5020   -4.2140    0.9160 C.2   194  TQ4194      0.0031
     11  C13       30.6590   -3.4200    1.6960 C.2   194  TQ4194      0.0218
     12  N14       26.6140   -0.6440   -0.7690 N.pl3 194  TQ4194     -0.0232
     13  S20       31.1110   -3.2900    3.4040 S.3   194  TQ4194     -0.0904
     14  C22       32.0570   -4.7120    3.7310 C.ar  194  TQ4194      0.0292
     15  C23       31.4470   -5.9640    3.7030 C.ar  194  TQ4194      0.0061
     16  C24       32.2060   -7.0900    4.0340 C.ar  194  TQ4194     -0.0037
     17  C25       33.5360   -6.9920    4.4260 C.ar  194  TQ4194     -0.0218
     18  C26       34.1070   -5.7270    4.5140 C.ar  194  TQ4194     -0.0037
     19  C27       33.3770   -4.5850    4.1630 C.ar  194  TQ4194      0.0061
     20  C32       34.3270   -8.2530    4.8170 C.3   194  TQ4194      0.0310
@<TRIPOS>BOND
     1     8     9    2
     2     8     1    1
     3     6     1    2
     4     6     5    2
     5    12     5    1
     6     9    10    1
     7     1     2    1
     8     5     4    2
     9    10    11    2
    10     2    11    1
    11     2     3    1
    12     4     3    2
    13    11    13    1
    14     3     7    1
    15    13    14    1
    16    15    14   ar
    17    15    16   ar
    18    14    19   ar
    19    16    17   ar
    20    19    18   ar
    21    17    18   ar
    22    17    20    1
