@<TRIPOS>MOLECULE
1ia2_MES_A_1.pdb
 12 12 0 0 0
SMALL
GASTEIGER

@<TRIPOS>ATOM
      1  O1        34.8880   -6.9280    1.3480 O.3   201  MES201     -0.3508
      2  C2        36.2590   -6.3640    1.8260 C.3   201  MES201      0.1595
      3  C3        36.3260   -4.8420    1.5070 C.3   201  MES201      0.1047
      4  N4        36.2110   -4.5950   -0.0130 N.3   201  MES201     -0.2670
      5  C5        34.9760   -5.2990   -0.6090 C.3   201  MES201      0.1047
      6  C6        34.8060   -6.7720   -0.2000 C.3   201  MES201      0.1595
      7  C7        36.2330   -3.1000   -0.3780 C.3   201  MES201      0.0940
      8  C8        37.4560   -2.2910   -0.0220 C.3   201  MES201      0.1225
      9  S         37.4470   -1.0390   -0.6680 S.3   201  MES201     -0.1946
     10  O1S       36.5620   -0.0700   -0.1080 O.3   201  MES201     -0.3074
     11  O2S       38.7880   -0.4380   -0.4350 O.3   201  MES201     -0.3074
     12  O3S       37.2520   -1.1530   -2.1070 O.3   201  MES201     -0.3074
@<TRIPOS>BOND
     1    12     9    1
     2     9    11    1
     3     9    10    1
     4     9     8    1
     5     5     6    1
     6     5     4    1
     7     7     8    1
     8     7     4    1
     9     6     1    1
    10     4     3    1
    11     1     2    1
    12     3     2    1
