@<TRIPOS>MOLECULE
1ia3_NDP_A_1.pdb
 35 37 0 0 0
SMALL
GASTEIGER

@<TRIPOS>ATOM
      1  PA        28.7150   -7.4430   12.7390 P.3   193  NDP193      0.2189
      2  O1A       27.5200   -6.7040   12.8250 O.3   193  NDP193     -0.4371
      3  O2A       29.7820   -6.9950   11.8370 O.2   193  NDP193     -0.5170
      4  O5B       29.4510   -7.5840   14.1940 O.3   193  NDP193     -0.3112
      5  C5B       28.5960   -7.8420   15.3360 C.3   193  NDP193      0.1813
      6  C4B       29.5360   -7.5290   16.5340 C.3   193  NDP193      0.1820
      7  O4B       29.7260   -6.1140   16.6110 O.3   193  NDP193     -0.3136
      8  C3B       28.8940   -7.9300   17.8890 C.3   193  NDP193      0.2157
      9  O3B       29.2150   -9.3290   18.0850 O.3   193  NDP193     -0.2175
     10  C2B       29.6700   -6.9310   18.8150 C.3   193  NDP193      0.2314
     11  O2B       31.0800   -7.2330   18.9570 O.3   193  NDP193     -0.2630
     12  C1B       29.6970   -5.6810   17.9240 C.3   193  NDP193      0.3158
     13  N9A       28.5450   -4.8930   18.1670 N.pl3 193  NDP193     -0.1439
     14  C8A       27.3120   -5.1660   17.6090 C.3   193  NDP193      0.3377
     15  N7A       26.3940   -4.2850   17.9850 N.2   193  NDP193     -0.2095
     16  C5A       27.1110   -3.4220   18.7830 C.2   193  NDP193      0.2526
     17  C6A       26.6280   -2.2990   19.4760 C.2   193  NDP193      0.4393
     18  N6A       25.3390   -1.9060   19.3600 N.pl3 193  NDP193      0.2180
     19  N1A       27.5550   -1.6370   20.2220 N.2   193  NDP193      0.0021
     20  C2A       28.8440   -2.1200   20.2650 C.3   193  NDP193      0.5254
     21  N3A       29.3550   -3.1740   19.6880 N.2   193  NDP193     -0.0055
     22  C4A       28.4070   -3.7780   18.9230 C.2   193  NDP193      0.3518
     23  O3        28.4570   -8.9660   12.4190 O.3   193  NDP193     -0.2703
     24  PN        27.1820   -9.7560   11.8580 P.3   193  NDP193      0.2189
     25  O1N       27.0950   -9.4650   10.3850 O.2   193  NDP193     -0.5170
     26  O2N       25.9400   -9.4670   12.5850 O.3   193  NDP193     -0.4371
     27  O5D       27.5900  -11.2830   12.0630 O.3   193  NDP193     -0.3112
     28  C5D       28.2360  -12.0430   11.0370 C.3   193  NDP193      0.1818
     29  C4D       28.1700  -13.5230   11.4840 C.3   193  NDP193      0.1819
     30  O4D       26.8240  -14.0340   11.2710 O.3   193  NDP193     -0.2204
     31  C3D       29.1910  -14.4330   10.8890 C.3   193  NDP193      0.0382
     32  P2B       31.3920   -8.1050   20.3200 P.3   193  NDP193      0.5328
     33  O1X       32.9310   -8.1040   20.2880 O.3   193  NDP193     -0.1145
     34  O2X       30.6860   -7.4370   21.3880 O.3   193  NDP193     -0.1145
     35  O3X       30.8300   -9.4520   20.0470 O.2   193  NDP193     -0.2224
@<TRIPOS>BOND
     1    25    24    2
     2    31    29    1
     3    28    29    1
     4    28    27    1
     5    30    29    1
     6     3     1    2
     7    24    27    1
     8    24    23    1
     9    24    26    1
    10    23     1    1
    11     1     2    1
    12     1     4    1
    13     4     5    1
    14     5     6    1
    15     6     7    1
    16     6     8    1
    17     7    12    1
    18    14    15    1
    19    14    13    1
    20     8     9    1
    21     8    10    1
    22    12    13    1
    23    12    10    1
    24    15    16    2
    25    13    22    1
    26    16    22    1
    27    16    17    1
    28    10    11    1
    29    22    21    2
    30    11    32    1
    31    18    17    1
    32    17    19    2
    33    21    20    1
    34    35    32    2
    35    19    20    1
    36    33    32    1
    37    32    34    1
