@<TRIPOS>MOLECULE
1ia3_TQ5_A_1.pdb
 23 25 0 0 0
SMALL
GASTEIGER

@<TRIPOS>ATOM
      1  C1        29.1070   -2.8640   -0.1870 C.2   194  TQ5194      0.1350
      2  C2        29.2470   -2.8150    1.2180 C.3   194  TQ5194      0.1523
      3  C3        28.2450   -1.9500    1.9060 C.2   194  TQ5194      0.2210
      4  N4        27.3290   -1.3160    1.2870 N.2   194  TQ5194     -0.3111
      5  C5        27.2550   -1.2720   -0.0570 C.1   194  TQ5194      0.2422
      6  N6        28.0390   -2.1500   -0.8210 N.2   194  TQ5194     -0.3294
      7  N7        28.2430   -1.7000    3.2330 N.pl3 194  TQ5194     -0.0962
      8  C8        30.0090   -3.6240   -0.9610 C.2   194  TQ5194      0.0294
      9  C9        30.9920   -4.3650   -0.3670 C.2   194  TQ5194      0.0025
     10  C12       31.1850   -4.3370    1.0140 C.2   194  TQ5194      0.0031
     11  C13       30.2730   -3.5730    1.7970 C.2   194  TQ5194      0.0218
     12  N14       26.2830   -0.6280   -0.6730 N.pl3 194  TQ5194     -0.0232
     13  S20       30.6450   -3.6130    3.5340 S.3   194  TQ5194     -0.0904
     14  C22       29.5690   -4.9680    4.0870 C.ar  194  TQ5194      0.0292
     15  C23       28.4710   -5.5250    3.4530 C.ar  194  TQ5194      0.0061
     16  C24       27.6250   -6.5220    3.9180 C.ar  194  TQ5194     -0.0038
     17  C25       27.9080   -7.1600    5.2060 C.ar  194  TQ5194     -0.0228
     18  C26       28.9660   -6.5890    5.8360 C.ar  194  TQ5194     -0.0038
     19  C27       29.8140   -5.5730    5.3470 C.ar  194  TQ5194      0.0061
     20  C32       27.0950   -8.3620    5.6440 C.3   194  TQ5194      0.0189
     21  C33       27.2090   -8.8590    7.0900 C.3   194  TQ5194      0.0044
     22  C37       25.6360   -8.0800    5.3270 C.3   194  TQ5194      0.0044
     23  C41       27.5570   -9.6810    4.8530 C.3   194  TQ5194      0.0044
@<TRIPOS>BOND
     1     8     9    2
     2     8     1    1
     3     6     1    2
     4     6     5    2
     5    12     5    1
     6     9    10    1
     7     1     2    1
     8     5     4    2
     9    10    11    2
    10     2    11    1
    11     2     3    1
    12     4     3    2
    13    11    13    1
    14     3     7    1
    15    15    16   ar
    16    15    14   ar
    17    13    14    1
    18    16    17   ar
    19    14    19   ar
    20    23    20    1
    21    17    20    1
    22    17    18   ar
    23    22    20    1
    24    19    18   ar
    25    20    21    1
