@<TRIPOS>MOLECULE
1ia3_MES_A_1.pdb
 12 12 0 0 0
SMALL
GASTEIGER

@<TRIPOS>ATOM
      1  O1        34.1030   -6.6000    2.3040 O.3   201  MES201     -0.3501
      2  C2        34.4960   -5.3520    3.1430 C.3   201  MES201      0.1636
      3  C3        34.8150   -4.1150    2.2980 C.3   201  MES201      0.1231
      4  N4        35.6950   -4.3440    1.0730 N.pl3 201  MES201     -0.3008
      5  C5        35.1820   -5.5800    0.2420 C.3   201  MES201      0.1231
      6  C6        35.1730   -6.8320    1.1960 C.3   201  MES201      0.1636
      7  C7        35.9810   -3.1390    0.1810 C.2   201  MES201      0.0778
      8  C8        37.1420   -2.2390    0.4410 C.2   201  MES201      0.0937
      9  S         37.2300   -1.0920   -0.3990 S.3   201  MES201     -0.1745
     10  O1S       36.3760   -0.0380   -0.0370 O.3   201  MES201     -0.3032
     11  O2S       38.6450   -0.6680   -0.2850 O.3   201  MES201     -0.3032
     12  O3S       37.0380   -1.3950   -1.8200 O.3   201  MES201     -0.3032
@<TRIPOS>BOND
     1    12     9    1
     2     9    11    1
     3     9    10    1
     4     9     8    1
     5     7     8    2
     6     7     4    1
     7     5     4    1
     8     5     6    1
     9     4     3    1
    10     6     1    1
    11     3     2    1
    12     1     2    1
