@<TRIPOS>MOLECULE
1ia4_TQ6_A_1.pdb
 25 28 0 0 0
SMALL
GASTEIGER

@<TRIPOS>ATOM
      1  C1        28.2080   -1.9140    1.8080 C.2   194  TQ6194      0.2210
      2  N2        27.2680   -1.2620    1.1600 N.2   194  TQ6194     -0.3111
      3  C3        27.1980   -1.2900   -0.1770 C.1   194  TQ6194      0.2422
      4  N4        27.9860   -2.1170   -0.9200 N.2   194  TQ6194     -0.3294
      5  C5        31.1010   -4.3180    0.9320 C.2   194  TQ6194      0.0031
      6  C6        30.2360   -3.5400    1.6960 C.2   194  TQ6194      0.0218
      7  C7        29.2070   -2.7570    1.1470 C.3   194  TQ6194      0.1523
      8  C8        29.0480   -2.8920   -0.2650 C.2   194  TQ6194      0.1350
      9  C9        29.9430   -3.6210   -1.0330 C.2   194  TQ6194      0.0294
     10  C10       30.9490   -4.3750   -0.4630 C.2   194  TQ6194      0.0025
     11  N11       26.2440   -0.6230   -0.8080 N.pl3 194  TQ6194     -0.0232
     12  N12       28.0870   -1.6320    3.1010 N.pl3 194  TQ6194     -0.0962
     13  S21       30.6280   -3.5080    3.4350 S.3   194  TQ6194     -0.0904
     14  C22       29.5770   -4.8520    3.9910 C.ar  194  TQ6194      0.0293
     15  C23       28.4450   -5.3280    3.3540 C.ar  194  TQ6194      0.0077
     16  C24       27.6620   -6.3630    3.8190 C.ar  194  TQ6194      0.0150
     17  C25       27.9460   -6.9960    5.0870 C.ar  194  TQ6194      0.0480
     18  C26       29.0520   -6.4980    5.7420 C.ar  194  TQ6194      0.0150
     19  C27       29.8720   -5.4950    5.2210 C.ar  194  TQ6194      0.0077
     20  C32       25.9380   -9.4330    7.1550 C.3   194  TQ6194      0.1636
     21  C33       26.0910   -8.2470    6.2580 C.3   194  TQ6194      0.1231
     22  N34       27.2630   -8.0820    5.4700 N.pl3 194  TQ6194     -0.3028
     23  C35       28.0130   -9.3910    5.1450 C.3   194  TQ6194      0.1231
     24  C36       27.0390  -10.5310    5.4590 C.3   194  TQ6194      0.1636
     25  O37       26.8680  -10.4470    6.8910 O.3   194  TQ6194     -0.3501
@<TRIPOS>BOND
     1     9    10    2
     2     9     8    1
     3     4     8    2
     4     4     3    2
     5    11     3    1
     6    10     5    1
     7     8     7    1
     8     3     2    2
     9     5     6    2
    10     7     6    1
    11     7     1    1
    12     2     1    2
    13     6    13    1
    14     1    12    1
    15    15    16   ar
    16    15    14   ar
    17    13    14    1
    18    16    17   ar
    19    14    19   ar
    20    17    22    1
    21    17    18   ar
    22    23    24    1
    23    23    22    1
    24    19    18   ar
    25    24    25    1
    26    22    21    1
    27    21    20    1
    28    25    20    1
