@<TRIPOS>MOLECULE
1ia4_MES_A_1.pdb
 12 12 0 0 0
SMALL
GASTEIGER

@<TRIPOS>ATOM
      1  O1        33.7030   -6.3340    2.6900 O.3   201  MES201     -0.3508
      2  C2        34.3310   -5.1100    3.3630 C.3   201  MES201      0.1595
      3  C3        34.7330   -3.9860    2.4190 C.3   201  MES201      0.1047
      4  N4        35.5470   -4.4240    1.2020 N.3   201  MES201     -0.2670
      5  C5        34.8430   -5.6220    0.4810 C.3   201  MES201      0.1047
      6  C6        34.5150   -6.7770    1.4490 C.3   201  MES201      0.1595
      7  C7        35.8660   -3.3040    0.1830 C.3   201  MES201      0.0940
      8  C8        36.6990   -2.1280    0.6570 C.3   201  MES201      0.1225
      9  S         36.8130   -1.1040   -0.3040 S.3   201  MES201     -0.1946
     10  O1S       36.0530    0.0510   -0.0390 O.3   201  MES201     -0.3074
     11  O2S       38.2090   -0.6350   -0.3830 O.3   201  MES201     -0.3074
     12  O3S       36.4770   -1.6250   -1.6550 O.3   201  MES201     -0.3074
@<TRIPOS>BOND
     1    12     9    1
     2    11     9    1
     3     9    10    1
     4     9     8    1
     5     7     8    1
     6     7     4    1
     7     5     4    1
     8     5     6    1
     9     4     3    1
    10     6     1    1
    11     3     2    1
    12     1     2    1
