@<TRIPOS>MOLECULE
1ia4_NDP_A_1.pdb
 35 37 0 0 0
SMALL
GASTEIGER

@<TRIPOS>ATOM
      1  PA        28.6390   -7.4380   12.7040 P.3   193  NDP193      0.2189
      2  O1A       27.4290   -6.6400   12.7600 O.3   193  NDP193     -0.4371
      3  O2A       29.7010   -6.9520   11.7880 O.2   193  NDP193     -0.5170
      4  O5B       29.3170   -7.5100   14.1950 O.3   193  NDP193     -0.3112
      5  C5B       28.4730   -7.7640   15.3390 C.3   193  NDP193      0.1813
      6  C4B       29.3940   -7.4710   16.5530 C.3   193  NDP193      0.1820
      7  O4B       29.5100   -6.0640   16.6430 O.3   193  NDP193     -0.3136
      8  C3B       28.6800   -7.8510   17.9020 C.3   193  NDP193      0.2157
      9  O3B       28.8350   -9.2560   17.9790 O.3   193  NDP193     -0.2175
     10  C2B       29.5470   -6.9370   18.8470 C.3   193  NDP193      0.2314
     11  O2B       30.9480   -7.2550   18.9670 O.3   193  NDP193     -0.2630
     12  C1B       29.6220   -5.6820   17.9960 C.3   193  NDP193      0.3158
     13  N9A       28.5070   -4.8470   18.2370 N.pl3 193  NDP193     -0.1439
     14  C8A       27.2980   -5.1400   17.6650 C.3   193  NDP193      0.3377
     15  N7A       26.3800   -4.2760   17.9990 N.2   193  NDP193     -0.2095
     16  C5A       27.0560   -3.3930   18.8010 C.2   193  NDP193      0.2526
     17  C6A       26.5480   -2.2700   19.4730 C.2   193  NDP193      0.4393
     18  N6A       25.2480   -1.9090   19.3320 N.pl3 193  NDP193      0.2180
     19  N1A       27.4570   -1.5740   20.1880 N.2   193  NDP193      0.0021
     20  C2A       28.7280   -2.0890   20.3210 C.3   193  NDP193      0.5254
     21  N3A       29.2580   -3.1390   19.7630 N.2   193  NDP193     -0.0055
     22  C4A       28.3650   -3.7430   18.9590 C.2   193  NDP193      0.3518
     23  O3        28.3650   -8.9140   12.4090 O.3   193  NDP193     -0.2703
     24  PN        27.1210   -9.7970   11.8140 P.3   193  NDP193      0.2189
     25  O1N       27.0270   -9.4250   10.3600 O.2   193  NDP193     -0.5170
     26  O2N       25.9130   -9.4960   12.5600 O.3   193  NDP193     -0.4371
     27  O5D       27.6500  -11.2730   11.9380 O.3   193  NDP193     -0.3112
     28  C5D       27.3140  -12.3700   11.0780 C.3   193  NDP193      0.1818
     29  C4D       27.5840  -13.7380   11.6810 C.3   193  NDP193      0.1819
     30  O4D       26.3820  -14.5610   11.5900 O.3   193  NDP193     -0.2204
     31  C3D       28.7410  -14.5500   11.1080 C.3   193  NDP193      0.0382
     32  P2B       31.3070   -8.1850   20.3640 P.3   193  NDP193      0.5328
     33  O1X       32.8040   -8.2420   20.0890 O.3   193  NDP193     -0.1145
     34  O2X       30.6740   -7.3650   21.3520 O.3   193  NDP193     -0.1145
     35  O3X       30.6690   -9.4700   20.0690 O.2   193  NDP193     -0.2224
@<TRIPOS>BOND
     1    25    24    2
     2    28    29    1
     3    28    27    1
     4    31    29    1
     5    30    29    1
     6     3     1    2
     7    24    27    1
     8    24    23    1
     9    24    26    1
    10    23     1    1
    11     1     2    1
    12     1     4    1
    13     4     5    1
    14     5     6    1
    15     6     7    1
    16     6     8    1
    17     7    12    1
    18    14    15    1
    19    14    13    1
    20     8     9    1
    21     8    10    1
    22    12    13    1
    23    12    10    1
    24    15    16    2
    25    13    22    1
    26    16    22    1
    27    16    17    1
    28    10    11    1
    29    22    21    2
    30    11    32    1
    31    18    17    1
    32    17    19    2
    33    21    20    1
    34    35    32    2
    35    33    32    1
    36    19    20    1
    37    32    34    1
