@<TRIPOS>MOLECULE
1ia5_MAN_A_1.pdb
 11 11 0 0 0
SMALL
GASTEIGER

@<TRIPOS>ATOM
      1  C1       101.4290   -4.4970    9.1840 C.3   405  MAN405      0.1777
      2  C2       102.4360   -3.3790    8.9650 C.3   405  MAN405      0.2141
      3  C3       102.2940   -2.7980    7.5670 C.3   405  MAN405      0.2173
      4  C4       102.0620   -3.8140    6.4530 C.3   405  MAN405      0.2142
      5  C5       101.3590   -5.1370    6.8560 C.3   405  MAN405      0.1810
      6  C6       101.7410   -6.2920    5.9310 C.3   405  MAN405      0.2141
      7  O2       103.7810   -3.7670    9.2310 O.3   405  MAN405     -0.2176
      8  O3       103.4290   -1.9740    7.2880 O.3   405  MAN405     -0.2175
      9  O4       101.2550   -3.2210    5.4440 O.3   405  MAN405     -0.2176
     10  O5       101.6260   -5.5410    8.2140 O.3   405  MAN405     -0.3481
     11  O6       100.5540   -6.7380    5.2490 O.3   405  MAN405     -0.2176
@<TRIPOS>BOND
     1    11     6    1
     2     9     4    1
     3     6     5    1
     4     4     5    1
     5     4     3    1
     6     5    10    1
     7     8     3    1
     8     3     2    1
     9    10     1    1
    10     2     1    1
    11     2     7    1
