@<TRIPOS>MOLECULE
1ia7_BGC_A_1.pdb
 11 11 0 0 0
SMALL
GASTEIGER

@<TRIPOS>ATOM
      1  C2         7.9460   18.7070   35.5420 C.3   442  BGC442      0.2141
      2  C3         8.0970   19.8490   36.5510 C.3   442  BGC442      0.2173
      3  C4         9.0190   20.9410   35.9970 C.3   442  BGC442      0.2142
      4  C5         8.5420   21.3770   34.6070 C.3   442  BGC442      0.1810
      5  C6         9.4730   22.3930   33.9660 C.3   442  BGC442      0.2141
      6  C1         7.5310   19.2510   34.1700 C.3   442  BGC442      0.1777
      7  O2         6.9620   17.7970   36.0080 O.3   442  BGC442     -0.2176
      8  O3         8.6250   19.3420   37.7690 O.3   442  BGC442     -0.2175
      9  O4         9.0110   22.0610   36.8710 O.3   442  BGC442     -0.2176
     10  O5         8.4740   20.2360   33.7240 O.3   442  BGC442     -0.3481
     11  O6        10.7770   21.8590   33.7910 O.3   442  BGC442     -0.2176
@<TRIPOS>BOND
     1    10     6    1
     2    10     4    1
     3    11     5    1
     4     5     4    1
     5     6     1    1
     6     4     3    1
     7     1     7    1
     8     1     2    1
     9     3     2    1
    10     3     9    1
    11     2     8    1
