@<TRIPOS>MOLECULE
1ia9_ANP_A_1.pdb
 31 33 0 0 0
SMALL
GASTEIGER

@<TRIPOS>ATOM
      1  PG        34.1260   87.7460   88.6260 P.3   2002  ANP2002     0.4884
      2  O1G       33.2820   87.6870   87.3980 O.2   2002  ANP2002    -0.2331
      3  O2G       35.0250   89.0820   88.7070 O.3   2002  ANP2002    -0.1240
      4  O3G       33.2630   87.6610   89.8370 O.3   2002  ANP2002    -0.1240
      5  PB        34.9490   85.0770   88.4780 P.3   2002  ANP2002     0.4669
      6  O1B       34.8500   84.4760   89.8250 O.3   2002  ANP2002    -0.1253
      7  O2B       33.6390   84.7920   87.5410 O.2   2002  ANP2002    -0.2351
      8  N3B       35.1380   86.5710   88.5570 N.3   2002  ANP2002    -0.0163
      9  PA        37.5970   83.8940   87.6600 P.3   2002  ANP2002     0.2220
     10  O1A       37.6920   82.4100   87.6070 O.3   2002  ANP2002    -0.4370
     11  O2A       38.1020   84.5120   86.4330 O.2   2002  ANP2002    -0.5170
     12  O3A       36.0660   84.2920   87.6970 O.3   2002  ANP2002    -0.2360
     13  O5'       38.3940   84.5110   88.9250 O.3   2002  ANP2002    -0.3111
     14  C5'       38.1980   84.0730   90.2660 C.3   2002  ANP2002     0.1813
     15  C4'       39.5570   84.1950   91.0270 C.3   2002  ANP2002     0.1821
     16  O4'       40.6320   83.4040   90.4170 O.3   2002  ANP2002    -0.3135
     17  C3'       40.1170   85.6070   91.1000 C.3   2002  ANP2002     0.2184
     18  O3'       39.6750   86.3460   92.2270 O.3   2002  ANP2002    -0.2174
     19  C2'       41.6290   85.4550   91.1300 C.3   2002  ANP2002     0.2570
     20  O2'       42.1590   85.2440   92.4470 O.3   2002  ANP2002    -0.2130
     21  C1'       41.8430   84.2290   90.2490 C.3   2002  ANP2002     0.3186
     22  N9        42.2070   84.5670   88.7850 N.pl3 2002  ANP2002    -0.1439
     23  C8        41.3430   84.7730   87.7830 C.3   2002  ANP2002     0.3377
     24  N7        42.0070   85.0300   86.6520 N.2   2002  ANP2002    -0.2095
     25  C5        43.2900   84.9890   86.8920 C.2   2002  ANP2002     0.2526
     26  C6        44.4630   85.1680   86.1300 C.2   2002  ANP2002     0.4393
     27  N6        44.4000   85.4360   84.8150 N.pl3 2002  ANP2002     0.2180
     28  N1        45.6900   85.0550   86.7180 N.2   2002  ANP2002     0.0021
     29  C2        45.8160   84.7810   88.0390 C.3   2002  ANP2002     0.5254
     30  N3        44.6990   84.6090   88.7820 N.2   2002  ANP2002    -0.0055
     31  C4        43.4410   84.7000   88.2710 C.2   2002  ANP2002     0.3518
@<TRIPOS>BOND
     1    27    26    1
     2    26    28    2
     3    26    25    1
     4    11     9    2
     5    24    25    2
     6    24    23    1
     7    28    29    1
     8    25    31    1
     9     2     1    2
    10     7     5    2
    11    10     9    1
    12     9    12    1
    13     9    13    1
    14    12     5    1
    15    23    22    1
    16    29    30    1
    17    31    30    2
    18    31    22    1
    19     5     8    1
    20     5     6    1
    21     8     1    1
    22     1     3    1
    23     1     4    1
    24    22    21    1
    25    13    14    1
    26    21    16    1
    27    21    19    1
    28    14    15    1
    29    16    15    1
    30    15    17    1
    31    17    19    1
    32    17    18    1
    33    19    20    1
