@<TRIPOS>MOLECULE
1iah_ADP_A_1.pdb
 27 29 0 0 0
SMALL
GASTEIGER

@<TRIPOS>ATOM
      1  PB        34.8360   84.4600   88.5020 P.3   2002  ADP2002     0.5373
      2  O1B       34.6950   85.2610   89.7720 O.3   2002  ADP2002    -0.1143
      3  O2B       33.5790   83.5130   88.1710 O.3   2002  ADP2002    -0.1143
      4  O3B       35.0960   85.3860   87.3480 O.2   2002  ADP2002    -0.2221
      5  PA        37.3960   83.1690   87.9940 P.3   2002  ADP2002     0.2231
      6  O1A       37.4500   81.7260   87.6840 O.3   2002  ADP2002    -0.4370
      7  O2A       37.5220   83.9840   86.7820 O.2   2002  ADP2002    -0.5169
      8  O3A       36.0290   83.4680   88.7270 O.3   2002  ADP2002    -0.2261
      9  O5'       38.4870   83.5750   89.1040 O.3   2002  ADP2002    -0.3111
     10  C5'       38.5310   82.8900   90.3660 C.3   2002  ADP2002     0.1813
     11  C4'       39.8310   83.2200   91.1370 C.3   2002  ADP2002     0.1821
     12  O4'       40.9820   82.6260   90.4880 O.3   2002  ADP2002    -0.3135
     13  C3'       40.1390   84.7160   91.2710 C.3   2002  ADP2002     0.2184
     14  O3'       39.7150   85.2560   92.5290 O.3   2002  ADP2002    -0.2174
     15  C2'       41.6600   84.8260   91.1440 C.3   2002  ADP2002     0.2570
     16  O2'       42.3430   84.8610   92.4120 O.3   2002  ADP2002    -0.2130
     17  C1'       42.0230   83.6220   90.2850 C.3   2002  ADP2002     0.3186
     18  N9        42.2690   83.9650   88.8000 N.pl3 2002  ADP2002    -0.1439
     19  C8        41.3320   84.1710   87.8460 C.3   2002  ADP2002     0.3377
     20  N7        41.9210   84.4400   86.6760 N.2   2002  ADP2002    -0.2095
     21  C5        43.2230   84.4070   86.8510 C.2   2002  ADP2002     0.2526
     22  C6        44.3480   84.5970   86.0320 C.2   2002  ADP2002     0.4393
     23  N6        44.1880   84.8710   84.7220 N.pl3 2002  ADP2002     0.2180
     24  N1        45.6260   84.4940   86.5600 N.2   2002  ADP2002     0.0021
     25  C2        45.8340   84.2120   87.8720 C.3   2002  ADP2002     0.5254
     26  N3        44.7540   84.0250   88.6610 N.2   2002  ADP2002    -0.0055
     27  C4        43.4600   84.1140   88.2150 C.2   2002  ADP2002     0.3518
@<TRIPOS>BOND
     1    23    22    1
     2    22    24    2
     3    22    21    1
     4    24    25    1
     5    20    21    2
     6    20    19    1
     7     7     5    2
     8    21    27    1
     9     4     1    2
    10     6     5    1
    11    19    18    1
    12    25    26    1
    13     5     8    1
    14     5     9    1
    15     3     1    1
    16    27    26    2
    17    27    18    1
    18     1     8    1
    19     1     2    1
    20    18    17    1
    21     9    10    1
    22    17    12    1
    23    17    15    1
    24    10    11    1
    25    12    11    1
    26    11    13    1
    27    15    13    1
    28    15    16    1
    29    13    14    1
