@<TRIPOS>MOLECULE
1ian_D13_A_1.pdb
 27 30 0 0 0
SMALL
GASTEIGER

@<TRIPOS>ATOM
      1  C1        34.0090   34.5500   21.3230 C.1   391  D13391      0.1379
      2  N2        34.0950   35.6360   22.1010 N.2   391  D13391     -0.3372
      3  C3        34.9930   36.3490   21.5070 C.2   391  D13391      0.1741
      4  C4        35.4280   35.6830   20.4090 C.2   391  D13391      0.1740
      5  N5        34.8090   34.5090   20.2510 N.2   391  D13391     -0.3372
      6  C6        35.2580   37.8860   21.9000 C.ar  391  D13391      0.0362
      7  C7        35.5740   38.2380   23.1690 C.ar  391  D13391      0.0233
      8  C8        35.8670   39.5700   23.4990 C.ar  391  D13391      0.0990
      9  N9        35.8260   40.5260   22.5090 N.ar  391  D13391     -0.2423
     10  C10       35.4970   40.1520   21.2250 C.ar  391  D13391      0.0990
     11  C11       35.2140   38.8240   20.9380 C.ar  391  D13391      0.0233
     12  C12       36.5160   36.1380   19.4280 C.ar  391  D13391      0.0335
     13  C13       36.2870   35.9170   18.1070 C.ar  391  D13391      0.0084
     14  C14       37.2360   36.1990   17.1960 C.ar  391  D13391      0.0301
     15  I14       36.8940   35.8550   15.1540 I     391  D13391     -0.0425
     16  C15       38.4150   36.7030   17.5860 C.ar  391  D13391      0.0058
     17  C16       38.6600   36.9350   18.9170 C.ar  391  D13391      0.0005
     18  C17       37.6890   36.6440   19.8500 C.ar  391  D13391      0.0027
     19  C18       32.9900   33.4310   21.7080 C.ar  391  D13391      0.0856
     20  C19       33.1000   32.2240   21.1820 C.ar  391  D13391      0.0126
     21  C20       32.1920   31.2110   21.5560 C.ar  391  D13391      0.0094
     22  C21       31.1820   31.4770   22.4490 C.ar  391  D13391      0.0562
     23  C22       31.0770   32.7020   22.9690 C.ar  391  D13391      0.0094
     24  C23       31.9930   33.6870   22.5880 C.ar  391  D13391      0.0126
     25  S24       30.0720   30.1220   22.8610 S.O   391  D13391      0.0658
     26  O24       28.7000   30.5250   22.8510 O.2   391  D13391     -0.2514
     27  C25       30.6460   29.2480   24.2640 C.3   391  D13391      0.1110
@<TRIPOS>BOND
     1    15    14    1
     2    14    16   ar
     3    14    13   ar
     4    16    17   ar
     5    13    12   ar
     6    17    18   ar
     7    12    18   ar
     8    12     4    1
     9     5     4    2
    10     5     1    2
    11     4     3    1
    12    11    10   ar
    13    11     6   ar
    14    20    21   ar
    15    20    19   ar
    16    10     9   ar
    17     1    19    1
    18     1     2    2
    19     3     6    1
    20     3     2    2
    21    21    22   ar
    22    19    24   ar
    23     6     7   ar
    24    22    25    1
    25    22    23   ar
    26     9     8   ar
    27    24    23   ar
    28    26    25    2
    29    25    27    1
    30     7     8   ar
