@<TRIPOS>MOLECULE
1iaq_GNP_A_1.pdb
 32 34 0 0 0
SMALL
GASTEIGER

@<TRIPOS>ATOM
      1  PG        23.0990   20.7860   34.1680 P.3   167  GNP167      0.4884
      2  O1G       23.3170   21.8640   33.1830 O.2   167  GNP167     -0.2331
      3  O2G       22.4940   21.3220   35.3970 O.3   167  GNP167     -0.1240
      4  O3G       24.5250   20.3770   34.6170 O.3   167  GNP167     -0.1240
      5  N3B       22.3430   19.4680   33.5380 N.3   167  GNP167     -0.0163
      6  PB        21.0700   18.7070   34.2560 P.3   167  GNP167      0.4669
      7  O1B       21.4100   17.4380   34.8910 O.2   167  GNP167     -0.2351
      8  O2B       20.2450   19.5810   35.0950 O.3   167  GNP167     -0.1253
      9  O3A       20.0880   18.2930   33.0860 O.3   167  GNP167     -0.2360
     10  PA        18.5440   18.7240   32.9560 P.3   167  GNP167      0.2220
     11  O1A       17.8140   18.2560   34.1640 O.3   167  GNP167     -0.4370
     12  O2A       18.4800   20.1530   32.6060 O.2   167  GNP167     -0.5170
     13  O5'       18.1040   17.8320   31.6710 O.3   167  GNP167     -0.3111
     14  C5'       18.8570   17.9510   30.4380 C.3   167  GNP167      0.1813
     15  C4'       17.9440   17.8990   29.2060 C.3   167  GNP167      0.1799
     16  O4'       17.5260   16.5540   28.9500 O.3   167  GNP167     -0.3326
     17  C3'       16.6710   18.7450   29.3240 C.3   167  GNP167      0.2158
     18  O3'       16.2280   19.2010   28.0270 O.3   167  GNP167     -0.2175
     19  C2'       15.6830   17.7190   29.9070 C.3   167  GNP167      0.2310
     20  O2'       14.3380   18.0230   29.5210 O.3   167  GNP167     -0.2158
     21  C1'       16.1330   16.4030   29.2440 C.3   167  GNP167      0.2293
     22  N9        15.9540   15.2600   30.1570 N.pl3 167  GNP167     -0.2354
     23  C8        16.3040   15.1540   31.4880 C.3   167  GNP167      0.2246
     24  N7        15.8810   14.0880   32.0570 N.2   167  GNP167     -0.2322
     25  C5        15.3470   13.3250   30.9950 C.2   167  GNP167      0.2182
     26  C6        14.6880   12.0220   30.9660 C.1   167  GNP167      0.2372
     27  O6        14.3820   11.2860   31.9120 O.2   167  GNP167     -0.2069
     28  N1        14.3810   11.6050   29.6660 N.2   167  GNP167     -0.2485
     29  C2        14.5740   12.3290   28.5380 C.1   167  GNP167      0.2531
     30  N2        14.0780   11.8650   27.3940 N.pl3 167  GNP167     -0.0226
     31  N3        15.2650   13.5210   28.5460 N.2   167  GNP167     -0.3074
     32  C4        15.5120   14.0020   29.8090 C.2   167  GNP167      0.2300
@<TRIPOS>BOND
     1    30    29    1
     2    18    17    1
     3    29    31    2
     4    29    28    2
     5    31    32    2
     6    16    15    1
     7    16    21    1
     8    15    17    1
     9    15    14    1
    10    21    19    1
    11    21    22    1
    12    17    19    1
    13    20    19    1
    14    28    26    2
    15    32    22    1
    16    32    25    1
    17    22    23    1
    18    14    13    1
    19    26    25    1
    20    26    27    2
    21    25    24    2
    22    23    24    1
    23    13    10    1
    24    12    10    2
    25    10     9    1
    26    10    11    1
    27     9     6    1
    28     2     1    2
    29     5     1    1
    30     5     6    1
    31     1     4    1
    32     1     3    1
    33     6     7    2
    34     6     8    1
