@<TRIPOS>MOLECULE
1iax_PLP_A_1.pdb
 15 15 0 0 0
SMALL
GASTEIGER

@<TRIPOS>ATOM
      1  N1         6.9420   41.4560   67.0240 N.ar  500  PLP500     -0.2452
      2  C2         7.2370   41.8440   68.3010 C.ar  500  PLP500      0.0978
      3  C2A        8.2770   41.0640   69.1040 C.3   500  PLP500      0.0555
      4  C3         6.5790   42.9670   68.8800 C.ar  500  PLP500      0.2049
      5  O3         6.8760   43.3510   70.1760 O.3   500  PLP500     -0.2857
      6  C4         5.6130   43.6770   68.1180 C.ar  500  PLP500      0.0182
      7  C4A        4.9010   44.8840   68.7130 C.3   500  PLP500      0.0342
      8  C5         5.3270   43.2480   66.7940 C.ar  500  PLP500      0.0261
      9  C6         6.0140   42.1240   66.2690 C.ar  500  PLP500      0.0965
     10  C5A        4.2870   43.9770   65.9360 C.3   500  PLP500      0.1815
     11  O4P        4.9190   44.9830   65.1370 O.3   500  PLP500     -0.2653
     12  P          3.8500   45.7460   64.2120 P.3   500  PLP500      0.5329
     13  O1P        2.9420   46.5590   65.0590 O.3   500  PLP500     -0.1145
     14  O2P        3.0520   44.7630   63.4280 O.3   500  PLP500     -0.1145
     15  O3P        4.5810   46.6360   63.2840 O.2   500  PLP500     -0.2224
@<TRIPOS>BOND
     1    15    12    2
     2    14    12    1
     3    12    13    1
     4    12    11    1
     5    11    10    1
     6    10     8    1
     7     9     8   ar
     8     9     1   ar
     9     8     6   ar
    10     1     2   ar
    11     6     7    1
    12     6     4   ar
    13     2     4   ar
    14     2     3    1
    15     4     5    1
