@<TRIPOS>MOLECULE
1iay_PLP_A_1.pdb
 15 15 0 0 0
SMALL
GASTEIGER

@<TRIPOS>ATOM
      1  N1         6.3330   41.2530   13.7420 N.ar  500  PLP500     -0.2452
      2  C2         6.5040   41.6620   15.0260 C.ar  500  PLP500      0.0978
      3  C2A        7.4750   40.9160   15.9240 C.3   500  PLP500      0.0555
      4  C3         5.7920   42.7750   15.5230 C.ar  500  PLP500      0.2049
      5  O3         5.9670   43.1800   16.8310 O.3   500  PLP500     -0.2857
      6  C4         4.8980   43.4590   14.6790 C.ar  500  PLP500      0.0182
      7  C4A        4.1420   44.6650   15.1980 C.3   500  PLP500      0.0342
      8  C5         4.7320   43.0090   13.3410 C.ar  500  PLP500      0.0261
      9  C6         5.4720   41.8910   12.8990 C.ar  500  PLP500      0.0965
     10  C5A        3.7740   43.7130   12.3800 C.3   500  PLP500      0.1815
     11  O4P        4.5280   44.4980   11.4460 O.3   500  PLP500     -0.2653
     12  P          3.5730   45.2250   10.3760 P.3   500  PLP500      0.5329
     13  O1P        2.5350   46.0240   11.0860 O.3   500  PLP500     -0.1145
     14  O2P        2.9200   44.2120    9.5030 O.2   500  PLP500     -0.2224
     15  O3P        4.3850   46.1320    9.5300 O.3   500  PLP500     -0.1145
@<TRIPOS>BOND
     1    14    12    2
     2    15    12    1
     3    12    13    1
     4    12    11    1
     5    11    10    1
     6    10     8    1
     7     9     8   ar
     8     9     1   ar
     9     8     6   ar
    10     1     2   ar
    11     6     7    1
    12     6     4   ar
    13     2     4   ar
    14     2     3    1
    15     4     5    1
