@<TRIPOS>MOLECULE
1iay_AVG_A_1.pdb
 11 10 0 0 0
SMALL
GASTEIGER

@<TRIPOS>ATOM
      1  O1         0.9770   44.9860   19.0860 O.co2 501  AVG501     -0.2440
      2  O2        -1.0650   44.1790   19.0430 O.co2 501  AVG501     -0.2440
      3  C1        -0.0560   44.7620   18.4490 C.2   501  AVG501      0.3819
      4  C2        -0.1200   45.0430   16.9390 C.3   501  AVG501      0.1968
      5  N1         0.8760   46.0530   16.5800 N.3   501  AVG501     -0.1207
      6  C3         0.1610   43.7590   16.1670 C.3   501  AVG501      0.0626
      7  C4        -0.5020   43.4960   14.9190 C.3   501  AVG501      0.1443
      8  O3        -1.7380   42.8040   14.9020 O.3   501  AVG501     -0.3521
      9  C5        -1.5390   41.4630   14.4700 C.3   501  AVG501      0.1626
     10  C6        -2.2620   40.5000   15.4380 C.3   501  AVG501      0.1413
     11  N2        -1.4370   40.2970   16.6310 N.3   501  AVG501     -0.1286
@<TRIPOS>BOND
     1     9     8    1
     2     9    10    1
     3     8     7    1
     4     7     6    1
     5    10    11    1
     6     6     4    1
     7     5     4    1
     8     4     3    1
     9     3     2   ar
    10     3     1   ar
