@<TRIPOS>MOLECULE
1ib0_NAD_A_1.pdb
 44 48 0 0 0
SMALL
GASTEIGER

@<TRIPOS>ATOM
      1  PA        23.5100   -5.2190   36.7780 P.3   1994  NAD1994     0.2189
      2  O1A       24.3370   -5.6600   35.6340 O.2   1994  NAD1994    -0.5170
      3  O2A       24.2560   -4.4100   37.7690 O.3   1994  NAD1994    -0.4371
      4  O5B       22.9690   -6.4410   37.5900 O.3   1994  NAD1994    -0.3112
      5  C5B       22.1930   -7.3630   36.8720 C.3   1994  NAD1994     0.1813
      6  C4B       21.7650   -8.3880   37.8420 C.3   1994  NAD1994     0.1821
      7  O4B       20.9730   -9.3120   37.0330 O.3   1994  NAD1994    -0.3135
      8  C3B       22.9140   -9.2230   38.4060 C.3   1994  NAD1994     0.2184
      9  O3B       23.2930   -8.8330   39.7570 O.3   1994  NAD1994    -0.2174
     10  C2B       22.3780  -10.6510   38.2720 C.3   1994  NAD1994     0.2570
     11  O2B       21.6940  -11.0540   39.4640 O.3   1994  NAD1994    -0.2130
     12  C1B       21.4380  -10.5970   37.0550 C.3   1994  NAD1994     0.3186
     13  N9A       22.1620  -10.9120   35.8200 N.pl3 1994  NAD1994    -0.1439
     14  C8A       22.9590  -10.1050   35.0250 C.3   1994  NAD1994     0.3377
     15  N7A       23.4770  -10.7500   33.9650 N.2   1994  NAD1994    -0.2095
     16  C5A       22.9720  -12.0320   34.1090 C.2   1994  NAD1994     0.2526
     17  C6A       23.1320  -13.2170   33.3290 C.2   1994  NAD1994     0.4393
     18  N6A       23.8720  -13.3110   32.2290 N.pl3 1994  NAD1994     0.2180
     19  N1A       22.4750  -14.3440   33.7510 N.2   1994  NAD1994     0.0021
     20  C2A       21.7020  -14.2820   34.8880 C.3   1994  NAD1994     0.5254
     21  N3A       21.5090  -13.2280   35.6710 N.2   1994  NAD1994    -0.0055
     22  C4A       22.1540  -12.1360   35.2300 C.2   1994  NAD1994     0.3518
     23  O3        22.1870   -4.5190   36.1810 O.3   1994  NAD1994    -0.2703
     24  PN        22.1300   -3.0870   35.4490 P.3   1994  NAD1994     0.2189
     25  O1N       22.8090   -3.0580   34.0950 O.2   1994  NAD1994    -0.5170
     26  O2N       22.7050   -2.0800   36.4030 O.3   1994  NAD1994    -0.4371
     27  O5D       20.5160   -2.9570   35.2400 O.3   1994  NAD1994    -0.3112
     28  C5D       19.9030   -3.6970   34.1260 C.3   1994  NAD1994     0.1813
     29  C4D       18.3650   -3.4470   34.0180 C.3   1994  NAD1994     0.1799
     30  O4D       18.4470   -3.8930   32.6240 O.3   1994  NAD1994    -0.3327
     31  C3D       17.9400   -1.9850   33.8350 C.3   1994  NAD1994     0.2158
     32  O3D       17.0930   -1.3820   34.8180 O.3   1994  NAD1994    -0.2175
     33  C2D       17.1530   -1.9460   32.5380 C.3   1994  NAD1994     0.2309
     34  O2D       15.8660   -2.6300   32.6890 O.3   1994  NAD1994    -0.2158
     35  C1D       18.1510   -2.7530   31.7650 C.3   1994  NAD1994     0.2263
     36  N1N       17.6600   -3.1320   30.4620 N.pl3 1994  NAD1994    -0.2787
     37  C2N       16.7630   -4.1970   30.2700 C.3   1994  NAD1994     0.1244
     38  C3N       16.3110   -4.5150   28.9170 C.2   1994  NAD1994     0.0544
     39  C7N       15.3560   -5.6570   28.7920 C.2   1994  NAD1994     0.2818
     40  O7N       14.9890   -5.8870   27.6390 O.2   1994  NAD1994    -0.2670
     41  N7N       14.9170   -6.3900   29.8390 N.am  1994  NAD1994    -0.0839
     42  C4N       16.8230   -3.6930   27.7730 C.2   1994  NAD1994     0.0033
     43  C5N       17.6910   -2.6840   28.0630 C.2   1994  NAD1994     0.0157
     44  C6N       18.0880   -2.4110   29.3090 C.2   1994  NAD1994     0.0633
@<TRIPOS>BOND
     1    40    39    2
     2    42    43    1
     3    42    38    2
     4    43    44    2
     5    39    38    1
     6    39    41   am
     7    38    37    1
     8    44    36    1
     9    37    36    1
    10    36    35    1
    11    35    33    1
    12    35    30    1
    13    18    17    1
    14    33    34    1
    15    33    31    1
    16    30    29    1
    17    17    19    2
    18    17    16    1
    19    19    20    1
    20    31    29    1
    21    31    32    1
    22    15    16    2
    23    15    14    1
    24    29    28    1
    25    25    24    2
    26    16    22    1
    27    28    27    1
    28    20    21    1
    29    14    13    1
    30    22    21    2
    31    22    13    1
    32    27    24    1
    33    24    23    1
    34    24    26    1
    35     2     1    2
    36    13    12    1
    37    23     1    1
    38     1     4    1
    39     1     3    1
    40     5     4    1
    41     5     6    1
    42     7    12    1
    43     7     6    1
    44    12    10    1
    45     6     8    1
    46    10     8    1
    47    10    11    1
    48     8     9    1
