@<TRIPOS>MOLECULE
1ib4_MAN_A_1.pdb
 11 11 0 0 0
SMALL
GASTEIGER

@<TRIPOS>ATOM
      1  C1        43.1490    7.5870    2.1620 C.3   413  MAN413      0.1777
      2  C2        43.8670    8.5900    3.0400 C.3   413  MAN413      0.2141
      3  C3        43.6570    8.1900    4.5080 C.3   413  MAN413      0.2173
      4  C4        42.1350    8.1670    4.7860 C.3   413  MAN413      0.2142
      5  C5        41.4450    7.1650    3.8250 C.3   413  MAN413      0.1810
      6  C6        39.9510    7.0480    4.0420 C.3   413  MAN413      0.2141
      7  O2        43.2800    9.8780    2.8230 O.3   413  MAN413     -0.2176
      8  O3        44.3010    9.1020    5.3830 O.3   413  MAN413     -0.2175
      9  O4        41.9240    7.8020    6.1310 O.3   413  MAN413     -0.2176
     10  O5        41.7400    7.4980    2.4390 O.3   413  MAN413     -0.3481
     11  O6        39.7130    6.1380    5.1280 O.3   413  MAN413     -0.2176
@<TRIPOS>BOND
     1     1    10    1
     2     1     2    1
     3    10     5    1
     4     7     2    1
     5     2     3    1
     6     5     6    1
     7     5     4    1
     8     6    11    1
     9     3     4    1
    10     3     8    1
    11     4     9    1
