@<TRIPOS>MOLECULE
1ib6_NAD_A_1.pdb
 44 48 0 0 0
SMALL
GASTEIGER

@<TRIPOS>ATOM
      1  PA        -9.4840    6.4020   75.1560 P.3   313  NAD313      0.2189
      2  O1A       -9.2770    6.4130   76.6240 O.3   313  NAD313     -0.4371
      3  O2A      -10.4730    7.3960   74.6400 O.2   313  NAD313     -0.5170
      4  O5B       -9.9320    4.9100   74.6390 O.3   313  NAD313     -0.3112
      5  C5B       -9.1450    3.7160   74.9800 C.3   313  NAD313      0.1813
      6  C4B      -10.0100    2.4590   74.8910 C.3   313  NAD313      0.1821
      7  O4B       -9.1660    1.3120   75.2350 O.3   313  NAD313     -0.3135
      8  C3B      -11.2200    2.3940   75.8710 C.3   313  NAD313      0.2184
      9  O3B      -12.4570    2.3780   75.1430 O.3   313  NAD313     -0.2174
     10  C2B      -10.9270    1.1370   76.6980 C.3   313  NAD313      0.2570
     11  O2B      -12.1660    0.4280   77.1040 O.3   313  NAD313     -0.2130
     12  C1B      -10.0390    0.3400   75.7320 C.3   313  NAD313      0.3186
     13  N9A       -9.2840   -0.7360   76.3860 N.pl3 313  NAD313     -0.1439
     14  C8A       -8.4420   -0.6460   77.4550 C.3   313  NAD313      0.3377
     15  N7A       -7.9250   -1.8160   77.8260 N.2   313  NAD313     -0.2095
     16  C5A       -8.4760   -2.7160   76.9410 C.2   313  NAD313      0.2526
     17  C6A       -8.3240   -4.1150   76.8160 C.2   313  NAD313      0.4393
     18  N6A       -7.5770   -4.8910   77.5780 N.pl3 313  NAD313      0.2180
     19  N1A       -9.0120   -4.7370   75.8170 N.2   313  NAD313      0.0021
     20  C2A       -9.8030   -3.9520   75.0090 C.3   313  NAD313      0.5254
     21  N3A      -10.0220   -2.6520   75.0350 N.2   313  NAD313     -0.0055
     22  C4A       -9.3170   -2.0750   76.0400 C.2   313  NAD313      0.3518
     23  O3        -8.0910    6.6230   74.4940 O.3   313  NAD313     -0.2703
     24  PN        -7.5850    6.7210   72.9300 P.3   313  NAD313      0.2189
     25  O1N       -7.5730    8.1490   72.5900 O.3   313  NAD313     -0.4371
     26  O2N       -8.5440    5.8880   72.0990 O.2   313  NAD313     -0.5170
     27  O5D       -6.1030    6.1640   73.1780 O.3   313  NAD313     -0.3112
     28  C5D       -5.7920    4.8720   72.6100 C.3   313  NAD313      0.1813
     29  C4D       -4.3270    4.5050   72.8260 C.3   313  NAD313      0.1799
     30  O4D       -3.6760    5.0250   71.6060 O.3   313  NAD313     -0.3327
     31  C3D       -3.5360    5.1690   73.9770 C.3   313  NAD313      0.2158
     32  O3D       -2.4780    4.2860   74.4030 O.3   313  NAD313     -0.2175
     33  C2D       -2.9760    6.4310   73.3070 C.3   313  NAD313      0.2309
     34  O2D       -1.8210    6.9540   74.0150 O.3   313  NAD313     -0.2158
     35  C1D       -2.6270    5.8950   71.9490 C.3   313  NAD313      0.2263
     36  N1N       -2.4560    6.9330   70.9300 N.pl3 313  NAD313     -0.2787
     37  C2N       -1.6890    6.6600   69.7990 C.3   313  NAD313      0.1244
     38  C3N       -1.3390    7.7230   68.8310 C.2   313  NAD313      0.0544
     39  C7N       -0.4270    7.3550   67.7300 C.2   313  NAD313      0.2818
     40  O7N       -0.1340    8.2690   66.9470 O.2   313  NAD313     -0.2670
     41  N7N        0.0820    6.1140   67.5380 N.am  313  NAD313     -0.0839
     42  C4N       -2.0300    9.0710   68.9470 C.2   313  NAD313      0.0033
     43  C5N       -2.8770    9.1820   70.1710 C.2   313  NAD313      0.0157
     44  C6N       -3.0520    8.2340   71.0680 C.2   313  NAD313      0.0633
@<TRIPOS>BOND
     1    40    39    2
     2    41    39   am
     3    39    38    1
     4    38    42    2
     5    38    37    1
     6    42    43    1
     7    37    36    1
     8    43    44    2
     9    36    44    1
    10    36    35    1
    11    30    35    1
    12    30    29    1
    13    35    33    1
    14    26    24    2
    15    25    24    1
    16    28    29    1
    17    28    27    1
    18    29    31    1
    19    24    27    1
    20    24    23    1
    21    33    31    1
    22    33    34    1
    23    31    32    1
    24    23     1    1
    25     4     5    1
    26     4     1    1
    27     3     1    2
    28     6     5    1
    29     6     7    1
    30     6     8    1
    31    20    21    1
    32    20    19    1
    33    21    22    2
    34     9     8    1
    35     1     2    1
    36     7    12    1
    37    12    13    1
    38    12    10    1
    39    19    17    2
    40     8    10    1
    41    22    13    1
    42    22    16    1
    43    13    14    1
    44    10    11    1
    45    17    16    1
    46    17    18    1
    47    16    15    2
    48    14    15    1
