@<TRIPOS>MOLECULE
1ibc_III_C_1.pdb
 44 46 0 0 0
SMALL
GASTEIGER

@<TRIPOS>ATOM
      1  C         31.8020   70.9310   11.1460 C.2   501  ACE501      0.2423
      2  O         32.1910   71.5280   10.1430 O.2   501  ACE501     -0.2733
      3  CH3       30.7830   71.5700   12.0600 C.3   501  ACE501      0.0964
      4  N         32.2840   69.7530   11.5290 N.am  502  TRP502     -0.1974
      5  CA        33.2620   68.9950   10.7490 C.3   502  TRP502      0.1771
      6  C         32.6670   67.6170   10.5260 C.2   502  TRP502      0.2619
      7  O         31.8890   67.1410   11.3500 O.2   502  TRP502     -0.2715
      8  CB        34.5880   68.8670   11.4990 C.3   502  TRP502      0.0590
      9  CG        35.4100   70.1160   11.4880 C.2   502  TRP502      0.0003
     10  CD1       35.2230   71.2250   12.2560 C.2   502  TRP502      0.0946
     11  CD2       36.5440   70.3910   10.6550 C.2   502  TRP502      0.0113
     12  NE1       36.1670   72.1770   11.9540 N.2   502  TRP502     -0.2442
     13  CE2       36.9900   71.6940   10.9720 C.2   502  TRP502      0.0804
     14  CE3       37.2230   69.6690    9.6640 C.2   502  TRP502     -0.0202
     15  CZ2       38.0850   72.2920   10.3350 C.2   502  TRP502      0.0148
     16  CZ3       38.3120   70.2630    9.0290 C.3   502  TRP502      0.0521
     17  CH2       38.7290   71.5640    9.3690 C.2   502  TRP502     -0.0199
     18  N         33.0260   66.9730    9.4230 N.am  503  GLU503     -0.1963
     19  CA        32.4870   65.6540    9.1130 C.3   503  GLU503      0.1733
     20  C         33.5740   64.6470    8.7540 C.2   503  GLU503      0.2616
     21  O         34.7590   64.9720    8.7370 O.2   503  GLU503     -0.2715
     22  CB        31.4830   65.7490    7.9560 C.3   503  GLU503      0.0429
     23  CG        30.2700   66.6420    8.2050 C.3   503  GLU503      0.1163
     24  CD        29.3400   66.7110    7.0020 C.2   503  GLU503      0.3649
     25  OE1       29.0350   65.6510    6.4090 O.co2 503  GLU503     -0.2457
     26  OE2       28.9120   67.8290    6.6460 O.co2 503  GLU503     -0.2457
     27  N         33.1510   63.4170    8.4830 N.am  504  HIS504     -0.1959
     28  CA        34.0550   62.3430    8.1060 C.3   504  HIS504      0.1784
     29  C         34.0280   62.1810    6.5960 C.2   504  HIS504      0.2616
     30  O         32.9540   62.1590    5.9860 O.2   504  HIS504     -0.2715
     31  CB        33.6050   61.0140    8.7190 C.3   504  HIS504      0.0745
     32  CG        33.7350   60.9410   10.2080 C.2   504  HIS504      0.0653
     33  ND1       34.3780   61.9080   10.9520 N.2   504  HIS504     -0.2310
     34  CD2       33.3130   60.0060   11.0890 C.3   504  HIS504      0.1683
     35  CE1       34.3460   61.5680   12.2280 C.2   504  HIS504      0.1939
     36  NE2       33.7070   60.4180   12.3390 N.2   504  HIS504     -0.2440
     37  N         35.2080   62.0920    6.0000 N.am  505  ASP505     -0.2025
     38  CA        35.3190   61.8840    4.5710 C.3   505  ASP505      0.1395
     39  C         35.5730   60.4080    4.3170 C.3   505  ASP505      0.2041
     40  O         34.3460   59.7810    3.9470 O.3   505  ASP505     -0.2185
     41  CB        36.4590   62.7230    3.9890 C.3   505  ASP505      0.1383
     42  CG        36.0540   63.4740    2.7290 C.2   505  ASP505      0.3667
     43  OD1       34.9050   63.9440    2.6530 O.co2 505  ASP505     -0.2456
     44  OD2       36.8900   63.6000    1.8110 O.co2 505  ASP505     -0.2456
@<TRIPOS>BOND
     1    44    42   ar
     2    43    42   ar
     3    42    41    1
     4    40    39    1
     5    41    38    1
     6    39    38    1
     7    38    37    1
     8    30    29    2
     9    37    29   am
    10    25    24   ar
    11    29    28    1
    12    26    24   ar
    13    24    23    1
    14    22    23    1
    15    22    19    1
    16    28    27    1
    17    28    31    1
    18    27    20   am
    19    31    32    1
    20    21    20    2
    21    20    19    1
    22    16    17    1
    23    16    14    1
    24    19    18    1
    25    17    15    2
    26    18     6   am
    27    14    11    2
    28     2     1    2
    29    32    33    2
    30    32    34    1
    31    15    13    1
    32     6     5    1
    33     6     7    2
    34    11    13    1
    35    11     9    1
    36     5     8    1
    37     5     4    1
    38    33    35    1
    39    13    12    2
    40    34    36    1
    41     1     4   am
    42     1     3    1
    43     9     8    1
    44     9    10    2
    45    12    10    1
    46    35    36    2
