@<TRIPOS>MOLECULE
1ibe_HEM_A_1.pdb
 43 50 0 0 0
SMALL
GASTEIGER

@<TRIPOS>ATOM
      1 FE         39.1030   -8.9550    8.6020 Fe    143  HEM143      0.0000
      2  CHA       39.3810   -9.9910    5.3120 C.2   143  HEM143      0.0000
      3  CHB       36.9640  -11.7040    9.2300 C.2   143  HEM143      0.0000
      4  CHC       38.2510   -7.7090   11.6630 C.2   143  HEM143      0.0000
      5  CHD       40.4310   -5.8960    7.7360 C.2   143  HEM143      0.0000
      6  NA        38.3130  -10.4660    7.5100 N.2   143  HEM143      0.0000
      7  C1A       38.6140  -10.7530    6.1840 C.2   143  HEM143      0.0000
      8  C2A       37.8920  -11.9490    5.8120 C.2   143  HEM143      0.0000
      9  C3A       37.2100  -12.3870    6.8590 C.2   143  HEM143      0.0000
     10  C4A       37.4980  -11.4880    7.9630 C.2   143  HEM143      0.0000
     11  CMA       36.3010  -13.6270    7.0230 C.3   143  HEM143      0.0000
     12  CAA       37.8660  -12.4320    4.3570 C.3   143  HEM143      0.0000
     13  CBA       39.0000  -13.1660    3.8130 C.3   143  HEM143      0.0000
     14  CGA       38.6980  -13.7990    2.4510 C.2   143  HEM143      0.0000
     15  O1A       39.5660  -14.6830    2.2690 O.co2 143  HEM143      0.0000
     16  O2A       37.7310  -13.3480    1.7900 O.co2 143  HEM143      0.0000
     17  NB        37.7570   -9.5150   10.0750 N.ar  143  HEM143      0.0000
     18  C1B       37.1610  -10.7730   10.1900 C.ar  143  HEM143      0.0000
     19  C2B       36.6140  -10.9120   11.5710 C.ar  143  HEM143      0.0000
     20  C3B       36.9850   -9.8130   12.2620 C.ar  143  HEM143      0.0000
     21  C4B       37.7390   -8.9420   11.3550 C.ar  143  HEM143      0.0000
     22  CMB       35.8450  -12.1810   11.9940 C.3   143  HEM143      0.0000
     23  CAB       36.7130   -9.3550   13.7010 C.2   143  HEM143      0.0000
     24  CBB       35.5760   -9.5960   14.3480 C.2   143  HEM143      0.0000
     25  NC        39.2490   -7.1540    9.4750 N.2   143  HEM143      0.0000
     26  C1C       38.9620   -6.8730   10.8260 C.2   143  HEM143      0.0000
     27  C2C       39.4470   -5.5480   11.1620 C.2   143  HEM143      0.0000
     28  C3C       40.0100   -5.0370   10.0500 C.2   143  HEM143      0.0000
     29  C4C       39.9180   -6.0520    9.0110 C.2   143  HEM143      0.0000
     30  CMC       39.2540   -4.8750   12.5410 C.3   143  HEM143      0.0000
     31  CAC       40.7180   -3.6980    9.8540 C.2   143  HEM143      0.0000
     32  CBC       40.3240   -2.5790   10.3700 C.2   143  HEM143      0.0000
     33  ND        39.6880   -8.0670    6.8640 N.ar  143  HEM143      0.0000
     34  C1D       40.3620   -6.8680    6.7800 C.ar  143  HEM143      0.0000
     35  C2D       40.8970   -6.7030    5.4120 C.ar  143  HEM143      0.0000
     36  C3D       40.6320   -7.8500    4.7790 C.ar  143  HEM143      0.0000
     37  C4D       39.8700   -8.7430    5.6680 C.ar  143  HEM143      0.0000
     38  CMD       41.6410   -5.4740    4.8870 C.3   143  HEM143      0.0000
     39  CAD       40.8540   -8.2240    3.2810 C.3   143  HEM143      0.0000
     40  CBD       39.5720   -7.8320    2.4890 C.3   143  HEM143      0.0000
     41  CGD       39.6210   -7.9170    0.9790 C.2   143  HEM143      0.0000
     42  O1D       40.6220   -7.4120    0.4010 O.co2 143  HEM143      0.0000
     43  O2D       38.6430   -8.4330    0.4270 O.co2 143  HEM143      0.0000
@<TRIPOS>BOND
     1    42    41   ar
     2    43    41   ar
     3    41    40    1
     4    16    14   ar
     5    15    14   ar
     6    14    13    1
     7    40    39    1
     8    39    36    1
     9    13    12    1
    10    12     8    1
    11    36    35   ar
    12    36    37   ar
    13    38    35    1
    14     2    37    2
    15     2     7    1
    16    35    34   ar
    17    37    33   ar
    18     8     7    1
    19     8     9    2
    20     7     6    2
    21    34    33   ar
    22    34     5    2
    23     9    11    1
    24     9    10    1
    25    33     1    1
    26     6    10    1
    27     6     1    1
    28     5    29    1
    29    10     3    2
    30     1    25    1
    31     1    17    1
    32    29    25    2
    33    29    28    1
    34     3    18    1
    35    25    26    1
    36    31    28    1
    37    31    32    2
    38    28    27    2
    39    17    18   ar
    40    17    21   ar
    41    18    19   ar
    42    26    27    1
    43    26     4    2
    44    27    30    1
    45    21     4    1
    46    21    20   ar
    47    19    22    1
    48    19    20   ar
    49    20    23    1
    50    23    24    2
