@<TRIPOS>MOLECULE
1ibg_OBN_H_1.pdb
 41 46 0 0 0
SMALL
GASTEIGER

@<TRIPOS>ATOM
      1  C1         6.9710   11.8370   41.9510 C.3     1  OBN1        0.1591
      2  C2         5.9560   11.9670   43.0680 C.3     1  OBN1        0.0627
      3  C3         5.4240   10.6210   43.5440 C.3     1  OBN1        0.1228
      4  C4         5.0390    9.6940   42.3750 C.3     1  OBN1        0.0603
      5  C5         5.9520    9.6640   41.1110 C.3     1  OBN1        0.1336
      6  C6         5.2010    9.0170   39.9300 C.3     1  OBN1        0.0307
      7  C7         3.8690    9.7320   39.7060 C.3     1  OBN1        0.0050
      8  C8         4.1560   11.1360   39.2150 C.3     1  OBN1        0.0308
      9  C9         4.9770   11.9610   40.2210 C.3     1  OBN1        0.0399
     10  C10        6.3030   11.1670   40.6900 C.3     1  OBN1        0.0870
     11  C11        5.1370   13.4020   39.6330 C.3     1  OBN1        0.1523
     12  C12        3.8190   14.0640   39.2490 C.3     1  OBN1        0.0355
     13  C13        3.0650   13.3000   38.1650 C.3     1  OBN1        0.0318
     14  C14        2.9000   11.8250   38.6330 C.3     1  OBN1        0.1269
     15  C15        1.7050   11.9330   39.5610 C.3     1  OBN1        0.0307
     16  C16        0.8730   13.1380   39.1160 C.3     1  OBN1        0.0067
     17  C17        1.6480   13.8700   38.0430 C.3     1  OBN1        0.0245
     18  C18        3.8590   13.4120   36.8630 C.3     1  OBN1        0.0028
     19  C19        7.3710   11.0370   39.5680 C.3     1  OBN1        0.1869
     20  C20        0.9680   13.8470   36.6910 C.2     1  OBN1        0.0053
     21  C21        0.9090   15.0200   35.7670 C.3     1  OBN1        0.2314
     22  C22        0.2770   12.8560   36.0790 C.2     1  OBN1        0.0769
     23  C23       -0.3010   13.3270   34.8260 C.2     1  OBN1        0.3412
     24  C1'        5.7480    8.9910   45.3530 C.3     1  OBN1        0.2693
     25  C2'        6.9180    8.3560   46.1130 C.3     1  OBN1        0.2406
     26  C3'        7.6650    9.4740   46.8850 C.3     1  OBN1        0.2197
     27  C4'        6.7460   10.1000   47.9390 C.3     1  OBN1        0.2118
     28  C5'        5.3560   10.4590   47.3760 C.3     1  OBN1        0.1508
     29  C6'        4.3480   10.5060   48.5180 C.3     1  OBN1        0.0350
     30  O1         8.1270   11.0920   42.3910 O.3     1  OBN1       -0.2229
     31  O3         6.2900   10.0080   44.4710 O.3     1  OBN1       -0.3309
     32  O5         7.1160    8.8120   41.3820 O.3     1  OBN1       -0.2254
     33  O11        5.8710   14.3020   40.4540 O.3     1  OBN1       -0.2231
     34  O14        2.4330   11.0510   37.5190 O.3     1  OBN1       -0.2257
     35  O19        8.2330   12.1910   39.4660 O.3     1  OBN1       -0.2203
     36  O21        0.0120   14.6140   34.6910 O.3     1  OBN1       -0.4408
     37  O23       -1.0190   12.7690   33.9960 O.2     1  OBN1       -0.2449
     38  O2'        6.3600    7.3530   46.9950 O.3     1  OBN1       -0.2149
     39  O3'        8.9210    9.0670   47.4780 O.3     1  OBN1       -0.2174
     40  O4'        7.3720   11.3310   48.3140 O.3     1  OBN1       -0.2177
     41  O5'        4.8580    9.4940   46.3940 O.3     1  OBN1       -0.3284
@<TRIPOS>BOND
     1    37    23    2
     2    36    23    1
     3    36    21    1
     4    23    22    1
     5    21    20    1
     6    22    20    2
     7    20    17    1
     8    18    13    1
     9    34    14    1
    10    17    13    1
    11    17    16    1
    12    13    14    1
    13    13    12    1
    14    14     8    1
    15    14    15    1
    16    16    15    1
    17     8     7    1
    18     8     9    1
    19    12    11    1
    20    35    19    1
    21    19    10    1
    22    11     9    1
    23    11    33    1
    24     7     6    1
    25     6     5    1
    26     9    10    1
    27    10     5    1
    28    10     1    1
    29     5    32    1
    30     5     4    1
    31     1    30    1
    32     1     2    1
    33     4     3    1
    34     2     3    1
    35     3    31    1
    36    31    24    1
    37    24    25    1
    38    24    41    1
    39    25    26    1
    40    25    38    1
    41    41    28    1
    42    26    39    1
    43    26    27    1
    44    28    27    1
    45    28    29    1
    46    27    40    1
