@<TRIPOS>MOLECULE
1ibj_PLP_A_1.pdb
 15 15 0 0 0
SMALL
GASTEIGER

@<TRIPOS>ATOM
      1  N1        32.1180   79.3270   25.2380 N.ar  1400  PLP1400    -0.2452
      2  C2        32.6350   80.4280   24.5230 C.ar  1400  PLP1400     0.0978
      3  C2A       31.9440   81.7840   24.7690 C.3   1400  PLP1400     0.0555
      4  C3        33.7380   80.1310   23.5480 C.ar  1400  PLP1400     0.2049
      5  O3        34.1560   81.2510   22.8580 O.3   1400  PLP1400    -0.2857
      6  C4        34.2040   78.7890   23.3910 C.ar  1400  PLP1400     0.0182
      7  C4A       35.4680   78.5720   22.6090 C.3   1400  PLP1400     0.0342
      8  C5        33.4940   77.6790   24.2100 C.ar  1400  PLP1400     0.0261
      9  C6        32.5030   77.9990   25.1090 C.ar  1400  PLP1400     0.0965
     10  C5A       33.8980   76.2110   23.9830 C.3   1400  PLP1400     0.1815
     11  O4P       34.9170   75.7500   24.8830 O.3   1400  PLP1400    -0.2653
     12  P         35.7570   74.4310   24.5710 P.3   1400  PLP1400     0.5329
     13  O1P       36.9710   74.5770   25.4780 O.3   1400  PLP1400    -0.1145
     14  O2P       36.3290   74.6090   23.1430 O.2   1400  PLP1400    -0.2224
     15  O3P       34.8610   73.2660   24.6610 O.3   1400  PLP1400    -0.1145
@<TRIPOS>BOND
     1     7     6    1
     2     5     4    1
     3    14    12    2
     4     6     4   ar
     5     6     8   ar
     6     4     2   ar
     7    10     8    1
     8    10    11    1
     9     8     9   ar
    10     2     3    1
    11     2     1   ar
    12    12    15    1
    13    12    11    1
    14    12    13    1
    15     9     1   ar
