@<TRIPOS>MOLECULE
1ibq_MAN_A_1.pdb
 11 11 0 0 0
SMALL
GASTEIGER

@<TRIPOS>ATOM
      1  C1       -46.7440    6.9710   21.2550 C.3   460  MAN460      0.1777
      2  C2       -46.9190    8.4740   21.1780 C.3   460  MAN460      0.2141
      3  C3       -47.3340    8.8430   19.7460 C.3   460  MAN460      0.2173
      4  C4       -46.2710    8.3380   18.7550 C.3   460  MAN460      0.2142
      5  C5       -45.9980    6.8250   18.9310 C.3   460  MAN460      0.1810
      6  C6       -44.7580    6.3810   18.1500 C.3   460  MAN460      0.2141
      7  O2       -45.6630    9.0940   21.4720 O.3   460  MAN460     -0.2176
      8  O3       -47.4790   10.2490   19.6020 O.3   460  MAN460     -0.2175
      9  O4       -46.7220    8.5920   17.4370 O.3   460  MAN460     -0.2176
     10  O5       -45.7790    6.4750   20.3270 O.3   460  MAN460     -0.3481
     11  O6       -43.6540    7.2350   18.4540 O.3   460  MAN460     -0.2176
@<TRIPOS>BOND
     1     9     4    1
     2     6    11    1
     3     6     5    1
     4     4     5    1
     5     4     3    1
     6     5    10    1
     7     8     3    1
     8     3     2    1
     9    10     1    1
    10     2     1    1
    11     2     7    1
