@<TRIPOS>MOLECULE
1ibr_GNP_A_1.pdb
 32 34 0 0 0
SMALL
GASTEIGER

@<TRIPOS>ATOM
      1  PG        -4.4900  -11.4330   23.8380 P.3   250  GNP250      0.4884
      2  O1G       -5.6970  -11.8070   23.1350 O.3   250  GNP250     -0.1240
      3  O2G       -3.3610  -11.3590   22.9100 O.2   250  GNP250     -0.2331
      4  O3G       -4.1980  -12.6730   24.7060 O.3   250  GNP250     -0.1240
      5  N3B       -4.6460  -10.1230   24.7890 N.3   250  GNP250     -0.0163
      6  PB        -5.1220   -8.6560   24.2090 P.3   250  GNP250      0.4669
      7  O1B       -4.0510   -7.8410   23.6700 O.3   250  GNP250     -0.1253
      8  O2B       -6.2960   -8.6850   23.3270 O.2   250  GNP250     -0.2351
      9  O3A       -5.6280   -7.8350   25.5000 O.3   250  GNP250     -0.2360
     10  PA        -7.1340   -7.6320   26.0350 P.3   250  GNP250      0.2220
     11  O1A       -7.9120   -6.8310   25.0400 O.2   250  GNP250     -0.5170
     12  O2A       -7.6980   -8.9480   26.4540 O.3   250  GNP250     -0.4370
     13  O5'       -6.8540   -6.7090   27.3410 O.3   250  GNP250     -0.3111
     14  C5'       -6.1910   -7.2640   28.5170 C.3   250  GNP250      0.1813
     15  C4'       -6.5010   -6.4240   29.7790 C.3   250  GNP250      0.1799
     16  O4'       -6.0160   -5.0820   29.6200 O.3   250  GNP250     -0.3326
     17  C3'       -8.0050   -6.3100   30.1180 C.3   250  GNP250      0.2158
     18  O3'       -8.1930   -6.3510   31.5330 O.3   250  GNP250     -0.2175
     19  C2'       -8.3480   -4.9110   29.5800 C.3   250  GNP250      0.2310
     20  O2'       -9.4590   -4.3380   30.2850 O.3   250  GNP250     -0.2158
     21  C1'       -7.0660   -4.1580   29.9110 C.3   250  GNP250      0.2293
     22  N9        -6.9190   -2.9420   29.0800 N.pl3 250  GNP250     -0.2354
     23  C8        -6.7980   -2.8320   27.6950 C.3   250  GNP250      0.2246
     24  N7        -6.7470   -1.6190   27.2500 N.2   250  GNP250     -0.2322
     25  C5        -6.4990   -0.8640   28.4150 C.2   250  GNP250      0.2182
     26  C6        -6.1460    0.5410   28.5970 C.1   250  GNP250      0.2372
     27  O6        -5.9730    1.4070   27.7430 O.2   250  GNP250     -0.2069
     28  N1        -6.0020    0.8890   29.9490 N.2   250  GNP250     -0.2485
     29  C2        -6.1850    0.0450   31.0270 C.1   250  GNP250      0.2531
     30  N2        -6.0440    0.5370   32.2730 N.pl3 250  GNP250     -0.0226
     31  N3        -6.5050   -1.2890   30.8670 N.2   250  GNP250     -0.3074
     32  C4        -6.6340   -1.6750   29.5490 C.2   250  GNP250      0.2300
@<TRIPOS>BOND
     1     3     1    2
     2     2     1    1
     3     8     6    2
     4     7     6    1
     5     1     4    1
     6     1     5    1
     7     6     5    1
     8     6     9    1
     9    11    10    2
    10     9    10    1
    11    10    12    1
    12    10    13    1
    13    24    23    1
    14    24    25    2
    15    13    14    1
    16    23    22    1
    17    27    26    2
    18    25    26    1
    19    25    32    1
    20    14    15    1
    21    26    28    2
    22    22    32    1
    23    22    21    1
    24    32    31    2
    25    19    21    1
    26    19    17    1
    27    19    20    1
    28    16    15    1
    29    16    21    1
    30    15    17    1
    31    28    29    2
    32    17    18    1
    33    31    29    2
    34    29    30    1
