@<TRIPOS>MOLECULE
1ibs_ABM_A_1.pdb
 23 25 0 0 0
SMALL
GASTEIGER

@<TRIPOS>ATOM
      1  P         32.0360   64.8310   57.4280 P.3   1009  ABM1009     0.3704
      2  CM        33.7160   65.5450   57.5130 C.3   1009  ABM1009     0.1309
      3  O2P       32.2290   63.3460   57.7790 O.3   1009  ABM1009    -0.1398
      4  O3P       31.4920   65.2790   56.0630 O.2   1009  ABM1009    -0.2555
      5  O5'       31.2310   65.5420   58.6360 O.3   1009  ABM1009    -0.2900
      6  C5'       30.2610   66.6070   58.3850 C.3   1009  ABM1009     0.1836
      7  C4'       30.2670   67.7020   59.4960 C.3   1009  ABM1009     0.1822
      8  O4'       30.8550   68.9890   59.0600 O.3   1009  ABM1009    -0.3135
      9  C3'       28.8580   67.9980   59.9940 C.3   1009  ABM1009     0.2184
     10  O3'       28.5540   67.1590   61.1140 O.3   1009  ABM1009    -0.2174
     11  C2'       28.8560   69.5170   60.3310 C.3   1009  ABM1009     0.2570
     12  O2'       28.8690   69.7980   61.7450 O.3   1009  ABM1009    -0.2130
     13  C1'       30.1090   70.1010   59.6740 C.3   1009  ABM1009     0.3186
     14  N9        29.7040   71.0930   58.6630 N.pl3 1009  ABM1009    -0.1439
     15  C8        28.4450   71.3310   58.1500 C.3   1009  ABM1009     0.3377
     16  N7        28.3650   72.4710   57.5000 N.2   1009  ABM1009    -0.2095
     17  C5        29.6980   72.8630   57.3340 C.2   1009  ABM1009     0.2526
     18  C6        30.2740   74.1000   56.9630 C.2   1009  ABM1009     0.4393
     19  N6        29.6910   74.9860   56.1250 N.pl3 1009  ABM1009     0.2180
     20  N1        31.4350   74.4210   57.5710 N.2   1009  ABM1009     0.0021
     21  C2        32.1970   73.4040   58.0340 C.3   1009  ABM1009     0.5254
     22  N3        31.8730   72.1110   58.1710 N.2   1009  ABM1009    -0.0055
     23  C4        30.5350   71.9690   57.9810 C.2   1009  ABM1009     0.3518
@<TRIPOS>BOND
     1     4     1    2
     2    19    18    1
     3    18    17    1
     4    18    20    2
     5    17    16    2
     6    17    23    1
     7     1     2    1
     8     1     3    1
     9     1     5    1
    10    16    15    1
    11    20    21    1
    12    23    22    2
    13    23    14    1
    14    21    22    1
    15    15    14    1
    16     6     5    1
    17     6     7    1
    18    14    13    1
    19     8     7    1
    20     8    13    1
    21     7     9    1
    22    13    11    1
    23     9    11    1
    24     9    10    1
    25    11    12    1
