@<TRIPOS>MOLECULE
1ibv_PVH_B_1.pdb
 12 12 0 0 0
SMALL
GASTEIGER

@<TRIPOS>ATOM
      1  N         11.4110    9.1020   81.6840 N.3   482  PVH482     -0.1206
      2  CA        12.8640    9.1770   81.7370 C.3   482  PVH482      0.1956
      3  C         13.3780    7.8350   82.2220 C.2   482  PVH482      0.3350
      4  O         12.9230    7.3590   83.2570 O.2   482  PVH482     -0.2485
      5  CB        13.2980   10.1620   82.8560 C.3   482  PVH482      0.0738
      6  CG        12.4700   11.4110   83.0070 C.2   482  PVH482      0.0651
      7  ND1       12.8230   12.6120   82.4380 N.2   482  PVH482     -0.2310
      8  CD2       11.4350   11.6820   83.8380 C.3   482  PVH482      0.1683
      9  CE1       12.0510   13.5750   82.9140 C.2   482  PVH482      0.1939
     10  NE2       11.2050   13.0330   83.7630 N.2   482  PVH482     -0.2440
     11  OE        14.1440    7.0140   81.4420 O.3   482  PVH482     -0.4434
     12  CM        15.2280    7.5770   80.6500 C.3   482  PVH482      0.2556
@<TRIPOS>BOND
     1    12    11    1
     2    11     3    1
     3     1     2    1
     4     2     3    1
     5     2     5    1
     6     3     4    2
     7     7     9    1
     8     7     6    2
     9     5     6    1
    10     9    10    2
    11     6     8    1
    12    10     8    1
