@<TRIPOS>MOLECULE
1ibw_PVH_B_1.pdb
 12 12 0 0 0
SMALL
GASTEIGER

@<TRIPOS>ATOM
      1  N         11.0840   10.7470   82.1540 N.3   482  PVH482     -0.1206
      2  CA        12.5510   10.8870   82.2030 C.3   482  PVH482      0.1956
      3  C         13.1610    9.5740   82.6520 C.2   482  PVH482      0.3350
      4  O         12.7380    9.0510   83.6830 O.2   482  PVH482     -0.2485
      5  CB        12.9160   11.8260   83.3630 C.3   482  PVH482      0.0738
      6  CG        12.1770   13.1230   83.4170 C.2   482  PVH482      0.0651
      7  ND1       12.6830   14.2890   82.8750 N.2   482  PVH482     -0.2310
      8  CD2       11.0790   13.4820   84.1100 C.3   482  PVH482      0.1683
      9  CE1       11.9330   15.3080   83.2450 C.2   482  PVH482      0.1939
     10  NE2       10.9510   14.8480   83.9940 N.2   482  PVH482     -0.2440
     11  OE        14.4000    9.1710   82.2150 O.3   482  PVH482     -0.4434
     12  CM        14.6390    8.8620   80.8180 C.3   482  PVH482      0.2556
@<TRIPOS>BOND
     1    12    11    1
     2     1     2    1
     3     2     3    1
     4     2     5    1
     5    11     3    1
     6     3     4    2
     7     7     9    1
     8     7     6    2
     9     9    10    2
    10     5     6    1
    11     6     8    1
    12    10     8    1
