@<TRIPOS>MOLECULE
1icc_HEM_A_1.pdb
 43 50 0 0 0
SMALL
GASTEIGER

@<TRIPOS>ATOM
      1 FE         22.5710    5.4070   14.3560 Fe    201  HEM201      0.0000
      2  CHA       25.4170    5.6380   16.2350 C.2   201  HEM201      0.0000
      3  CHB       24.1610    3.4090   12.1550 C.2   201  HEM201      0.0000
      4  CHC       19.6640    5.0820   12.4890 C.2   201  HEM201      0.0000
      5  CHD       20.8950    7.3860   16.5230 C.2   201  HEM201      0.0000
      6  NA        24.3890    4.6920   14.2100 N.ar  201  HEM201      0.0000
      7  C1A       25.4790    4.8890   15.0800 C.ar  201  HEM201      0.0000
      8  C2A       26.6280    4.2370   14.6110 C.ar  201  HEM201      0.0000
      9  C3A       26.2730    3.5990   13.4340 C.ar  201  HEM201      0.0000
     10  C4A       24.8910    3.8760   13.2030 C.ar  201  HEM201      0.0000
     11  CMA       27.1280    2.8070   12.6170 C.3   201  HEM201      0.0000
     12  CAA       28.0230    4.2140   15.2920 C.3   201  HEM201      0.0000
     13  CBA       28.3250    2.9210   16.0830 C.3   201  HEM201      0.0000
     14  CGA       29.0590    3.1680   17.3670 C.2   201  HEM201      0.0000
     15  O1A       28.4780    3.7970   18.2920 O.co2 201  HEM201      0.0000
     16  O2A       30.2200    2.7110   17.4480 O.co2 201  HEM201      0.0000
     17  NB        22.0320    4.4620   12.7180 N.2   201  HEM201      0.0000
     18  C1B       22.8250    3.6720   11.9340 C.2   201  HEM201      0.0000
     19  C2B       22.0840    3.1210   10.8130 C.2   201  HEM201      0.0000
     20  C3B       20.8050    3.5640   10.8720 C.2   201  HEM201      0.0000
     21  C4B       20.7860    4.4170   12.0680 C.2   201  HEM201      0.0000
     22  CMB       22.7120    2.1930    9.7770 C.3   201  HEM201      0.0000
     23  CAB       19.6840    3.2530    9.9390 C.3   201  HEM201      0.0000
     24  CBB       19.9380    3.4860    8.4730 C.3   201  HEM201      0.0000
     25  NC        20.6990    6.0890   14.4560 N.ar  201  HEM201      0.0000
     26  C1C       19.6110    5.8720   13.6000 C.ar  201  HEM201      0.0000
     27  C2C       18.4130    6.5760   14.0690 C.ar  201  HEM201      0.0000
     28  C3C       18.7400    7.2160   15.2200 C.ar  201  HEM201      0.0000
     29  C4C       20.1600    6.9270   15.4500 C.ar  201  HEM201      0.0000
     30  CMC       17.0200    6.5780   13.4030 C.3   201  HEM201      0.0000
     31  CAC       17.8310    8.0320   16.1230 C.2   201  HEM201      0.0000
     32  CBC       17.2180    9.1890   15.8780 C.2   201  HEM201      0.0000
     33  ND        23.0470    6.3190   16.0100 N.2   201  HEM201      0.0000
     34  C1D       22.2280    7.1100   16.8050 C.2   201  HEM201      0.0000
     35  C2D       22.9480    7.6120   17.9780 C.2   201  HEM201      0.0000
     36  C3D       24.2100    7.0990   17.9110 C.2   201  HEM201      0.0000
     37  C4D       24.2640    6.3130   16.6830 C.2   201  HEM201      0.0000
     38  CMD       22.4230    8.5200   19.0950 C.3   201  HEM201      0.0000
     39  CAD       25.3360    7.2950   18.9280 C.3   201  HEM201      0.0000
     40  CBD       25.5780    5.9350   19.6900 C.3   201  HEM201      0.0000
     41  CGD       24.3700    5.4160   20.4530 C.2   201  HEM201      0.0000
     42  O1D       24.0070    4.2130   20.2890 O.co2 201  HEM201      0.0000
     43  O2D       23.7890    6.2280   21.2000 O.co2 201  HEM201      0.0000
@<TRIPOS>BOND
     1    24    23    1
     2    22    19    1
     3    23    20    1
     4    19    20    2
     5    19    18    1
     6    20    21    1
     7    18     3    1
     8    18    17    2
     9    21     4    2
    10    21    17    1
    11     3    10    2
    12     4    26    1
    13    11     9    1
    14    17     1    1
    15    10     9   ar
    16    10     6   ar
    17    30    27    1
    18     9     8   ar
    19    26    27   ar
    20    26    25   ar
    21    27    28   ar
    22     6     1    1
    23     6     7   ar
    24     1    25    1
    25     1    33    1
    26    25    29   ar
    27     8     7   ar
    28     8    12    1
    29     7     2    2
    30    28    29   ar
    31    28    31    1
    32    12    13    1
    33    29     5    1
    34    32    31    2
    35    33    37    2
    36    33    34    1
    37    13    14    1
    38     2    37    1
    39     5    34    2
    40    37    36    1
    41    34    35    1
    42    14    16   ar
    43    14    15   ar
    44    36    35    2
    45    36    39    1
    46    35    38    1
    47    39    40    1
    48    40    41    1
    49    42    41   ar
    50    41    43   ar
