@<TRIPOS>MOLECULE
1ice_III_T_1.pdb
 35 35 0 0 0
SMALL
GASTEIGER

@<TRIPOS>ATOM
      1  C         31.3500   70.6260   10.2450 C.2   285  ACE285      0.2423
      2  O         31.2910   71.8390   10.3570 O.2   285  ACE285     -0.2733
      3  CH3       30.3900   69.9010    9.3250 C.3   285  ACE285      0.0964
      4  N         32.2580   69.9130   10.9210 N.am  286  TYR286     -0.1974
      5  CA        33.0910   68.8920   10.3060 C.3   286  TYR286      0.1770
      6  C         32.3840   67.5830   10.1840 C.2   286  TYR286      0.2619
      7  O         31.7330   67.1230   11.1010 O.2   286  TYR286     -0.2715
      8  CB        34.3440   68.7310   11.1420 C.3   286  TYR286      0.0574
      9  CG        35.3030   69.7510   10.6150 C.ar  286  TYR286     -0.0198
     10  CD1       35.2890   71.0510   11.1150 C.ar  286  TYR286     -0.0009
     11  CD2       36.1610   69.4160    9.5690 C.ar  286  TYR286     -0.0009
     12  CE1       36.0990   72.0220   10.5270 C.ar  286  TYR286      0.0417
     13  CE2       36.9700   70.3830    8.9760 C.ar  286  TYR286      0.0417
     14  CZ        36.9530   71.6900    9.4660 C.ar  286  TYR286      0.1957
     15  OH        37.6760   72.6850    8.8380 O.3   286  TYR286     -0.2866
     16  N         32.5190   66.9960    9.0100 N.am  287  VAL287     -0.1963
     17  CA        31.8710   65.7210    8.7530 C.3   287  VAL287      0.1727
     18  C         32.9650   64.8190    8.2500 C.2   287  VAL287      0.2616
     19  O         33.9220   65.2870    7.6540 O.2   287  VAL287     -0.2715
     20  CB        30.7570   65.9430    7.7010 C.3   287  VAL287      0.0290
     21  CG1       30.1800   64.6470    7.1280 C.3   287  VAL287      0.0023
     22  CG2       29.5990   66.6220    8.4060 C.3   287  VAL287      0.0023
     23  N         32.8120   63.5370    8.5090 N.am  288  ALA288     -0.1963
     24  CA        33.7610   62.6100    7.9310 C.3   288  ALA288      0.1728
     25  C         33.2460   62.0590    6.6410 C.2   288  ALA288      0.2613
     26  O         32.0510   62.1120    6.4030 O.2   288  ALA288     -0.2715
     27  CB        34.0210   61.4650    8.8880 C.3   288  ALA288      0.0334
     28  N         34.1900   61.5400    5.8720 N.am  289  ASP289     -0.2025
     29  CA        34.1730   61.3780    4.4130 C.3   289  ASP289      0.1395
     30  C         34.5440   59.9230    4.0260 C.3   289  ASP289      0.2041
     31  O         33.4310   59.0560    3.7380 O.3   289  ASP289     -0.2185
     32  CB        35.1960   62.3510    3.8470 C.3   289  ASP289      0.1383
     33  CG        34.8010   62.9110    2.5290 C.2   289  ASP289      0.3667
     34  OD1       33.9130   62.3560    1.8720 O.co2 289  ASP289     -0.2456
     35  OD2       35.4260   63.9050    2.1740 O.co2 289  ASP289     -0.2456
@<TRIPOS>BOND
     1    34    33   ar
     2    35    33   ar
     3    33    32    1
     4    31    30    1
     5    32    29    1
     6    30    29    1
     7    29    28    1
     8    28    25   am
     9    26    25    2
    10    25    24    1
    11    21    20    1
    12    19    18    2
    13    20    22    1
    14    20    17    1
    15    24    23    1
    16    24    27    1
    17    18    23   am
    18    18    17    1
    19    17    16    1
    20    15    14    1
    21    13    14   ar
    22    13    11   ar
    23    16     6   am
    24     3     1    1
    25    14    12   ar
    26    11     9   ar
    27     6     5    1
    28     6     7    2
    29     1     2    2
    30     1     4   am
    31     5     4    1
    32     5     8    1
    33    12    10   ar
    34     9    10   ar
    35     9     8    1
