@<TRIPOS>MOLECULE
1ici_NAD_A_1.pdb
 44 48 0 0 0
SMALL
GASTEIGER

@<TRIPOS>ATOM
      1  PA        16.3120    7.7710   42.8850 P.3   1001  NAD1001     0.2189
      2  O1A       15.6320    9.0210   43.2730 O.3   1001  NAD1001    -0.4371
      3  O2A       17.7670    7.9860   42.7310 O.2   1001  NAD1001    -0.5170
      4  O5B       15.7200    7.2100   41.5010 O.3   1001  NAD1001    -0.3112
      5  C5B       14.3000    6.9240   41.3580 C.3   1001  NAD1001     0.1813
      6  C4B       14.1440    6.2780   40.0240 C.3   1001  NAD1001     0.1821
      7  O4B       12.7620    5.9100   39.7280 O.3   1001  NAD1001    -0.3135
      8  C3B       14.6180    7.1230   38.8410 C.3   1001  NAD1001     0.2184
      9  O3B       15.4360    6.2870   37.9990 O.3   1001  NAD1001    -0.2174
     10  C2B       13.2650    7.6080   38.2490 C.3   1001  NAD1001     0.2570
     11  O2B       13.3550    7.8800   36.8320 O.3   1001  NAD1001    -0.2130
     12  C1B       12.3790    6.4190   38.4980 C.3   1001  NAD1001     0.3186
     13  N9A       10.9580    6.6900   38.5890 N.pl3 1001  NAD1001    -0.1439
     14  C8A       10.2610    7.8410   38.8180 C.3   1001  NAD1001     0.3377
     15  N7A        8.9220    7.6490   38.8360 N.2   1001  NAD1001    -0.2095
     16  C5A        8.7790    6.2950   38.6050 C.2   1001  NAD1001     0.2526
     17  C6A        7.6310    5.4540   38.5080 C.2   1001  NAD1001     0.4393
     18  N6A        6.3930    5.9120   38.6410 N.pl3 1001  NAD1001     0.2180
     19  N1A        7.8390    4.1110   38.2670 N.2   1001  NAD1001     0.0021
     20  C2A        9.1430    3.6620   38.1350 C.3   1001  NAD1001     0.5254
     21  N3A       10.2500    4.3840   38.2150 N.2   1001  NAD1001    -0.0055
     22  C4A       10.0120    5.6910   38.4510 C.2   1001  NAD1001     0.3518
     23  O3        16.0300    6.6600   43.9190 O.3   1001  NAD1001    -0.2703
     24  PN        16.8210    5.2580   44.2070 P.3   1001  NAD1001     0.2189
     25  O1N       17.5440    4.7450   43.0260 O.2   1001  NAD1001    -0.5170
     26  O2N       15.8880    4.2150   44.7120 O.3   1001  NAD1001    -0.4371
     27  O5D       17.7140    5.6890   45.4020 O.3   1001  NAD1001    -0.3112
     28  C5D       18.8370    4.8650   45.8030 C.3   1001  NAD1001     0.1813
     29  C4D       19.3160    5.4440   47.1030 C.3   1001  NAD1001     0.1799
     30  O4D       19.8310    6.7640   46.9450 O.3   1001  NAD1001    -0.3327
     31  C3D       18.1740    5.6160   48.1150 C.3   1001  NAD1001     0.2158
     32  O3D       17.6370    4.4180   48.7270 O.3   1001  NAD1001    -0.2175
     33  C2D       18.7590    6.6790   49.0860 C.3   1001  NAD1001     0.2309
     34  O2D       19.3230    5.9860   50.2210 O.3   1001  NAD1001    -0.2158
     35  C1D       19.8260    7.3540   48.2410 C.3   1001  NAD1001     0.2263
     36  N1N       19.7140    8.8150   48.0620 N.pl3 1001  NAD1001    -0.2787
     37  C2N       18.5470    9.1190   47.4310 C.3   1001  NAD1001     0.1244
     38  C3N       18.4200   10.3120   46.9970 C.2   1001  NAD1001     0.0544
     39  C7N       17.2810   10.8500   46.2880 C.2   1001  NAD1001     0.2818
     40  O7N       17.4070   12.0340   45.9710 O.2   1001  NAD1001    -0.2670
     41  N7N       16.1700   10.1000   45.9980 N.am  1001  NAD1001    -0.0839
     42  C4N       19.4590   11.3990   47.1520 C.2   1001  NAD1001     0.0033
     43  C5N       20.6250   10.9580   47.8520 C.2   1001  NAD1001     0.0157
     44  C6N       20.8200    9.6780   48.3390 C.2   1001  NAD1001     0.0633
@<TRIPOS>BOND
     1    11    10    1
     2     9     8    1
     3    20    21    1
     4    20    19    1
     5    21    22    2
     6    10    12    1
     7    10     8    1
     8    19    17    2
     9    22    13    1
    10    22    16    1
    11    12    13    1
    12    12     7    1
    13    17    16    1
    14    17    18    1
    15    13    14    1
    16    16    15    2
    17    14    15    1
    18     8     6    1
    19     7     6    1
    20     6     5    1
    21     5     4    1
    22     4     1    1
    23     3     1    2
    24     1     2    1
    25     1    23    1
    26    25    24    2
    27    23    24    1
    28    24    26    1
    29    24    27    1
    30    27    28    1
    31    28    29    1
    32    40    39    2
    33    41    39   am
    34    39    38    1
    35    30    29    1
    36    30    35    1
    37    38    42    2
    38    38    37    1
    39    29    31    1
    40    42    43    1
    41    37    36    1
    42    43    44    2
    43    36    35    1
    44    36    44    1
    45    31    32    1
    46    31    33    1
    47    35    33    1
    48    33    34    1
