@<TRIPOS>MOLECULE
1icp_FMN_A_1.pdb
 31 33 0 0 0
SMALL
GASTEIGER

@<TRIPOS>ATOM
      1  N1        -3.3740    1.1660    1.9810 N.2   501  FMN501     -0.2890
      2  C2        -2.0490    0.8610    1.8670 C.1   501  FMN501      0.3669
      3  O2        -1.3020    1.3910    1.0750 O.2   501  FMN501     -0.1744
      4  N3        -1.5090   -0.1510    2.7270 N.2   501  FMN501     -0.2300
      5  C4        -2.2240   -0.8460    3.6790 C.1   501  FMN501      0.2513
      6  O4        -1.6820   -1.7180    4.3740 O.2   501  FMN501     -0.2057
      7  C4A       -3.6370   -0.5070    3.7990 C.2   501  FMN501      0.2700
      8  N5        -4.4220   -1.1320    4.6840 N.2   501  FMN501     -0.3878
      9  C5A       -5.7720   -0.8070    4.7310 C.2   501  FMN501      0.1320
     10  C6        -6.6710   -1.5060    5.6530 C.2   501  FMN501      0.0250
     11  C7        -8.0230   -1.2610    5.7180 C.2   501  FMN501     -0.0238
     12  C7M       -8.9630   -2.0120    6.6610 C.3   501  FMN501      0.0308
     13  C8        -8.6160   -0.2280    4.8400 C.2   501  FMN501     -0.0280
     14  C8M      -10.0970    0.0850    4.8670 C.3   501  FMN501      0.0304
     15  C9        -7.7730    0.4390    3.9680 C.2   501  FMN501     -0.0041
     16  C9A       -6.3850    0.1940    3.8700 C.3   501  FMN501      0.1497
     17  N10       -5.4980    0.8420    2.9540 N.pl3 501  FMN501     -0.2691
     18  C10       -4.1470    0.5400    2.8740 C.2   501  FMN501      0.2416
     19  C1'       -6.0250    1.8440    1.9990 C.3   501  FMN501      0.1294
     20  C2'       -6.5690    1.0010    0.8050 C.3   501  FMN501      0.2044
     21  O2'       -5.5490    0.3530    0.0330 O.3   501  FMN501     -0.2185
     22  C3'       -7.4370    1.7370   -0.2460 C.3   501  FMN501      0.2164
     23  O3'       -6.6530    2.8190   -0.8330 O.3   501  FMN501     -0.2175
     24  C4'       -8.6830    2.2680    0.4200 C.3   501  FMN501      0.2147
     25  O4'       -9.5190    1.1480    0.8080 O.3   501  FMN501     -0.2176
     26  C5'       -9.4680    3.2030   -0.4840 C.3   501  FMN501      0.1892
     27  O5'      -10.4700    2.5230   -1.2560 O.3   501  FMN501     -0.2674
     28  P        -11.8630    1.8030   -1.0680 P.3   501  FMN501      0.5327
     29  O1P      -12.9620    2.8330   -1.2300 O.3   501  FMN501     -0.1145
     30  O2P      -11.8970    1.0920    0.2670 O.3   501  FMN501     -0.1145
     31  O3P      -11.8740    0.8180   -2.2740 O.2   501  FMN501     -0.2224
@<TRIPOS>BOND
     1    31    28    2
     2    27    28    1
     3    27    26    1
     4    29    28    1
     5    28    30    1
     6    23    22    1
     7    26    24    1
     8    22    24    1
     9    22    20    1
    10    21    20    1
    11    24    25    1
    12    20    19    1
    13     3     2    2
    14     2     1    2
    15     2     4    2
    16     1    18    2
    17    19    17    1
    18     4     5    2
    19    18    17    1
    20    18     7    1
    21    17    16    1
    22     5     7    1
    23     5     6    2
    24     7     8    2
    25    16    15    1
    26    16     9    1
    27    15    13    2
    28     8     9    2
    29     9    10    1
    30    13    14    1
    31    13    11    1
    32    10    11    2
    33    11    12    1
