@<TRIPOS>MOLECULE
1icq_FMN_A_1.pdb
 31 33 0 0 0
SMALL
GASTEIGER

@<TRIPOS>ATOM
      1  N1        -3.2600    1.0650    2.1160 N.2   501  FMN501     -0.2890
      2  C2        -1.9310    0.7630    1.9950 C.1   501  FMN501      0.3669
      3  O2        -1.1920    1.3200    1.2330 O.2   501  FMN501     -0.1744
      4  N3        -1.3840   -0.2790    2.8120 N.2   501  FMN501     -0.2300
      5  C4        -2.0820   -1.0040    3.7260 C.1   501  FMN501      0.2513
      6  O4        -1.5170   -1.8900    4.3720 O.2   501  FMN501     -0.2057
      7  C4A       -3.5190   -0.6660    3.8680 C.2   501  FMN501      0.2700
      8  N5        -4.3080   -1.3170    4.7350 N.2   501  FMN501     -0.3878
      9  C5A       -5.6470   -0.9860    4.8040 C.2   501  FMN501      0.1320
     10  C6        -6.5420   -1.7070    5.7090 C.2   501  FMN501      0.0250
     11  C7        -7.8850   -1.4500    5.8000 C.2   501  FMN501     -0.0238
     12  C7M       -8.8200   -2.2280    6.7290 C.3   501  FMN501      0.0308
     13  C8        -8.4810   -0.3770    4.9720 C.2   501  FMN501     -0.0280
     14  C8M       -9.9450   -0.0510    5.0380 C.3   501  FMN501      0.0304
     15  C9        -7.6520    0.3090    4.1130 C.2   501  FMN501     -0.0041
     16  C9A       -6.2650    0.0520    3.9820 C.3   501  FMN501      0.1497
     17  N10       -5.3860    0.7230    3.0780 N.pl3 501  FMN501     -0.2691
     18  C10       -4.0340    0.4160    2.9840 C.2   501  FMN501      0.2416
     19  C1'       -5.9250    1.7610    2.1600 C.3   501  FMN501      0.1294
     20  C2'       -6.5570    0.9290    1.0010 C.3   501  FMN501      0.2044
     21  O2'       -5.6030    0.1840    0.2330 O.3   501  FMN501     -0.2185
     22  C3'       -7.4270    1.6480   -0.0680 C.3   501  FMN501      0.2164
     23  O3'       -6.5780    2.5690   -0.8190 O.3   501  FMN501     -0.2175
     24  C4'       -8.5670    2.4180    0.5480 C.3   501  FMN501      0.2147
     25  O4'       -9.4010    1.4900    1.2870 O.3   501  FMN501     -0.2176
     26  C5'       -9.4290    3.1040   -0.5130 C.3   501  FMN501      0.1892
     27  O5'      -10.2290    2.0920   -1.1260 O.3   501  FMN501     -0.2674
     28  P        -11.7140    1.5770   -1.0870 P.3   501  FMN501      0.5327
     29  O1P      -11.8720    0.6250   -2.2450 O.2   501  FMN501     -0.2224
     30  O2P      -12.6240    2.7630   -1.0900 O.3   501  FMN501     -0.1145
     31  O3P      -11.7930    0.7210    0.2250 O.3   501  FMN501     -0.1145
@<TRIPOS>BOND
     1    29    28    2
     2    27    28    1
     3    27    26    1
     4    30    28    1
     5    28    31    1
     6    23    22    1
     7    26    24    1
     8    22    24    1
     9    22    20    1
    10    21    20    1
    11    24    25    1
    12    20    19    1
    13     3     2    2
    14     2     1    2
    15     2     4    2
    16     1    18    2
    17    19    17    1
    18     4     5    2
    19    18    17    1
    20    18     7    1
    21    17    16    1
    22     5     7    1
    23     5     6    2
    24     7     8    2
    25    16    15    1
    26    16     9    1
    27    15    13    2
    28     8     9    2
    29     9    10    1
    30    13    14    1
    31    13    11    1
    32    10    11    2
    33    11    12    1
