@<TRIPOS>MOLECULE
1icq_OPD_A_1.pdb
 18 18 0 0 0
SMALL
GASTEIGER

@<TRIPOS>ATOM
      1  C7        -5.0000    4.0570    5.8420 C.3   503  OPD503      0.0005
      2  C5        -3.3100    2.1410    6.1820 C.3   503  OPD503      0.0659
      3  C1        -1.9090    1.9020    5.6800 C.2   503  OPD503      0.1727
      4  O6        -1.4550    2.4110    4.6730 O.2   503  OPD503     -0.2913
      5  C2        -1.1430    0.9870    6.5180 C.2   503  OPD503      0.0329
      6  C3        -1.9410    0.6200    7.5200 C.2   503  OPD503     -0.0231
      7  C4        -3.3130    1.2280    7.4750 C.3   503  OPD503      0.0294
      8  C11       -3.5540    1.9680    8.8130 C.3   503  OPD503      0.0048
      9  C12       -4.5760    1.1910    9.6370 C.3   503  OPD503      0.0003
     10  C13       -3.8330    0.4840   10.7620 C.3   503  OPD503      0.0000
     11  C14       -4.8480   -0.1020   11.7360 C.3   503  OPD503      0.0000
     12  C15       -4.8100    0.6960   13.0370 C.3   503  OPD503      0.0006
     13  C16       -4.7840   -0.2890   14.2160 C.3   503  OPD503      0.0118
     14  C17       -5.0690    0.4740   15.5260 C.3   503  OPD503      0.1141
     15  C18       -6.5450    0.6610   15.6720 C.2   503  OPD503      0.3649
     16  O20       -7.0130    1.8560   15.3050 O.co2 503  OPD503     -0.2457
     17  O19       -7.2720   -0.2330   16.0830 O.co2 503  OPD503     -0.2457
     18  C6        -3.6200    3.6680    6.3310 C.3   503  OPD503      0.0080
@<TRIPOS>BOND
     1     4     3    2
     2     3     2    1
     3     3     5    1
     4     1    18    1
     5     2    18    1
     6     2     7    1
     7     5     6    2
     8     7     6    1
     9     7     8    1
    10     8     9    1
    11     9    10    1
    12    10    11    1
    13    11    12    1
    14    12    13    1
    15    13    14    1
    16    16    15   ar
    17    14    15    1
    18    15    17   ar
