@<TRIPOS>MOLECULE
1icr_FMN_A_1.pdb
 31 33 0 0 0
SMALL
GASTEIGER

@<TRIPOS>ATOM
      1  N1         8.8330   -5.1800   15.7290 N.2   601  FMN601     -0.2890
      2  C2         7.5060   -5.0880   15.2960 C.1   601  FMN601      0.3669
      3  O2         6.6190   -5.6670   15.7930 O.2   601  FMN601     -0.1744
      4  N3         7.2940   -4.1980   14.1530 N.2   601  FMN601     -0.2300
      5  C4         8.2660   -3.4710   13.5120 C.1   601  FMN601      0.2513
      6  O4         8.0930   -2.7300   12.5430 O.2   601  FMN601     -0.2057
      7  C4A        9.6590   -3.5690   14.0020 C.2   601  FMN601      0.2700
      8  N5        10.7460   -3.0360   13.4740 N.2   601  FMN601     -0.3878
      9  C5A       12.0400   -2.9900   13.9460 C.2   601  FMN601      0.1320
     10  C6        13.0830   -2.0760   13.4780 C.2   601  FMN601      0.0250
     11  C7        14.3080   -1.9600   14.1910 C.2   601  FMN601     -0.0238
     12  C7M       15.3260   -0.9160   13.7830 C.3   601  FMN601      0.0308
     13  C8        14.5990   -2.8480   15.3280 C.2   601  FMN601     -0.0280
     14  C8M       15.8550   -2.8190   16.1630 C.3   601  FMN601      0.0304
     15  C9        13.6560   -3.8260   15.7110 C.2   601  FMN601     -0.0041
     16  C9A       12.3290   -3.9420   15.1060 C.3   601  FMN601      0.1497
     17  N10       11.2210   -4.7330   15.5460 N.pl3 601  FMN601     -0.2691
     18  C10        9.8390   -4.5150   15.1510 C.2   601  FMN601      0.2416
     19  C1'       11.3850   -5.7390   16.7280 C.3   601  FMN601      0.1294
     20  C2'       12.3030   -6.9130   16.4040 C.3   601  FMN601      0.2044
     21  O2'       11.5800   -7.9390   15.6380 O.3   601  FMN601     -0.2185
     22  C3'       13.0820   -7.2720   17.7450 C.3   601  FMN601      0.2164
     23  O3'       14.0190   -6.1940   18.1710 O.3   601  FMN601     -0.2175
     24  C4'       13.9310   -8.5310   17.5510 C.3   601  FMN601      0.2147
     25  O4'       13.0410   -9.6790   17.1890 O.3   601  FMN601     -0.2176
     26  C5'       14.5020   -9.0520   18.8940 C.3   601  FMN601      0.1892
     27  O5'       13.5270   -9.0930   19.9700 O.3   601  FMN601     -0.2674
     28  P         13.5340   -8.1390   21.2450 P.3   601  FMN601      0.5327
     29  O1P       12.2990   -8.5040   22.0050 O.3   601  FMN601     -0.1145
     30  O2P       13.4940   -6.6660   20.8520 O.2   601  FMN601     -0.2224
     31  O3P       14.7880   -8.3960   22.1060 O.3   601  FMN601     -0.1145
@<TRIPOS>BOND
     1     6     5    2
     2     8     9    2
     3     8     7    2
     4    10     9    1
     5    10    11    2
     6     5     7    1
     7     5     4    2
     8    12    11    1
     9     9    16    1
    10     7    18    1
    11     4     2    2
    12    11    13    1
    13    16    17    1
    14    16    15    1
    15    18    17    1
    16    18     1    2
    17     2     1    2
    18     2     3    2
    19    13    15    2
    20    13    14    1
    21    17    19    1
    22    21    20    1
    23    20    19    1
    24    20    22    1
    25    25    24    1
    26    24    22    1
    27    24    26    1
    28    22    23    1
    29    26    27    1
    30    27    28    1
    31    30    28    2
    32    28    29    1
    33    28    31    1
