@<TRIPOS>MOLECULE
1ics_FMN_A_1.pdb
 31 33 0 0 0
SMALL
GASTEIGER

@<TRIPOS>ATOM
      1  N1         3.0720   -3.0850    0.1720 N.2   501  FMN501     -0.2890
      2  C2         1.7850   -2.6080    0.3000 C.1   501  FMN501      0.3669
      3  O2         1.1970   -1.9940   -0.5710 O.2   501  FMN501     -0.1744
      4  N3         1.1000   -2.8380    1.5320 N.2   501  FMN501     -0.2300
      5  C4         1.6060   -3.5020    2.6070 C.1   501  FMN501      0.2513
      6  O4         0.9310   -3.6360    3.6330 O.2   501  FMN501     -0.2057
      7  C4A        2.9830   -4.0190    2.4710 C.2   501  FMN501      0.2700
      8  N5         3.5840   -4.6730    3.4710 N.2   501  FMN501     -0.3878
      9  C5A        4.8840   -5.0990    3.3090 C.2   501  FMN501      0.1320
     10  C6         5.5800   -5.7790    4.4060 C.2   501  FMN501      0.0250
     11  C7         6.8820   -6.2000    4.3330 C.2   501  FMN501     -0.0238
     12  C7M        7.6110   -6.8880    5.4970 C.3   501  FMN501      0.0308
     13  C8         7.6370   -5.9870    3.0800 C.2   501  FMN501     -0.0280
     14  C8M        9.0710   -6.4310    2.9330 C.3   501  FMN501      0.0304
     15  C9         6.9870   -5.3440    2.0340 C.2   501  FMN501     -0.0041
     16  C9A        5.6460   -4.8880    2.0960 C.3   501  FMN501      0.1497
     17  N10        4.9580   -4.1970    1.0500 N.pl3 501  FMN501     -0.2691
     18  C10        3.6600   -3.7490    1.1780 C.2   501  FMN501      0.2416
     19  C1'        5.6490   -3.8870   -0.2160 C.3   501  FMN501      0.1294
     20  C2'        6.4050   -2.5730    0.0970 C.3   501  FMN501      0.2044
     21  O2'        5.5580   -1.4660    0.3820 O.3   501  FMN501     -0.2185
     22  C3'        7.3790   -2.0230   -0.9460 C.3   501  FMN501      0.2164
     23  O3'        6.7000   -1.9340   -2.2520 O.3   501  FMN501     -0.2175
     24  C4'        8.5780   -2.9340   -0.9710 C.3   501  FMN501      0.2147
     25  O4'        9.2380   -2.8770    0.3180 O.3   501  FMN501     -0.2176
     26  C5'        9.5510   -2.5420   -2.0690 C.3   501  FMN501      0.1892
     27  O5'       10.6940   -1.8280   -1.5760 O.3   501  FMN501     -0.2674
     28  P         12.0660   -2.1770   -0.8750 P.3   501  FMN501      0.5327
     29  O1P       12.9590   -2.7720   -1.9250 O.2   501  FMN501     -0.2224
     30  O2P       11.8440   -3.0820    0.3040 O.3   501  FMN501     -0.1145
     31  O3P       12.5830   -0.7700   -0.4550 O.3   501  FMN501     -0.1145
@<TRIPOS>BOND
     1    23    22    1
     2    26    27    1
     3    26    24    1
     4    29    28    2
     5    27    28    1
     6    24    22    1
     7    24    25    1
     8    22    20    1
     9    28    31    1
    10    28    30    1
    11     3     2    2
    12    19    20    1
    13    19    17    1
    14    20    21    1
    15     1     2    2
    16     1    18    2
    17     2     4    2
    18    17    18    1
    19    17    16    1
    20    18     7    1
    21     4     5    2
    22    15    16    1
    23    15    13    2
    24    16     9    1
    25     7     5    1
    26     7     8    2
    27     5     6    2
    28    14    13    1
    29    13    11    1
    30     9     8    2
    31     9    10    1
    32    11    10    2
    33    11    12    1
