@<TRIPOS>MOLECULE
1ict_T44_C_1.pdb
 24 25 0 0 0
SMALL
GASTEIGER

@<TRIPOS>ATOM
      1  C1        -5.6820  -45.1800   33.3750 C.ar  128  T44128     -0.0191
      2  C2        -4.3460  -44.9080   33.1790 C.ar  128  T44128      0.0047
      3  C3        -3.4150  -45.2450   34.1740 C.ar  128  T44128      0.0647
      4  C4        -3.7900  -45.8680   35.3930 C.ar  128  T44128      0.1558
      5  C5        -5.1720  -46.1260   35.5260 C.ar  128  T44128      0.0647
      6  C6        -6.1080  -45.7920   34.5360 C.ar  128  T44128      0.0047
      7  C7        -6.6950  -44.7420   32.3350 C.3   128  T44128      0.0570
      8  C8        -6.9680  -45.8190   31.2820 C.3   128  T44128      0.1986
      9  C9        -7.8520  -46.9980   31.8140 C.2   128  T44128      0.3822
     10  C1'       -1.5420  -45.7970   36.5610 C.ar  128  T44128      0.1464
     11  C2'       -0.5350  -46.7460   36.5400 C.ar  128  T44128      0.0465
     12  C3'        0.7990  -46.3320   36.6470 C.ar  128  T44128      0.0724
     13  C4'        1.1680  -44.9990   36.7720 C.ar  128  T44128      0.2064
     14  C5'        0.1320  -44.0750   36.7890 C.ar  128  T44128      0.0724
     15  C6'       -1.2280  -44.4400   36.6910 C.ar  128  T44128      0.0465
     16  N8        -7.6980  -45.2250   30.1270 N.3   128  T44128     -0.1205
     17  O4        -2.8860  -46.2310   36.4410 O.3   128  T44128     -0.4526
     18  O4'        2.4420  -44.6250   36.8690 O.3   128  T44128     -0.2857
     19  O9        -8.5680  -46.7750   32.8000 O.co2 128  T44128     -0.2440
     20  O10       -7.7720  -48.0660   31.2030 O.co2 128  T44128     -0.2440
     21  I3        -1.4430  -44.7710   33.7380 I     128  T44128     -0.0393
     22  I3'        2.2820  -47.7880   36.6120 I     128  T44128     -0.0391
     23  I5        -5.9150  -47.0440   37.2480 I     128  T44128     -0.0393
     24  I5'        0.6200  -42.0670   36.9640 I     128  T44128     -0.0391
@<TRIPOS>BOND
     1    16     8    1
     2    20     9   ar
     3     8     9    1
     4     8     7    1
     5     9    19   ar
     6     7     1    1
     7     2     1   ar
     8     2     3   ar
     9     1     6   ar
    10    21     3    1
    11     3     4   ar
    12     6     5   ar
    13     4     5   ar
    14     4    17    1
    15     5    23    1
    16    17    10    1
    17    11    10   ar
    18    11    12   ar
    19    10    15   ar
    20    22    12    1
    21    12    13   ar
    22    15    14   ar
    23    13    14   ar
    24    13    18    1
    25    14    24    1
