@<TRIPOS>MOLECULE
1icu_FMN_A_1.pdb
 31 33 0 0 0
SMALL
GASTEIGER

@<TRIPOS>ATOM
      1  N1         2.0310    9.6730   48.1910 N.2   218  FMN218     -0.2890
      2  C2         2.1850    9.8810   46.8090 C.1   218  FMN218      0.3669
      3  O2         1.4890    9.4050   45.9990 O.2   218  FMN218     -0.1744
      4  N3         3.3080   10.7550   46.4390 N.2   218  FMN218     -0.2300
      5  C4         4.1480   11.3470   47.3550 C.1   218  FMN218      0.2513
      6  O4         5.1020   12.0830   47.0990 O.2   218  FMN218     -0.2057
      7  C4A        3.9060   11.1040   48.8010 C.2   218  FMN218      0.2700
      8  N5         4.5820   11.6060   49.8170 N.2   218  FMN218     -0.3878
      9  C5A        4.4260   11.6820   51.1820 C.2   218  FMN218      0.1320
     10  C6         5.0100   12.6040   52.1630 C.2   218  FMN218      0.0250
     11  C7         4.5170   12.6780   53.4970 C.2   218  FMN218     -0.0238
     12  C7M        5.0660   13.7120   54.4540 C.3   218  FMN218      0.0308
     13  C8         3.4630   11.7460   53.9610 C.2   218  FMN218     -0.0280
     14  C8M        2.8570   11.7330   55.3470 C.3   218  FMN218      0.0304
     15  C9         2.9470   10.7690   53.0720 C.2   218  FMN218     -0.0041
     16  C9A        3.2870   10.7660   51.6450 C.3   218  FMN218      0.1497
     17  N10        2.7530    9.9320   50.6040 N.pl3 218  FMN218     -0.2691
     18  C10        2.7890   10.1770   49.1710 C.2   218  FMN218      0.2416
     19  C1'        1.5120    9.0320   50.8660 C.3   218  FMN218      0.1294
     20  C2'        2.0250    7.7260   51.4680 C.3   218  FMN218      0.2044
     21  O2'        2.6200    6.5770   50.7670 O.3   218  FMN218     -0.2185
     22  C3'        0.9140    7.3990   52.5700 C.3   218  FMN218      0.2164
     23  O3'        0.5520    8.3650   53.6390 O.3   218  FMN218     -0.2175
     24  C4'        1.0170    6.1400   53.4380 C.3   218  FMN218      0.2147
     25  O4'        1.3690    4.9590   52.5870 O.3   218  FMN218     -0.2176
     26  C5'       -0.1480    5.4580   54.1980 C.3   218  FMN218      0.1892
     27  O5'       -1.2910    5.6250   53.3370 O.3   218  FMN218     -0.2674
     28  P         -2.6370    6.4410   53.6590 P.3   218  FMN218      0.5327
     29  O1P       -3.5090    6.0750   52.5020 O.2   218  FMN218     -0.2224
     30  O2P       -2.1770    7.8890   53.5630 O.3   218  FMN218     -0.1145
     31  O3P       -3.2400    6.0740   55.0410 O.3   218  FMN218     -0.1145
@<TRIPOS>BOND
     1     3     2    2
     2     4     2    2
     3     4     5    2
     4     2     1    2
     5     6     5    2
     6     5     7    1
     7     1    18    2
     8     7    18    1
     9     7     8    2
    10    18    17    1
    11     8     9    2
    12    17    19    1
    13    17    16    1
    14    21    20    1
    15    19    20    1
    16     9    16    1
    17     9    10    1
    18    20    22    1
    19    16    15    1
    20    10    11    2
    21    29    28    2
    22    22    24    1
    23    22    23    1
    24    25    24    1
    25    15    13    2
    26    27    28    1
    27    27    26    1
    28    24    26    1
    29    11    13    1
    30    11    12    1
    31    30    28    1
    32    28    31    1
    33    13    14    1
