@<TRIPOS>MOLECULE
1icv_FMN_A_1.pdb
 31 33 0 0 0
SMALL
GASTEIGER

@<TRIPOS>ATOM
      1  N1        10.2320   16.2070   11.4300 N.2   701  FMN701     -0.2890
      2  C2        10.4010   14.8450   11.1200 C.1   701  FMN701      0.3669
      3  O2         9.8520   14.2920   10.2390 O.2   701  FMN701     -0.1744
      4  N3        11.3300   14.1310   11.9930 N.2   701  FMN701     -0.2300
      5  C4        12.0210   14.6750   13.0360 C.1   701  FMN701      0.2513
      6  O4        12.7930   14.0640   13.7820 O.2   701  FMN701     -0.2057
      7  C4A       11.8390   16.1180   13.3240 C.2   701  FMN701      0.2700
      8  N5        12.3170   16.8330   14.3250 N.2   701  FMN701     -0.3878
      9  C5A       12.4300   18.1520   14.6940 C.2   701  FMN701      0.1320
     10  C6        13.4150   18.7900   15.5740 C.2   701  FMN701      0.0250
     11  C7        13.5530   20.2010   15.6560 C.2   701  FMN701     -0.0238
     12  C7M       14.6080   20.8230   16.5550 C.3   701  FMN701      0.0308
     13  C8        12.6670   21.0650   14.8700 C.2   701  FMN701     -0.0280
     14  C8M       12.6960   22.5700   14.8550 C.3   701  FMN701      0.0304
     15  C9        11.6860   20.4760   14.0450 C.2   701  FMN701     -0.0041
     16  C9A       11.5480   19.0390   13.8220 C.3   701  FMN701      0.1497
     17  N10       10.7820   18.2210   12.9210 N.pl3 701  FMN701     -0.2691
     18  C10       10.8600   16.8390   12.4430 C.2   701  FMN701      0.2416
     19  C1'        9.9000   18.9560   11.8790 C.3   701  FMN701      0.1294
     20  C2'        8.5440   19.3810   12.4240 C.3   701  FMN701      0.2044
     21  O2'        7.4570   18.5900   13.0350 O.3   701  FMN701     -0.2185
     22  C3'        8.0810   20.8110   11.8940 C.3   701  FMN701      0.2164
     23  O3'        9.2270   21.7060   12.2140 O.3   701  FMN701     -0.2175
     24  C4'        6.7710   21.4490   12.3680 C.3   701  FMN701      0.2147
     25  O4'        5.6330   20.4880   12.5730 O.3   701  FMN701     -0.2176
     26  C5'        6.2440   22.7370   11.6870 C.3   701  FMN701      0.1892
     27  O5'        6.1040   22.3920   10.2830 O.3   701  FMN701     -0.2674
     28  P          7.1000   23.0840    9.2490 P.3   701  FMN701      0.5327
     29  O1P        6.8750   22.3200    7.9760 O.2   701  FMN701     -0.2224
     30  O2P        8.5780   22.8410    9.5690 O.3   701  FMN701     -0.1145
     31  O3P        6.8230   24.6070    9.2700 O.3   701  FMN701     -0.1145
@<TRIPOS>BOND
     1    29    28    2
     2    28    31    1
     3    28    30    1
     4    28    27    1
     5     3     2    2
     6    27    26    1
     7     2     1    2
     8     2     4    2
     9     1    18    2
    10    26    24    1
    11    19    20    1
    12    19    17    1
    13    22    23    1
    14    22    24    1
    15    22    20    1
    16     4     5    2
    17    24    25    1
    18    20    21    1
    19    18    17    1
    20    18     7    1
    21    17    16    1
    22     5     7    1
    23     5     6    2
    24     7     8    2
    25    16    15    1
    26    16     9    1
    27    15    13    2
    28     8     9    2
    29     9    10    1
    30    14    13    1
    31    13    11    1
    32    10    11    2
    33    11    12    1
