@<TRIPOS>MOLECULE
1id0_ANP_A_1.pdb
 31 33 0 0 0
SMALL
GASTEIGER

@<TRIPOS>ATOM
      1  PG        42.6230   26.3930   17.0460 P.3   487  ANP487      0.4884
      2  O1G       41.5400   25.9780   18.2160 O.3   487  ANP487     -0.1240
      3  O2G       41.7130   27.1910   16.1480 O.3   487  ANP487     -0.1240
      4  O3G       43.4720   25.2830   16.1240 O.2   487  ANP487     -0.2331
      5  PB        43.4530   28.9640   17.8160 P.3   487  ANP487      0.4669
      6  O1B       44.3590   29.6450   18.8160 O.3   487  ANP487     -0.1253
      7  O2B       43.4950   29.7220   16.5520 O.2   487  ANP487     -0.2351
      8  N3B       43.7320   27.4450   17.6200 N.3   487  ANP487     -0.0163
      9  PA        40.8130   30.1360   18.4050 P.3   487  ANP487      0.2220
     10  O1A       41.1390   31.5380   18.7790 O.3   487  ANP487     -0.4370
     11  O2A       40.3220   29.8740   17.0130 O.2   487  ANP487     -0.5170
     12  O3A       42.0340   29.1060   18.5220 O.3   487  ANP487     -0.2360
     13  O5'       39.7800   29.5860   19.4270 O.3   487  ANP487     -0.3111
     14  C5'       40.3140   29.3710   20.7830 C.3   487  ANP487      0.1813
     15  C4'       39.8120   28.1530   21.4930 C.3   487  ANP487      0.1821
     16  O4'       38.3770   28.0760   21.5740 O.3   487  ANP487     -0.3135
     17  C3'       40.2470   26.8930   20.8450 C.3   487  ANP487      0.2184
     18  O3'       41.6250   26.5340   21.1520 O.3   487  ANP487     -0.2174
     19  C2'       39.1410   25.8820   21.3020 C.3   487  ANP487      0.2570
     20  O2'       39.6570   25.4570   22.5610 O.3   487  ANP487     -0.2130
     21  C1'       37.9240   26.7280   21.4710 C.3   487  ANP487      0.3186
     22  N9        37.0120   26.5430   20.3430 N.pl3 487  ANP487     -0.1439
     23  C8        36.7610   27.3800   19.2750 C.3   487  ANP487      0.3377
     24  N7        35.8380   26.8290   18.4440 N.2   487  ANP487     -0.2095
     25  C5        35.5210   25.6720   18.9890 C.2   487  ANP487      0.2526
     26  C6        34.6000   24.7060   18.5210 C.2   487  ANP487      0.4393
     27  N6        33.9440   24.9230   17.4060 N.pl3 487  ANP487      0.2180
     28  N1        34.4160   23.5380   19.2670 N.2   487  ANP487      0.0021
     29  C2        35.1610   23.3860   20.4480 C.3   487  ANP487      0.5254
     30  N3        36.0270   24.3390   20.8480 N.2   487  ANP487     -0.0055
     31  C4        36.2460   25.4910   20.1680 C.2   487  ANP487      0.3518
@<TRIPOS>BOND
     1     4     1    2
     2     3     1    1
     3     7     5    2
     4    11     9    2
     5     1     8    1
     6     1     2    1
     7    27    26    1
     8     8     5    1
     9     5    12    1
    10     5     6    1
    11     9    12    1
    12     9    10    1
    13     9    13    1
    14    24    25    2
    15    24    23    1
    16    26    25    1
    17    26    28    2
    18    25    31    1
    19    28    29    1
    20    23    22    1
    21    13    14    1
    22    31    22    1
    23    31    30    2
    24    22    21    1
    25    29    30    1
    26    14    15    1
    27    17    18    1
    28    17    19    1
    29    17    15    1
    30    19    21    1
    31    19    20    1
    32    21    16    1
    33    15    16    1
