@<TRIPOS>MOLECULE
1id8_DBI_A_1.pdb
 39 41 0 0 0
SMALL
GASTEIGER

@<TRIPOS>ATOM
      1  P          0.2090  -16.1720   -7.4520 P.3   139  DBI139      0.3939
      2  O1P       -0.1810  -17.7030   -7.5030 O.3   139  DBI139     -0.1425
      3  O2P        1.2590  -15.9560   -6.2910 O.3   139  DBI139     -0.1425
      4  O3'       -1.0700  -15.2710   -7.1820 O.3   139  DBI139     -0.2999
      5  O5'       -4.2110  -17.5230   -6.5340 O.3   139  DBI139     -0.2320
      6  C5'       -4.2000  -16.2600   -7.1500 C.3   139  DBI139      0.1116
      7  C4'       -3.3370  -15.2570   -6.3760 C.3   139  DBI139      0.1164
      8  O4'       -3.8940  -15.0000   -5.1030 O.3   139  DBI139     -0.3474
      9  C1'       -2.8630  -14.5200   -4.2610 C.3   139  DBI139      0.1597
     10  N1        -2.8600  -13.0570   -4.2460 N.pl3 139  DBI139     -0.2497
     11  C8        -3.1690  -12.2280   -3.1730 C.2   139  DBI139      0.0722
     12  C7        -3.6230  -12.4680   -1.9070 C.2   139  DBI139     -0.0484
     13  C6        -3.7630  -11.4340   -0.9740 C.3   139  DBI139      0.0216
     14  C11       -4.2230  -11.7580    0.4180 C.3   139  DBI139     -0.0512
     15  C10       -3.6070   -8.9440   -0.3980 C.3   139  DBI139     -0.0425
     16  C5        -3.4800  -10.1140   -1.3570 C.2   139  DBI139     -0.0587
     17  C4        -3.0670   -9.8770   -2.6700 C.2   139  DBI139     -0.0226
     18  C9        -2.8960  -10.8950   -3.5670 C.2   139  DBI139      0.1365
     19  N3        -2.4750  -10.9380   -4.8860 N.2   139  DBI139     -0.3946
     20  C2        -2.4650  -12.2400   -5.2380 C.2   139  DBI139      0.1429
     21  C2'       -1.5650  -15.1880   -4.7470 C.3   139  DBI139      0.1273
     22  O2'       -0.4370  -14.3440   -4.7010 O.3   139  DBI139     -0.3848
     23  C3'       -1.9040  -15.7210   -6.1330 C.3   139  DBI139      0.1257
     24 H5'1       -5.2310  -15.9120   -7.2270 H     139  DBI139      0.0618
     25 H5'2       -3.8050  -16.3970   -8.1570 H     139  DBI139      0.0618
     26  H4'       -3.3350  -14.3140   -6.9210 H     139  DBI139      0.0648
     27  H1'       -3.0840  -14.8800   -3.2520 H     139  DBI139      0.0840
     28  H7        -3.9000  -13.4760   -1.6490 H     139  DBI139      0.0600
     29 H111       -4.6660  -12.7520    0.4750 H     139  DBI139      0.0241
     30 H112       -4.9480  -11.0360    0.7880 H     139  DBI139      0.0241
     31 H113       -3.3470  -11.7340    1.0610 H     139  DBI139      0.0241
     32 H101       -2.7460   -8.8930    0.2700 H     139  DBI139      0.0275
     33 H102       -4.5090   -8.9900    0.2100 H     139  DBI139      0.0275
     34 H103       -3.6040   -7.9900   -0.9310 H     139  DBI139      0.0275
     35  H4        -2.8690   -8.8630   -2.9650 H     139  DBI139      0.0650
     36  H2        -2.1430  -12.5760   -6.2120 H     139  DBI139      0.1148
     37  H2'       -1.3370  -16.0400   -4.1010 H     139  DBI139      0.0663
     38 HO21       -0.2610  -14.0870   -3.8010 H     139  DBI139      0.2101
     39  H3'       -1.8840  -16.8100   -6.1010 H     139  DBI139      0.0655
@<TRIPOS>BOND
     1    25     6    1
     2     2     1    1
     3     1     4    1
     4     1     3    1
     5    24     6    1
     6     4    23    1
     7     6     5    1
     8     6     7    1
     9    26     7    1
    10     7    23    1
    11     7     8    1
    12    36    20    1
    13    23    39    1
    14    23    21    1
    15    20    19    2
    16    20    10    1
    17     8     9    1
    18    19    18    2
    19    21    22    1
    20    21     9    1
    21    21    37    1
    22    22    38    1
    23     9    10    1
    24     9    27    1
    25    10    11    1
    26    18    11    1
    27    18    17    1
    28    11    12    2
    29    35    17    1
    30    17    16    2
    31    12    28    1
    32    12    13    1
    33    16    13    1
    34    16    15    1
    35    13    14    1
    36    34    15    1
    37    15    33    1
    38    15    32    1
    39    14    29    1
    40    14    30    1
    41    14    31    1
