@<TRIPOS>MOLECULE
1idb_0DO_B_1.pdb
 46 49 0 0 0
SMALL
GASTEIGER

@<TRIPOS>ATOM
      1  C1        51.1430   22.6980    6.1460 C.2   100  0DO100      0.2859
      2  C2        51.1180   22.3530    7.6270 C.3   100  0DO100      0.2911
      3  C1'       51.8080   23.4450    9.5920 C.ar  100  0DO100      0.1312
      4  C2'       51.0830   24.5550   10.0580 C.ar  100  0DO100      0.0118
      5  C3'       50.9170   24.7950   11.4230 C.ar  100  0DO100     -0.0013
      6  C4'       51.5210   23.9480   12.3540 C.ar  100  0DO100     -0.0004
      7  C5'       52.2960   22.8820   11.8850 C.ar  100  0DO100     -0.0013
      8  C6'       52.4470   22.6120   10.5190 C.ar  100  0DO100      0.0118
      9  CM2       50.4320   25.5230    9.1400 C.3   100  0DO100      0.0342
     10  CM6       53.2980   21.4380   10.0390 C.3   100  0DO100      0.0342
     11  O1        50.5640   21.9530    5.3520 O.2   100  0DO100     -0.2693
     12  O1'       52.0310   23.2320    8.2970 O.3   100  0DO100     -0.4662
     13  N         51.8320   23.8140    5.7720 N.am  100  0DO100     -0.2010
     14  CA        51.8550   24.1220    4.3450 C.3   100  0DO100      0.1314
     15  C         53.2910   23.9880    3.8410 C.3   100  0DO100      0.1879
     16  OXT       54.0460   25.1400    4.1170 O.3   100  0DO100     -0.2198
     17  CB        51.1290   25.4530    4.0720 C.3   100  0DO100      0.0506
     18  CG        49.7000   25.5220    4.6140 C.ar  100  0DO100     -0.0204
     19  CD1       48.5980   25.0420    3.8910 C.ar  100  0DO100     -0.0042
     20  CD2       49.4250   26.0910    5.8610 C.ar  100  0DO100     -0.0042
     21  CE1       47.2950   25.1260    4.3990 C.ar  100  0DO100     -0.0003
     22  CE2       48.1260   26.2070    6.3730 C.ar  100  0DO100     -0.0003
     23  CZ        47.0520   25.6940    5.6490 C.ar  100  0DO100     -0.0000
     24  CM        53.5280   23.7020    2.3730 C.3   100  0DO100      0.1075
     25  N1        53.3200   22.3030    2.2360 N.3   100  0DO100     -0.2642
     26  C21       52.8000   21.8460    0.9150 C.3   100  0DO100      0.1382
     27  C3        52.7210   20.3510    0.9320 C.3   100  0DO100      0.0494
     28  C4        53.8730   19.6370    1.5380 C.3   100  0DO100      0.1370
     29  C5        54.0400   20.1140    2.9080 C.3   100  0DO100      0.0414
     30  C6        54.4860   21.5480    2.7080 C.3   100  0DO100      0.0743
     31  C7        51.4940   22.4250    0.4390 C.2   100  0DO100      0.2558
     32  O         50.4700   22.2930    1.1750 O.2   100  0DO100     -0.2719
     33  N11       52.4810   16.2210   -2.6200 N.ar  100  0DO100     -0.2422
     34  C22       53.5640   17.0150   -2.4900 C.ar  100  0DO100      0.1002
     35  C31       53.8810   17.5600   -1.2280 C.ar  100  0DO100      0.0390
     36  C41       53.0890   17.2690   -0.1380 C.ar  100  0DO100      0.1087
     37  C51       51.9870   16.4390   -0.3170 C.ar  100  0DO100      0.0390
     38  C61       51.7110   15.9250   -1.5840 C.ar  100  0DO100      0.1002
     39  S         53.4470   17.9190    1.3870 S.O2  100  0DO100      0.0072
     40  O1S       52.2630   17.5810    2.0750 O.2   100  0DO100     -0.1687
     41  O2S       54.2500   17.1960    2.2840 O.2   100  0DO100     -0.1687
     42  N2        51.6590   22.9310   -0.8410 N.am  100  0DO100     -0.2077
     43 C1'1       50.6210   23.5830   -1.5330 C.3   100  0DO100      0.0788
     44 C2'1       51.0970   24.0740   -2.9210 C.3   100  0DO100      0.0217
     45 C3'1       50.1750   24.8210   -0.7520 C.3   100  0DO100      0.0217
     46 C4'1       49.4350   22.6290   -1.7240 C.3   100  0DO100      0.0217
@<TRIPOS>BOND
     1    44    43    1
     2    33    34   ar
     3    33    38   ar
     4    34    35   ar
     5    46    43    1
     6    38    37   ar
     7    43    42    1
     8    43    45    1
     9    35    36   ar
    10    42    31   am
    11    37    36   ar
    12    36    39    1
    13    31    26    1
    14    31    32    2
    15    26    27    1
    16    26    25    1
    17    27    28    1
    18    39    28    1
    19    39    40    2
    20    39    41    2
    21    28    29    1
    22    25    24    1
    23    25    30    1
    24    24    15    1
    25    30    29    1
    26    15    16    1
    27    15    14    1
    28    19    21   ar
    29    19    18   ar
    30    17    14    1
    31    17    18    1
    32    14    13    1
    33    21    23   ar
    34    18    20   ar
    35    11     1    2
    36    23    22   ar
    37    13     1   am
    38    20    22   ar
    39     1     2    1
    40     2    12    1
    41    12     3    1
    42     9     4    1
    43     3     4   ar
    44     3     8   ar
    45    10     8    1
    46     4     5   ar
    47     8     7   ar
    48     5     6   ar
    49     7     6   ar
