@<TRIPOS>MOLECULE
1idc_OXS_A_1.pdb
 13 12 0 0 0
SMALL
GASTEIGER

@<TRIPOS>ATOM
      1  C1        83.1830   65.9660    1.8730 C.2   418  OXS418      0.3724
      2  C2        84.7500   66.1040    1.9150 C.3   418  OXS418      0.1829
      3  C3        85.3870   65.7850    0.6000 C.3   418  OXS418      0.1333
      4  C4        85.8620   64.3580    0.6350 C.2   418  OXS418      0.3659
      5  C5        85.1470   67.4770    2.2010 C.2   418  OXS418      0.2629
      6  C6        85.1030   67.6860    3.6850 C.2   418  OXS418      0.4224
      7  O1        82.5890   65.7730    2.9470 O.co2 418  OXS418     -0.2452
      8  O2        82.6380   65.9770    0.7290 O.co2 418  OXS418     -0.2452
      9  O3        87.0550   64.1060    0.4020 O.co2 418  OXS418     -0.2456
     10  O4        85.0960   63.4640    0.9380 O.co2 418  OXS418     -0.2456
     11  O5        85.3480   68.1460    1.5280 O.2   418  OXS418     -0.2837
     12  O6        85.5460   66.7650    4.4060 O.co2 418  OXS418     -0.2373
     13  O7        84.5980   68.7270    4.1060 O.co2 418  OXS418     -0.2373
@<TRIPOS>BOND
     1     9     4   ar
     2     3     4    1
     3     3     2    1
     4     4    10   ar
     5     8     1   ar
     6    11     5    2
     7     1     2    1
     8     1     7   ar
     9     2     5    1
    10     5     6    1
    11     6    13   ar
    12     6    12   ar
