@<TRIPOS>MOLECULE
1ide_ICT_A_1.pdb
 13 12 0 0 0
SMALL
GASTEIGER

@<TRIPOS>ATOM
      1  C1        85.9950   67.7590    3.0610 C.2   418  ICT418      0.3952
      2  O1        86.8520   67.2450    3.8020 O.co2 418  ICT418     -0.2428
      3  O2        85.3460   68.7330    3.4690 O.co2 418  ICT418     -0.2428
      4  C2        85.6790   67.1660    1.6900 C.3   418  ICT418      0.2651
      5  O7        85.0320   68.2210    0.9620 O.3   418  ICT418     -0.2103
      6  C3        84.8980   65.9230    1.8700 C.3   418  ICT418      0.1561
      7  C4        84.2760   65.5100    0.5500 C.3   418  ICT418      0.1285
      8  C5        85.1980   64.8300   -0.4560 C.2   418  ICT418      0.3655
      9  O3        86.2900   64.3460   -0.0730 O.co2 418  ICT418     -0.2456
     10  O4        84.8350   64.7520   -1.6530 O.co2 418  ICT418     -0.2456
     11  C6        83.8680   65.9920    3.0850 C.2   418  ICT418      0.3680
     12  O5        84.0870   65.4690    4.1950 O.co2 418  ICT418     -0.2455
     13  O6        82.7840   66.6120    3.0680 O.co2 418  ICT418     -0.2455
@<TRIPOS>BOND
     1    10     8   ar
     2     8     9   ar
     3     8     7    1
     4     7     6    1
     5     5     4    1
     6     4     6    1
     7     4     1    1
     8     6    11    1
     9     1     3   ar
    10     1     2   ar
    11    13    11   ar
    12    11    12   ar
