@<TRIPOS>MOLECULE
1idr_HEM_A_1.pdb
 43 50 0 0 0
SMALL
GASTEIGER

@<TRIPOS>ATOM
      1 FE         27.8890   12.0390   61.9950 Fe    144  HEM144      0.0000
      2  CHA       28.7060    9.7830   64.3950 C.2   144  HEM144      0.0000
      3  CHB       29.8600   10.3330   59.7900 C.2   144  HEM144      0.0000
      4  CHC       26.9360   14.1590   59.5350 C.2   144  HEM144      0.0000
      5  CHD       26.1620   13.9150   64.2690 C.2   144  HEM144      0.0000
      6  NA        28.9830   10.3700   62.0420 N.ar  144  HEM144      0.0000
      7  C1A       29.2970    9.6360   63.1730 C.ar  144  HEM144      0.0000
      8  C2A       30.2870    8.6400   62.8820 C.ar  144  HEM144      0.0000
      9  C3A       30.6370    8.8110   61.6040 C.ar  144  HEM144      0.0000
     10  C4A       29.7980    9.8650   61.0580 C.ar  144  HEM144      0.0000
     11  CMA       31.7180    7.9800   60.8490 C.3   144  HEM144      0.0000
     12  CAA       30.8580    7.6080   63.8770 C.3   144  HEM144      0.0000
     13  CBA       29.9200    6.3980   63.9570 C.3   144  HEM144      0.0000
     14  CGA       30.4290    5.3580   64.9350 C.2   144  HEM144      0.0000
     15  O1A       30.7230    4.2160   64.5010 O.co2 144  HEM144      0.0000
     16  O2A       30.5330    5.6530   66.1520 O.co2 144  HEM144      0.0000
     17  NB        28.3130   12.2140   60.0590 N.2   144  HEM144      0.0000
     18  C1B       29.1410   11.4050   59.3260 C.2   144  HEM144      0.0000
     19  C2B       29.1170   11.8250   57.9460 C.2   144  HEM144      0.0000
     20  C3B       28.3310   12.8820   57.8520 C.2   144  HEM144      0.0000
     21  C4B       27.7810   13.1410   59.1820 C.2   144  HEM144      0.0000
     22  CMB       29.9340   11.1830   56.7880 C.3   144  HEM144      0.0000
     23  CAB       28.0460   13.6010   56.5210 C.2   144  HEM144      0.0000
     24  CBB       27.4370   14.7870   56.4810 C.2   144  HEM144      0.0000
     25  NC        26.7600   13.6860   61.9400 N.ar  144  HEM144      0.0000
     26  C1C       26.4710   14.4260   60.8120 C.ar  144  HEM144      0.0000
     27  C2C       25.5300   15.4790   61.1440 C.ar  144  HEM144      0.0000
     28  C3C       25.4090   15.4740   62.4730 C.ar  144  HEM144      0.0000
     29  C4C       26.1410   14.3220   62.9760 C.ar  144  HEM144      0.0000
     30  CMC       25.0440   16.5800   60.1650 C.3   144  HEM144      0.0000
     31  CAC       24.5040   16.3990   63.2970 C.2   144  HEM144      0.0000
     32  CBC       24.5300   17.7060   63.0120 C.2   144  HEM144      0.0000
     33  ND        27.4650   11.8430   63.9190 N.2   144  HEM144      0.0000
     34  C1D       26.8480   12.8140   64.7210 C.2   144  HEM144      0.0000
     35  C2D       27.0010   12.4860   66.1220 C.2   144  HEM144      0.0000
     36  C3D       27.8530   11.2380   66.1370 C.2   144  HEM144      0.0000
     37  C4D       28.0260   10.8880   64.7520 C.2   144  HEM144      0.0000
     38  CMD       26.5150   13.3110   67.3310 C.3   144  HEM144      0.0000
     39  CAD       28.3360   10.3690   67.3240 C.3   144  HEM144      0.0000
     40  CBD       27.1540    9.8770   68.1450 C.3   144  HEM144      0.0000
     41  CGD       27.7510    9.5010   69.4730 C.2   144  HEM144      0.0000
     42  O1D       27.5460   10.2020   70.4850 O.co2 144  HEM144      0.0000
     43  O2D       28.5040    8.5160   69.4940 O.co2 144  HEM144      0.0000
@<TRIPOS>BOND
     1    24    23    2
     2    23    20    1
     3    22    19    1
     4    20    19    2
     5    20    21    1
     6    19    18    1
     7    21     4    2
     8    21    17    1
     9    18     3    1
    10    18    17    2
    11     4    26    1
    12     3    10    2
    13    17     1    1
    14    30    27    1
    15    26    27   ar
    16    26    25   ar
    17    11     9    1
    18    10     9   ar
    19    10     6   ar
    20    27    28   ar
    21     9     8   ar
    22    25     1    1
    23    25    29   ar
    24     1     6    1
    25     1    33    1
    26     6     7   ar
    27    28    29   ar
    28    28    31    1
    29     8     7   ar
    30     8    12    1
    31    29     5    1
    32    32    31    2
    33     7     2    2
    34    12    13    1
    35    33    34    1
    36    33    37    2
    37    13    14    1
    38     5    34    2
    39     2    37    1
    40    15    14   ar
    41    34    35    1
    42    37    36    1
    43    14    16   ar
    44    35    36    2
    45    35    38    1
    46    36    39    1
    47    39    40    1
    48    40    41    1
    49    41    43   ar
    50    41    42   ar
