@<TRIPOS>MOLECULE
1idt_FMN_A_1.pdb
 31 33 0 0 0
SMALL
GASTEIGER

@<TRIPOS>ATOM
      1  N1        19.7750  -33.5690   50.2620 N.2   1218  FMN1218    -0.2890
      2  C2        21.0550  -33.4980   50.7400 C.1   1218  FMN1218     0.3669
      3  O2        21.9840  -34.1030   50.2660 O.2   1218  FMN1218    -0.1744
      4  N3        21.3370  -32.6660   51.8560 N.2   1218  FMN1218    -0.2300
      5  C4        20.4340  -31.9160   52.5040 C.1   1218  FMN1218     0.2513
      6  O4        20.7710  -31.2130   53.4650 O.2   1218  FMN1218    -0.2057
      7  C4A       19.0760  -31.9840   51.9910 C.2   1218  FMN1218     0.2700
      8  N5        18.1330  -31.2600   52.5510 N.2   1218  FMN1218    -0.3878
      9  C5A       16.8850  -31.3150   52.0210 C.2   1218  FMN1218     0.1320
     10  C6        15.8250  -30.4980   52.5670 C.2   1218  FMN1218     0.0250
     11  C7        14.5720  -30.4770   52.0680 C.2   1218  FMN1218    -0.0238
     12  C7M       13.4430  -29.6070   52.6260 C.3   1218  FMN1218     0.0308
     13  C8        14.2480  -31.3100   50.9420 C.2   1218  FMN1218    -0.0280
     14  C8M       12.8660  -31.3030   50.3650 C.3   1218  FMN1218     0.0304
     15  C9        15.2330  -32.0910   50.4190 C.2   1218  FMN1218    -0.0041
     16  C9A       16.5310  -32.1240   50.9110 C.3   1218  FMN1218     0.1497
     17  N10       17.5300  -32.9060   50.3530 N.pl3 1218  FMN1218    -0.2691
     18  C10       18.8250  -32.8670   50.8240 C.2   1218  FMN1218     0.2416
     19  C1'       17.0940  -33.7110   49.1900 C.3   1218  FMN1218     0.1294
     20  C2'       16.2490  -34.9480   49.5540 C.3   1218  FMN1218     0.2044
     21  O2'       17.0110  -35.9580   50.2200 O.3   1218  FMN1218    -0.2185
     22  C3'       15.7010  -35.5500   48.2510 C.3   1218  FMN1218     0.2164
     23  O3'       14.7350  -34.6010   47.7380 O.3   1218  FMN1218    -0.2175
     24  C4'       15.0180  -36.9010   48.3400 C.3   1218  FMN1218     0.2147
     25  O4'       15.8830  -37.9480   48.8250 O.3   1218  FMN1218    -0.2176
     26  C5'       14.3520  -37.3170   47.0390 C.3   1218  FMN1218     0.1892
     27  O5'       15.3580  -37.3650   46.0430 O.3   1218  FMN1218    -0.2674
     28  P         15.2740  -36.4560   44.7580 P.3   1218  FMN1218     0.5327
     29  O1P       16.4760  -36.7800   43.9180 O.2   1218  FMN1218    -0.2224
     30  O2P       15.2040  -35.0190   45.1960 O.3   1218  FMN1218    -0.1145
     31  O3P       13.9390  -36.8910   44.0540 O.3   1218  FMN1218    -0.1145
@<TRIPOS>BOND
     1    29    28    2
     2    31    28    1
     3    28    30    1
     4    28    27    1
     5    27    26    1
     6    26    24    1
     7    23    22    1
     8    22    24    1
     9    22    20    1
    10    24    25    1
    11    19    20    1
    12    19    17    1
    13    20    21    1
    14     1     2    2
    15     1    18    2
    16     3     2    2
    17    17    18    1
    18    17    16    1
    19    14    13    1
    20    15    16    1
    21    15    13    2
    22     2     4    2
    23    18     7    1
    24    16     9    1
    25    13    11    1
    26     4     5    2
    27     7     5    1
    28     7     8    2
    29     9     8    2
    30     9    10    1
    31    11    10    2
    32    11    12    1
    33     5     6    2
