@<TRIPOS>MOLECULE
1idt_CB1_A_1.pdb
 18 19 0 0 0
SMALL
GASTEIGER

@<TRIPOS>ATOM
      1  C         -9.0570  -15.4660   51.4070 C.ar  1219  CB11219     0.0496
      2  C1        -8.0120  -15.2240   50.4860 C.ar  1219  CB11219     0.1490
      3  C2        -8.1580  -14.1430   49.5650 C.ar  1219  CB11219     0.0804
      4  C4        -9.3070  -13.3280   49.6390 C.ar  1219  CB11219     0.0225
      5  C5       -10.3460  -13.5920   50.5510 C.ar  1219  CB11219     0.0709
      6  C8       -10.2100  -14.6480   51.4840 C.ar  1219  CB11219     0.1577
      7  N         -6.8860  -16.0310   50.5360 N.pl3 1219  CB11219     0.0579
      8  O1        -6.6170  -16.5610   51.5990 O.2   1219  CB11219    -0.1261
      9  O2        -6.1940  -16.1450   49.5450 O.2   1219  CB11219    -0.1261
     10  C3        -7.1260  -13.8370   48.4890 C.2   1219  CB11219     0.2858
     11  N1        -6.1680  -12.8990   48.7020 N.am  1219  CB11219    -0.0837
     12  O         -7.1890  -14.4560   47.4350 O.2   1219  CB11219    -0.2666
     13  N6       -11.5340  -12.7980   50.5140 N.pl3 1219  CB11219    -0.3028
     14  C7       -11.9710  -12.1740   49.2330 C.3   1219  CB11219     0.1123
     15  C9       -12.7460  -13.3300   49.8280 C.3   1219  CB11219     0.1123
     16  N3       -11.1530  -14.8770   52.4650 N.pl3 1219  CB11219     0.0590
     17  O3       -11.2120  -15.9890   52.9570 O.2   1219  CB11219    -0.1261
     18  O4       -11.8620  -13.9510   52.8190 O.2   1219  CB11219    -0.1261
@<TRIPOS>BOND
     1    12    10    2
     2    10    11   am
     3    10     3    1
     4    14    15    1
     5    14    13    1
     6     9     7    2
     7     3     4   ar
     8     3     2   ar
     9     4     5   ar
    10    15    13    1
    11     2     7    1
    12     2     1   ar
    13    13     5    1
    14     7     8    2
    15     5     6   ar
    16     1     6   ar
    17     6    16    1
    18    16    18    2
    19    16    17    2
