@<TRIPOS>MOLECULE
1ie3_NAD_A_1.pdb
 44 48 0 0 0
SMALL
GASTEIGER

@<TRIPOS>ATOM
      1  PA        12.7870   -7.8430   72.5340 P.3   313  NAD313      0.2189
      2  O1A       12.3480   -8.2080   73.9020 O.3   313  NAD313     -0.4371
      3  O2A       13.9530   -8.5870   71.9810 O.2   313  NAD313     -0.5170
      4  O5B       13.0960   -6.2800   72.4460 O.3   313  NAD313     -0.3112
      5  C5B       12.2630   -5.3460   73.1660 C.3   313  NAD313      0.1813
      6  C4B       13.1380   -4.2420   73.7120 C.3   313  NAD313      0.1821
      7  O4B       12.2530   -3.3490   74.4140 O.3   313  NAD313     -0.3135
      8  C3B       14.1740   -4.7070   74.7490 C.3   313  NAD313      0.2184
      9  O3B       15.5040   -4.4270   74.2800 O.3   313  NAD313     -0.2174
     10  C2B       13.7140   -3.9720   76.0100 C.3   313  NAD313      0.2570
     11  O2B       14.8150   -3.6390   76.8890 O.3   313  NAD313     -0.2130
     12  C1B       13.0010   -2.7750   75.4200 C.3   313  NAD313      0.3186
     13  N9A       12.0830   -2.0780   76.3310 N.pl3 313  NAD313     -0.1439
     14  C8A       11.2610   -2.6280   77.2780 C.3   313  NAD313      0.3377
     15  N7A       10.5520   -1.7270   77.9610 N.2   313  NAD313     -0.2095
     16  C5A       10.9380   -0.5180   77.4200 C.2   313  NAD313      0.2526
     17  C6A       10.5430    0.7990   77.7250 C.2   313  NAD313      0.4393
     18  N6A        9.6680    1.1530   78.6530 N.pl3 313  NAD313      0.2180
     19  N1A       11.1170    1.8210   76.9950 N.2   313  NAD313      0.0021
     20  C2A       12.0340    1.4690   76.0250 C.3   313  NAD313      0.5254
     21  N3A       12.4770    0.2770   75.6610 N.2   313  NAD313     -0.0055
     22  C4A       11.8810   -0.6980   76.4090 C.2   313  NAD313      0.3518
     23  O3        11.5800   -7.9880   71.5920 O.3   313  NAD313     -0.2703
     24  PN        11.4060   -7.7460   69.9970 P.3   313  NAD313      0.2189
     25  O1N       11.5870   -9.0650   69.3730 O.2   313  NAD313     -0.5170
     26  O2N       12.4140   -6.7370   69.5940 O.3   313  NAD313     -0.4371
     27  O5D        9.8680   -7.3020   70.0370 O.3   313  NAD313     -0.3112
     28  C5D        9.5410   -5.9420   69.6880 C.3   313  NAD313      0.1813
     29  C4D        8.0320   -5.7030   69.7680 C.3   313  NAD313      0.1799
     30  O4D        7.5440   -5.6750   68.3830 O.3   313  NAD313     -0.3327
     31  C3D        7.1660   -6.7580   70.4690 C.3   313  NAD313      0.2158
     32  O3D        6.0790   -6.1210   71.1610 O.3   313  NAD313     -0.2175
     33  C2D        6.6760   -7.6130   69.3020 C.3   313  NAD313      0.2309
     34  O2D        5.4440   -8.2860   69.6290 O.3   313  NAD313     -0.2158
     35  C1D        6.4900   -6.5880   68.2160 C.3   313  NAD313      0.2263
     36  N1N        6.5150   -7.1570   66.8580 N.pl3 313  NAD313     -0.2787
     37  C2N        5.9250   -6.4640   65.8030 C.3   313  NAD313      0.1244
     38  C3N        5.8320   -7.0480   64.4300 C.2   313  NAD313      0.0544
     39  C7N        5.1190   -6.2510   63.4080 C.2   313  NAD313      0.2818
     40  O7N        5.0370   -6.7440   62.2720 O.2   313  NAD313     -0.2670
     41  N7N        4.5730   -5.0450   63.6490 N.am  313  NAD313     -0.0839
     42  C4N        6.5270   -8.3690   64.1500 C.2   313  NAD313      0.0033
     43  C5N        7.1490   -8.9610   65.3700 C.2   313  NAD313      0.0157
     44  C6N        7.1340   -8.4270   66.5810 C.2   313  NAD313      0.0633
@<TRIPOS>BOND
     1    40    39    2
     2    39    41   am
     3    39    38    1
     4    42    38    2
     5    42    43    1
     6    38    37    1
     7    43    44    2
     8    37    36    1
     9    44    36    1
    10    36    35    1
    11    35    30    1
    12    35    33    1
    13    30    29    1
    14    33    34    1
    15    33    31    1
    16    25    24    2
    17    26    24    1
    18    28    29    1
    19    28    27    1
    20    29    31    1
    21    24    27    1
    22    24    23    1
    23    31    32    1
    24    23     1    1
    25     3     1    2
    26     4     1    1
    27     4     5    1
    28     1     2    1
    29     5     6    1
    30     6     7    1
    31     6     8    1
    32     9     8    1
    33     7    12    1
    34     8    10    1
    35    12    10    1
    36    12    13    1
    37    21    20    1
    38    21    22    2
    39    10    11    1
    40    20    19    1
    41    13    22    1
    42    13    14    1
    43    22    16    1
    44    19    17    2
    45    14    15    1
    46    16    17    1
    47    16    15    2
    48    17    18    1
