@<TRIPOS>MOLECULE
1ie4_T44_A_1.pdb
 24 25 0 0 0
SMALL
GASTEIGER

@<TRIPOS>ATOM
      1  C1        29.1500   68.9400   42.0370 C.ar  128  T44128     -0.0191
      2  C2        28.5820   69.8800   41.1840 C.ar  128  T44128      0.0047
      3  C3        28.7660   71.2480   41.4550 C.ar  128  T44128      0.0647
      4  C4        29.5010   71.7100   42.5530 C.ar  128  T44128      0.1558
      5  C5        30.0590   70.7230   43.3660 C.ar  128  T44128      0.0647
      6  C6        29.8950   69.3520   43.1300 C.ar  128  T44128      0.0047
      7  C7        28.9060   67.4560   41.8110 C.3   128  T44128      0.0570
      8  C8        27.6410   66.9420   42.5200 C.3   128  T44128      0.1986
      9  C9        27.6650   67.1270   44.0880 C.2   128  T44128      0.3822
     10  C1'       30.6190   73.9450   42.2930 C.ar  128  T44128      0.1464
     11  C2'       31.6430   73.4610   41.5100 C.ar  128  T44128      0.0465
     12  C3'       32.5660   74.3790   40.9950 C.ar  128  T44128      0.0724
     13  C4'       32.5030   75.7490   41.2340 C.ar  128  T44128      0.2064
     14  C5'       31.4610   76.1870   42.0240 C.ar  128  T44128      0.0724
     15  C6'       30.5110   75.3070   42.5620 C.ar  128  T44128      0.0465
     16  N8        26.4400   67.6590   42.0010 N.3   128  T44128     -0.1205
     17  O4        29.6620   73.0860   42.8410 O.3   128  T44128     -0.4526
     18  O4'       33.3970   76.5940   40.7310 O.3   128  T44128     -0.2857
     19  O9        26.6300   67.5390   44.6290 O.co2 128  T44128     -0.2440
     20  O10       28.7170   66.8360   44.6710 O.co2 128  T44128     -0.2440
     21  I3        27.8990   72.6130   40.1540 I     128  T44128     -0.0393
     22  I3'       34.0990   73.6550   39.8190 I     128  T44128     -0.0391
     23  I5        31.1780   71.2820   45.0120 I     128  T44128     -0.0393
     24  I5'       31.3050   78.2330   42.4230 I     128  T44128     -0.0391
@<TRIPOS>BOND
     1    22    12    1
     2    21     3    1
     3    18    13    1
     4    12    13   ar
     5    12    11   ar
     6     2     3   ar
     7     2     1   ar
     8    13    14   ar
     9     3     4   ar
    10    11    10   ar
    11     7     1    1
    12     7     8    1
    13    16     8    1
    14    14    24    1
    15    14    15   ar
    16     1     6   ar
    17    10    15   ar
    18    10    17    1
    19     8     9    1
    20     4    17    1
    21     4     5   ar
    22     6     5   ar
    23     5    23    1
    24     9    19   ar
    25     9    20   ar
