@<TRIPOS>MOLECULE
1ie8_KH1_A_1.pdb
 33 35 0 0 0
SMALL
GASTEIGER

@<TRIPOS>ATOM
      1  O2        16.9440   17.9210   34.2590 O.3   500  KH1500     -0.2227
      2  C1        14.1020   17.8690   35.1530 C.3   500  KH1500      0.1765
      3  C2        14.8000   16.7630   34.2750 C.3   500  KH1500      0.0707
      4  C3        15.8770   17.3800   33.4080 C.3   500  KH1500      0.1592
      5  C4        15.2630   18.4950   32.5580 C.3   500  KH1500      0.0591
      6  C5        14.5160   19.5510   33.3460 C.2   500  KH1500     -0.0213
      7  C6        14.6940   20.8710   33.0680 C.2   500  KH1500     -0.0051
      8  C7        14.0930   22.0110   33.7600 C.2   500  KH1500     -0.0088
      9  C8        13.8430   23.2090   33.2220 C.2   500  KH1500     -0.0446
     10  C9        14.1200   23.6120   31.8090 C.3   500  KH1500      0.0220
     11  C10       13.5730   19.0090   34.3470 C.2   500  KH1500      0.0039
     12  C11       12.7470   24.0440   31.1600 C.3   500  KH1500      0.0044
     13  C12       12.0030   25.1160   31.9100 C.3   500  KH1500      0.0007
     14  C13       11.7450   24.6650   33.3610 C.3   500  KH1500      0.0057
     15  C14       13.1510   24.2690   33.9860 C.3   500  KH1500      0.0184
     16  C15       12.8300   24.0930   35.4880 C.3   500  KH1500      0.0041
     17  C16       11.6650   25.1090   35.7770 C.3   500  KH1500      0.0027
     18  C17       11.3240   25.7250   34.3590 C.3   500  KH1500      0.0275
     19  C18       10.7680   23.4340   33.3720 C.3   500  KH1500      0.0004
     20  C19       12.3080   19.4900   34.4490 C.2   500  KH1500     -0.0024
     21  O1        13.0820   17.2600   35.9510 O.3   500  KH1500     -0.2182
     22  C20        9.8690   26.2350   34.2630 C.3   500  KH1500      0.1152
     23  O4         9.5990   26.3540   32.8840 O.3   500  KH1500     -0.3562
     24  C22        8.2370   26.0800   32.4580 C.3   500  KH1500      0.1421
     25  C23        7.2510   26.3070   33.5960 C.3   500  KH1500      0.0346
     26  C25        4.7180   25.7310   33.6390 C.3   500  KH1500      0.1267
     27  O3         4.6450   26.7630   34.5930 O.3   500  KH1500     -0.2257
     28  C26        3.9370   26.2880   32.4790 C.3   500  KH1500      0.0304
     29  C27        4.0380   24.5230   34.2420 C.3   500  KH1500      0.0304
     30  C21        9.7770   27.6330   34.9430 C.3   500  KH1500      0.0320
     31  C24        6.1490   25.3120   33.3200 C.3   500  KH1500      0.0330
     32  C28        4.2340   23.2360   33.3830 C.3   500  KH1500      0.0026
     33  C29        4.5120   27.5550   31.8300 C.3   500  KH1500      0.0026
@<TRIPOS>BOND
     1    12    10    1
     2    12    13    1
     3    10     9    1
     4    33    28    1
     5    13    14    1
     6    24    23    1
     7    24    25    1
     8    28    26    1
     9     5     6    1
    10     5     4    1
    11    23    22    1
    12     7     6    2
    13     7     8    1
    14     9     8    2
    15     9    15    1
    16    31    25    1
    17    31    26    1
    18     6    11    1
    19    14    19    1
    20    14    15    1
    21    14    18    1
    22    32    29    1
    23     4     1    1
    24     4     3    1
    25    26    29    1
    26    26    27    1
    27    15    16    1
    28    22    18    1
    29    22    30    1
    30     3     2    1
    31    11    20    2
    32    11     2    1
    33    18    17    1
    34     2    21    1
    35    16    17    1
