@<TRIPOS>MOLECULE
1ie9_VDX_A_1.pdb
 30 32 0 0 0
SMALL
GASTEIGER

@<TRIPOS>ATOM
      1  O2        16.9800   17.5100   34.6530 O.3   500  VDX500     -0.2227
      2  O3         4.6030   26.3090   34.8340 O.3   500  VDX500     -0.2212
      3  C1        14.1900   17.4070   35.5340 C.3   500  VDX500      0.1765
      4  C2        14.8850   16.3260   34.6780 C.3   500  VDX500      0.0707
      5  C3        15.9770   17.0020   33.7970 C.3   500  VDX500      0.1592
      6  C4        15.3640   18.1640   33.0050 C.3   500  VDX500      0.0591
      7  C5        14.5540   19.1610   33.7870 C.2   500  VDX500     -0.0213
      8  C6        14.7020   20.4720   33.4950 C.2   500  VDX500     -0.0051
      9  C7        14.0990   21.6380   34.1650 C.2   500  VDX500     -0.0088
     10  C8        13.8420   22.8600   33.6810 C.2   500  VDX500     -0.0446
     11  C9        14.1920   23.3060   32.2700 C.3   500  VDX500      0.0220
     12  C10       13.6120   18.5750   34.7620 C.2   500  VDX500      0.0039
     13  C11       12.8740   23.6780   31.5580 C.3   500  VDX500      0.0044
     14  C12       12.0280   24.6670   32.4050 C.3   500  VDX500      0.0006
     15  C13       11.7400   24.1920   33.8560 C.3   500  VDX500      0.0035
     16  C14       13.1630   23.9190   34.4800 C.3   500  VDX500      0.0183
     17  C15       12.9450   23.7500   35.9730 C.3   500  VDX500      0.0040
     18  C16       11.7720   24.7360   36.1940 C.3   500  VDX500      0.0003
     19  C17       11.2500   25.2820   34.8340 C.3   500  VDX500      0.0006
     20  C18       10.8410   22.9170   33.8900 C.3   500  VDX500      0.0003
     21  C19       12.2960   18.9620   34.8400 C.2   500  VDX500     -0.0024
     22  C20        9.7230   25.5380   34.9110 C.3   500  VDX500      0.0043
     23  C21        9.4280   26.5180   36.1020 C.3   500  VDX500      0.0003
     24  C22        9.0600   25.8970   33.6160 C.3   500  VDX500      0.0258
     25  C23        7.4920   26.0950   33.8050 C.2   500  VDX500     -0.0283
     26  C24        6.5730   24.9620   34.2050 C.2   500  VDX500     -0.0012
     27  C25        5.0440   25.2150   34.0620 C.3   500  VDX500      0.1449
     28  C26        4.6470   25.4180   32.6280 C.3   500  VDX500      0.0375
     29  C27        4.2480   24.0530   34.6660 C.3   500  VDX500      0.0375
     30  O1        13.2270   16.8630   36.4060 O.3   500  VDX500     -0.2182
@<TRIPOS>BOND
     1    13    11    1
     2    13    14    1
     3    11    10    1
     4    14    15    1
     5    28    27    1
     6     6     7    1
     7     6     5    1
     8     8     7    2
     9     8     9    1
    10    24    25    1
    11    24    22    1
    12    10     9    2
    13    10    16    1
    14     7    12    1
    15     5     1    1
    16     5     4    1
    17    25    26    2
    18    15    20    1
    19    15    16    1
    20    15    19    1
    21    27    26    1
    22    27    29    1
    23    27     2    1
    24    16    17    1
    25     4     3    1
    26    12    21    2
    27    12     3    1
    28    19    22    1
    29    19    18    1
    30    22    23    1
    31     3    30    1
    32    17    18    1
