@<TRIPOS>MOLECULE
1iei_ZES_A_1.pdb
 26 28 0 0 0
SMALL
GASTEIGER

@<TRIPOS>ATOM
      1  C1        -8.6640   -2.4490   10.0590 C.ar  351  ZES351      0.0116
      2  C2        -8.2350   -1.2420   10.5960 C.ar  351  ZES351      0.0071
      3  C3        -7.2760   -0.4960    9.8800 C.ar  351  ZES351      0.0722
      4  C4        -6.8340   -0.8410    8.6170 C.ar  351  ZES351      0.0698
      5  C5        -7.2540   -2.0790    8.0930 C.ar  351  ZES351      0.0289
      6  C6        -8.1420   -2.8640    8.8220 C.ar  351  ZES351      0.0591
      7  C10       -6.5730    0.5810   10.5240 C.ar  351  ZES351      0.2658
      8  N11       -5.6750    1.3200    9.8660 N.ar  351  ZES351     -0.2444
      9  C12       -5.4010    1.1220    8.5930 C.ar  351  ZES351      0.3345
     10  N13       -5.9800   -0.0110    7.9620 N.ar  351  ZES351     -0.2702
     11  C14       -5.0500    2.4080   10.5430 C.3   351  ZES351      0.1425
     12  C15       -3.9500    1.9390   11.5440 C.ar  351  ZES351      0.0281
     13  C18       -2.9690    2.8900   11.8880 C.ar  351  ZES351      0.1384
     14  C19       -1.9070    2.5800   12.5820 C.ar  351  ZES351      0.0361
     15  C20       -1.8340    1.3470   13.1080 C.ar  351  ZES351      0.0368
     16  C21       -2.7790    0.4030   12.9130 C.ar  351  ZES351      0.0066
     17  C22       -3.8590    0.6820   12.1000 C.ar  351  ZES351      0.0003
     18 CL6        -8.6100   -4.3420    8.2130 Cl    351  ZES351     -0.0822
     19  C27       -5.4250   -0.3960    6.7230 C.3   351  ZES351      0.2246
     20  C28       -3.8920   -0.9470    6.9710 C.2   351  ZES351      0.3876
     21  O31       -3.3890   -1.2230    8.0230 O.co2 351  ZES351     -0.2435
     22  O32       -3.2520   -1.0640    5.7530 O.co2 351  ZES351     -0.2435
     23  O33       -4.6300    1.8720    8.0210 O.2   351  ZES351     -0.2462
     24  O34       -6.8050    0.7940   11.6860 O.2   351  ZES351     -0.2668
     25  F35       -3.1650    4.2090   11.5120 F     351  ZES351     -0.2044
     26 BR3        -0.2600    0.9920   14.0970 Br    351  ZES351     -0.0489
@<TRIPOS>BOND
     1    22    20   ar
     2    19    20    1
     3    19    10    1
     4    20    21   ar
     5    10     9   ar
     6    10     4   ar
     7    23     9    2
     8     5     4   ar
     9     5     6   ar
    10    18     6    1
    11     9     8   ar
    12     4     3   ar
    13     6     1   ar
    14     8     7   ar
    15     8    11    1
    16     3     7   ar
    17     3     2   ar
    18     1     2   ar
    19     7    24    2
    20    11    12    1
    21    25    13    1
    22    12    13   ar
    23    12    17   ar
    24    13    14   ar
    25    17    16   ar
    26    14    15   ar
    27    16    15   ar
    28    15    26    1
