@<TRIPOS>MOLECULE
1iei_NAP_A_1.pdb
 48 52 0 0 0
SMALL
GASTEIGER

@<TRIPOS>ATOM
      1  PA        -8.6610    4.8340   -1.7690 P.3   350  NAP350      0.2189
      2  O1A       -7.9050    6.1190   -1.9360 O.3   350  NAP350     -0.4371
      3  O2A       -8.2510    3.8640   -2.7960 O.2   350  NAP350     -0.5170
      4  O5B      -10.1540    5.1930   -1.7700 O.3   350  NAP350     -0.3112
      5  C5B      -11.1170    4.1290   -1.7990 C.3   350  NAP350      0.1813
      6  C4B      -12.5650    4.6460   -2.2270 C.3   350  NAP350      0.1820
      7  O4B      -12.5420    5.4940   -3.4040 O.3   350  NAP350     -0.3136
      8  C3B      -13.5500    3.5230   -2.5100 C.3   350  NAP350      0.2157
      9  O3B      -14.4080    3.3680   -1.4040 O.3   350  NAP350     -0.2175
     10  C2B      -14.0270    3.8780   -3.9240 C.3   350  NAP350      0.2314
     11  O2B      -15.3280    3.6550   -4.0820 O.3   350  NAP350     -0.2630
     12  C1B      -13.7190    5.2810   -4.1740 C.3   350  NAP350      0.3158
     13  N9A      -13.3350    5.4540   -5.5910 N.pl3 350  NAP350     -0.1439
     14  C8A      -12.3410    4.8440   -6.2230 C.3   350  NAP350      0.3377
     15  N7A      -12.1850    5.1590   -7.4900 N.2   350  NAP350     -0.2095
     16  C5A      -13.1500    6.0710   -7.7430 C.2   350  NAP350      0.2526
     17  C6A      -13.5990    6.8220   -8.8150 C.2   350  NAP350      0.4393
     18  N6A      -13.0890    6.7740  -10.0280 N.pl3 350  NAP350      0.2180
     19  N1A      -14.6550    7.7190   -8.7320 N.2   350  NAP350      0.0021
     20  C2A      -15.2440    7.8510   -7.5670 C.3   350  NAP350      0.5254
     21  N3A      -14.9140    7.1640   -6.4700 N.2   350  NAP350     -0.0055
     22  C4A      -13.8800    6.2560   -6.5580 C.2   350  NAP350      0.3518
     23  O3        -8.5260    4.3480   -0.3890 O.3   350  NAP350     -0.2703
     24  PN        -7.7520    3.1850    0.1480 P.3   350  NAP350      0.2189
     25  O1N       -8.4490    1.8990    0.3400 O.2   350  NAP350     -0.5170
     26  O2N       -7.1860    3.6420    1.4770 O.3   350  NAP350     -0.4371
     27  O5D       -6.3580    3.0350   -0.3790 O.3   350  NAP350     -0.3112
     28  C5D       -5.9090    2.2730   -1.5740 C.3   350  NAP350      0.1813
     29  C4D       -5.2150    0.8440   -1.2100 C.3   350  NAP350      0.1799
     30  O4D       -3.9710    1.0170   -0.6440 O.3   350  NAP350     -0.3327
     31  C3D       -6.0440    0.1210   -0.1550 C.3   350  NAP350      0.2158
     32  O3D       -7.1630   -0.6970   -0.7630 O.3   350  NAP350     -0.2175
     33  C2D       -5.0430   -0.7410    0.5320 C.3   350  NAP350      0.2309
     34  O2D       -4.8160   -2.1410    0.0720 O.3   350  NAP350     -0.2158
     35  C1D       -3.7930    0.1040    0.3990 C.3   350  NAP350      0.2263
     36  N1N       -3.4870    0.8050    1.6240 N.pl3 350  NAP350     -0.2787
     37  C2N       -2.3850    0.3360    2.4580 C.3   350  NAP350      0.1244
     38  C3N       -2.3250    0.6910    3.7580 C.2   350  NAP350      0.0544
     39  C7N       -1.2640    0.3190    4.6680 C.2   350  NAP350      0.2818
     40  O7N       -1.3910    0.6790    5.8150 O.2   350  NAP350     -0.2670
     41  N7N       -0.1990   -0.3850    4.3470 N.am  350  NAP350     -0.0839
     42  C4N       -3.4060    1.6020    4.4220 C.2   350  NAP350      0.0033
     43  C5N       -4.3950    2.1660    3.4730 C.2   350  NAP350      0.0157
     44  C6N       -4.4400    1.8620    2.1470 C.2   350  NAP350      0.0633
     45  P2B      -15.7500    2.2200   -4.0130 P.3   350  NAP350      0.5328
     46  O1X      -16.7710    2.3230   -2.8250 O.3   350  NAP350     -0.1145
     47  O2X      -16.3570    1.9160   -5.3740 O.2   350  NAP350     -0.2224
     48  O3X      -14.6010    1.3570   -3.6960 O.3   350  NAP350     -0.1145
@<TRIPOS>BOND
     1    18    17    1
     2    17    19    2
     3    17    16    1
     4    19    20    1
     5    16    15    2
     6    16    22    1
     7    20    21    1
     8    15    14    1
     9    22    21    2
    10    22    13    1
    11    14    13    1
    12    13    12    1
    13    47    45    2
    14    12    10    1
    15    12     7    1
    16    11    45    1
    17    11    10    1
    18    45    48    1
    19    45    46    1
    20    10     8    1
    21     7     6    1
    22     3     1    2
    23     8     6    1
    24     8     9    1
    25     6     5    1
    26     2     1    1
    27     5     4    1
    28     4     1    1
    29     1    23    1
    30    28    29    1
    31    28    27    1
    32    29    30    1
    33    29    31    1
    34    32    31    1
    35    30    35    1
    36    23    24    1
    37    27    24    1
    38    31    33    1
    39    34    33    1
    40    24    25    2
    41    24    26    1
    42    35    33    1
    43    35    36    1
    44    36    44    1
    45    36    37    1
    46    44    43    2
    47    37    38    1
    48    43    42    1
    49    38    42    2
    50    38    39    1
    51    41    39   am
    52    39    40    2
