@<TRIPOS>MOLECULE
1iel_CAZ_A_1.pdb
 31 32 0 0 0
SMALL
GASTEIGER

@<TRIPOS>ATOM
      1  S1        25.8960    8.9120   15.9620 S.3   964  CAZ964     -0.1100
      2  C2        26.1160    9.8890   17.4420 C.3   964  CAZ964      0.0873
      3  C3        25.4310    9.4770   18.6080 C.2   964  CAZ964      0.0125
      4  C3'       24.9710   10.4040   19.4690 C.2   964  CAZ964     -0.0020
      5  C4        25.1980    7.9870   18.8890 C.2   964  CAZ964      0.1534
      6  C4'       24.4110    7.3990   20.1020 C.2   964  CAZ964      0.4044
      7  O4A       23.5670    6.4950   19.8410 O.co2 964  CAZ964     -0.2389
      8  O4B       24.6500    7.8390   21.2610 O.co2 964  CAZ964     -0.2389
      9  N5        25.6740    7.0440   18.0140 N.2   964  CAZ964     -0.2528
     10  C6        26.2830    7.2960   16.7060 C.3   964  CAZ964      0.1784
     11  C7        25.9900    6.1250   15.7800 C.3   964  CAZ964      0.1923
     12  C8        26.3360    4.8090   16.4960 C.2   964  CAZ964      0.2316
     13  O9        25.5280    4.0450   17.0260 O.2   964  CAZ964     -0.2863
     14  N10       24.5890    6.1230   15.3320 N.am  964  CAZ964     -0.1910
     15  C11       24.2400    6.5200   14.0920 C.2   964  CAZ964      0.2884
     16  O12       25.0830    6.8980   13.2690 O.2   964  CAZ964     -0.2665
     17  C13       22.8190    6.4490   13.8360 C.2   964  CAZ964      0.2002
     18  N16       21.8590    7.0370   14.5910 N.2   964  CAZ964     -0.0757
     19  O17       22.4100    7.7860   15.7310 O.2   964  CAZ964     -0.3735
     20  C18       21.4500    8.6840   16.3190 C.3   964  CAZ964      0.2530
     21  C14       22.2390    5.7050   12.6630 C.2   964  CAZ964      0.1478
     22  C15       23.0190    4.8830   11.7720 C.3   964  CAZ964      0.1266
     23  S16       22.1210    4.1050   10.6000 S.3   964  CAZ964     -0.0564
     24  C17       20.6940    4.7820   11.1920 C.2   964  CAZ964      0.2461
     25  N18       19.4100    4.4880   10.6820 N.pl3 964  CAZ964     -0.0867
     26  N19       20.9250    5.5920   12.2310 N.2   964  CAZ964     -0.3794
     27  C19       22.1530   10.0400   16.5540 C.3   964  CAZ964      0.0583
     28  C20       21.0160    8.1060   17.6930 C.3   964  CAZ964      0.0583
     29  C21       20.2240    8.9030   15.4300 C.2   964  CAZ964      0.4027
     30  O2A       20.3350    9.6810   14.4370 O.co2 964  CAZ964     -0.2417
     31  O2B       19.1500    8.2940   15.7190 O.co2 964  CAZ964     -0.2417
@<TRIPOS>BOND
     1    23    24    1
     2    23    22    1
     3    25    24    1
     4    24    26    2
     5    22    21    1
     6    26    21    2
     7    21    17    1
     8    16    15    2
     9    17    15    1
    10    17    18    2
    11    15    14   am
    12    30    29   ar
    13    18    19    1
    14    14    11    1
    15    29    31   ar
    16    29    20    1
    17    19    20    1
    18    11    12    1
    19    11    10    1
    20     1    10    1
    21     1     2    1
    22    20    27    1
    23    20    28    1
    24    12    13    2
    25    10     9    1
    26     2     3    1
    27     9     5    2
    28     3     5    1
    29     3     4    2
    30     5     6    1
    31     7     6   ar
    32     6     8   ar
