@<TRIPOS>MOLECULE
1iem_CB4_A_1.pdb
 22 22 0 0 0
SMALL
GASTEIGER

@<TRIPOS>ATOM
      1  B         26.8700    4.8590   16.6090 B     964  CB4964      0.0000
      2  OB1       25.7470    3.9010   16.7440 O.3   964  CB4964      0.0000
      3  OB2       27.0640    5.5810   17.8780 O.3   964  CB4964      0.0000
      4  C7        26.5620    5.8740   15.4630 C.3   964  CB4964      0.0000
      5  N10       25.1340    5.8180   15.1380 N.am  964  CB4964      0.0000
      6  C11       24.6530    6.2390   13.9650 C.2   964  CB4964      0.0000
      7  O12       25.4040    6.6990   13.0920 O.2   964  CB4964      0.0000
      8  C13       23.2340    6.1520   13.7160 C.2   964  CB4964      0.0000
      9  N16       22.2660    6.7310   14.4930 N.2   964  CB4964      0.0000
     10  O17       22.7790    7.5640   15.6060 O.2   964  CB4964      0.0000
     11  C18       21.9520    8.7390   15.8120 C.3   964  CB4964      0.0000
     12  C14       22.6420    5.4120   12.5650 C.2   964  CB4964      0.0000
     13  C15       23.3890    4.6380   11.6080 C.3   964  CB4964      0.0000
     14  S16       22.4270    3.9240   10.4270 S.3   964  CB4964      0.0000
     15  C17       21.0380    4.5790   11.1120 C.2   964  CB4964      0.0000
     16  N18       19.7460    4.3870   10.6240 N.pl3 964  CB4964      0.0000
     17  N19       21.3200    5.3110   12.1890 N.2   964  CB4964      0.0000
     18  C19       21.7250    9.4830   14.4600 C.3   964  CB4964      0.0000
     19  C20       22.7070    9.7110   16.7580 C.3   964  CB4964      0.0000
     20  C21       20.6070    8.3520   16.4700 C.2   964  CB4964      0.0000
     21  O2A       19.5230    8.7950   15.9660 O.co2 964  CB4964      0.0000
     22  O2B       20.6300    7.6050   17.5080 O.co2 964  CB4964      0.0000
@<TRIPOS>BOND
     1    14    15    1
     2    14    13    1
     3    16    15    1
     4    15    17    2
     5    13    12    1
     6    17    12    2
     7    12     8    1
     8     7     6    2
     9     8     6    1
    10     8     9    2
    11     6     5   am
    12    18    11    1
    13     9    10    1
    14     5     4    1
    15     4     1    1
    16    10    11    1
    17    11    20    1
    18    11    19    1
    19    21    20   ar
    20    20    22   ar
    21     1     2    1
    22     1     3    1
