@<TRIPOS>MOLECULE
1iep_STI_A_1.pdb
 37 41 0 0 0
SMALL
GASTEIGER

@<TRIPOS>ATOM
      1  C1        11.8790   62.2720   12.5700 C.ar  201  STI201      0.0208
      2  C6        13.0020   61.4290   12.9100 C.ar  201  STI201      0.0057
      3  C5        13.0970   60.0700   12.3920 C.ar  201  STI201      0.0497
      4  C4        12.0310   59.5910   11.5250 C.ar  201  STI201      0.1014
      5  N3        10.9610   60.4250   11.2160 N.ar  201  STI201     -0.2422
      6  C2        10.8580   61.7340   11.7100 C.ar  201  STI201      0.0989
      7  C7        14.2380   59.1550   12.7120 C.2   201  STI201      0.1472
      8  C12       15.4330   59.5790   13.3830 C.2   201  STI201      0.0546
      9  C11       16.4280   58.6030   13.6150 C.2   201  STI201      0.1144
     10  N10       16.2320   57.3030   13.2020 N.2   201  STI201     -0.1683
     11  C9        15.0670   56.9270   12.5590 C.1   201  STI201      0.1696
     12  N8        14.1010   57.8400   12.3270 N.2   201  STI201     -0.3361
     13  N13       14.8520   55.6270   12.1280 N.pl3 201  STI201     -0.1360
     14  C14       15.8220   54.6410   12.3220 C.ar  201  STI201      0.0799
     15  C19       16.9500   54.5020   11.3930 C.ar  201  STI201     -0.0057
     16  C18       17.9150   53.4710   11.6480 C.ar  201  STI201     -0.0016
     17  C17       17.7740   52.5970   12.7860 C.ar  201  STI201      0.0164
     18  C16       16.6780   52.7270   13.6880 C.ar  201  STI201      0.0750
     19  C15       15.6980   53.7720   13.4360 C.ar  201  STI201      0.0336
     20  N21       16.6000   51.8100   14.7980 N.am  201  STI201     -0.1754
     21  C22       15.6290   51.7470   15.7840 C.2   201  STI201      0.2690
     22  C23       15.5950   50.5580   16.6890 C.ar  201  STI201      0.0554
     23  C25       14.4230   50.2680   17.5190 C.ar  201  STI201      0.0043
     24  C26       14.4230   49.1240   18.3960 C.ar  201  STI201     -0.0028
     25  C27       15.6000   48.2600   18.4460 C.ar  201  STI201     -0.0061
     26  C28       16.7470   48.5680   17.6080 C.ar  201  STI201     -0.0028
     27  C29       16.7510   49.6890   16.7480 C.ar  201  STI201      0.0043
     28  C46       15.6960   47.0300   19.3680 C.3   201  STI201      0.0992
     29  N48       16.9170   46.9070   20.2190 N.3   201  STI201     -0.2665
     30  C53       17.0970   48.1400   21.0700 C.3   201  STI201      0.0899
     31  C52       18.3750   48.0410   21.9490 C.3   201  STI201      0.0897
     32  N51       18.3370   46.7940   22.8210 N.3   201  STI201     -0.2691
     33  C54       19.5220   46.6550   23.6800 C.3   201  STI201      0.0897
     34  C50       18.1720   45.5330   21.9710 C.3   201  STI201      0.0897
     35  C49       16.8770   45.6580   21.1040 C.3   201  STI201      0.0899
     36  O29       14.7890   52.6120   15.9830 O.2   201  STI201     -0.2680
     37  C20       17.1480   55.4060   10.1540 C.3   201  STI201      0.0324
@<TRIPOS>BOND
     1    37    15    1
     2     5     4   ar
     3     5     6   ar
     4    15    16   ar
     5    15    14   ar
     6     4     3   ar
     7    16    17   ar
     8     6     1   ar
     9    13    14    1
    10    13    11    1
    11    14    19   ar
    12    12    11    2
    13    12     7    2
    14     3     7    1
    15     3     2   ar
    16    11    10    2
    17     1     2   ar
    18     7     8    1
    19    17    18   ar
    20    10     9    1
    21     8     9    2
    22    19    18   ar
    23    18    20    1
    24    20    21   am
    25    21    36    2
    26    21    22    1
    27    22    27   ar
    28    22    23   ar
    29    27    26   ar
    30    23    24   ar
    31    26    25   ar
    32    24    25   ar
    33    25    28    1
    34    28    29    1
    35    29    30    1
    36    29    35    1
    37    30    31    1
    38    35    34    1
    39    31    32    1
    40    34    32    1
    41    32    33    1
