@<TRIPOS>MOLECULE
1ieq_NAG_A_1.pdb
 14 14 0 0 0
SMALL
GASTEIGER

@<TRIPOS>ATOM
      1  C1        21.1590   37.2040   55.6000 C.3   613  NAG613      0.1665
      2  C2        20.9580   38.7130   55.6650 C.3   613  NAG613      0.1576
      3  C3        20.5710   39.2190   54.2770 C.3   613  NAG613      0.2069
      4  C4        21.6450   38.8150   53.2560 C.3   613  NAG613      0.2134
      5  C5        21.9980   37.3150   53.3540 C.3   613  NAG613      0.1809
      6  C6        23.2570   36.9940   52.5730 C.3   613  NAG613      0.2141
      7  C7        20.3140   39.4650   57.8530 C.2   613  NAG613      0.2420
      8  C8        19.5360   38.9130   59.0400 C.3   613  NAG613      0.0964
      9  N2        19.9450   39.0680   56.6390 N.am  613  NAG613     -0.2019
     10  O3        20.4510   40.6570   54.3100 O.3   613  NAG613     -0.2184
     11  O4        21.1700   39.1080   51.9250 O.3   613  NAG613     -0.2176
     12  O5        22.2550   36.9190   54.7240 O.3   613  NAG613     -0.3489
     13  O6        23.0070   36.0140   51.5800 O.3   613  NAG613     -0.2176
     14  O7        21.2540   40.2400   58.0410 O.2   613  NAG613     -0.2733
@<TRIPOS>BOND
     1    13     6    1
     2    11     4    1
     3     6     5    1
     4     4     5    1
     5     4     3    1
     6     5    12    1
     7     3    10    1
     8     3     2    1
     9    12     1    1
    10     1     2    1
    11     2     9    1
    12     9     7   am
    13     7    14    2
    14     7     8    1
