@<TRIPOS>MOLECULE
1ieq_BGC_A_1.pdb
 12 12 0 0 0
SMALL
GASTEIGER

@<TRIPOS>ATOM
      1  C2        24.9510   25.3350   36.9290 C.3   619  BGC619      0.2434
      2  C3        24.2740   24.1810   36.1670 C.3   619  BGC619      0.2199
      3  C4        23.6590   24.6840   34.8620 C.3   619  BGC619      0.2144
      4  C5        24.7260   25.4190   34.0430 C.3   619  BGC619      0.1836
      5  C6        24.2010   25.9700   32.7240 C.3   619  BGC619      0.2142
      6  C1        25.9190   26.1090   36.0110 C.3   619  BGC619      0.3024
      7  O1        26.3790   27.2430   36.6660 O.3   619  BGC619     -0.1869
      8  O2        25.6660   24.8180   38.0460 O.3   619  BGC619     -0.2148
      9  O3        23.2630   23.5900   36.9700 O.3   619  BGC619     -0.2174
     10  O4        23.1560   23.5830   34.1240 O.3   619  BGC619     -0.2176
     11  O5        25.2510   26.5300   34.8070 O.3   619  BGC619     -0.3236
     12  O6        24.1280   27.3910   32.7330 O.3   619  BGC619     -0.2176
@<TRIPOS>BOND
     1     5    12    1
     2     5     4    1
     3     4    11    1
     4     4     3    1
     5    10     3    1
     6    11     6    1
     7     3     2    1
     8     6     7    1
     9     6     1    1
    10     2     1    1
    11     2     9    1
    12     1     8    1
