@<TRIPOS>MOLECULE
1iev_INS_A_1.pdb
 11 11 0 0 0
SMALL
GASTEIGER

@<TRIPOS>ATOM
      1  C1        26.8590   24.8850   35.4790 C.3   617  INS617      0.0712
      2  C2        26.1710   25.1060   34.1730 C.3   617  INS617      0.1874
      3  C3        24.9530   24.2290   33.7170 C.3   617  INS617      0.2149
      4  C4        23.9120   24.2190   34.8120 C.3   617  INS617      0.2173
      5  C5        24.3880   23.9600   36.1930 C.3   617  INS617      0.2149
      6  C6        25.5700   24.9690   36.4750 C.3   617  INS617      0.1874
      7  O2        25.9110   26.4600   34.4480 O.3   617  INS617     -0.2202
      8  O3        24.2500   24.7760   32.5320 O.3   617  INS617     -0.2176
      9  O4        23.1700   23.0710   34.5380 O.3   617  INS617     -0.2175
     10  O5        23.1790   23.9160   37.0790 O.3   617  INS617     -0.2176
     11  O6        26.0570   24.6760   37.7640 O.3   617  INS617     -0.2202
@<TRIPOS>BOND
     1     8     3    1
     2     3     2    1
     3     3     4    1
     4     2     7    1
     5     2     1    1
     6     9     4    1
     7     4     5    1
     8     1     6    1
     9     5     6    1
    10     5    10    1
    11     6    11    1
