@<TRIPOS>MOLECULE
1iev_NAG_A_1.pdb
 14 14 0 0 0
SMALL
GASTEIGER

@<TRIPOS>ATOM
      1  C1        35.0770   25.8540   50.4950 C.3   610  NAG610      0.1665
      2  C2        36.3260   25.5550   49.7380 C.3   610  NAG610      0.1576
      3  C3        37.5410   26.0440   50.4320 C.3   610  NAG610      0.2069
      4  C4        37.4690   27.5400   50.6070 C.3   610  NAG610      0.2134
      5  C5        36.1030   27.6810   51.4840 C.3   610  NAG610      0.1809
      6  C6        35.5990   29.1250   51.3250 C.3   610  NAG610      0.2141
      7  C7        36.2700   23.5620   48.4120 C.2   610  NAG610      0.2420
      8  C8        36.5050   22.0760   48.2000 C.3   610  NAG610      0.0964
      9  N2        36.5340   24.1020   49.5890 N.am  610  NAG610     -0.2019
     10  O3        38.7800   25.7270   49.7750 O.3   610  NAG610     -0.2184
     11  O4        38.6300   28.4050   51.0520 O.3   610  NAG610     -0.2176
     12  O5        34.9120   27.0890   50.9620 O.3   610  NAG610     -0.3489
     13  O6        34.5000   29.1270   52.1960 O.3   610  NAG610     -0.2176
     14  O7        35.8160   24.2200   47.4890 O.2   610  NAG610     -0.2733
@<TRIPOS>BOND
     1    14     7    2
     2     8     7    1
     3     7     9   am
     4     9     2    1
     5     2     3    1
     6     2     1    1
     7    10     3    1
     8     3     4    1
     9     1    12    1
    10     4    11    1
    11     4     5    1
    12    12     5    1
    13     6     5    1
    14     6    13    1
