@<TRIPOS>MOLECULE
1iew_NAG_A_1.pdb
 14 14 0 0 0
SMALL
GASTEIGER

@<TRIPOS>ATOM
      1  C1        21.1750   37.0360   55.4790 C.3   613  NAG613      0.1665
      2  C2        20.7430   38.4840   55.5740 C.3   613  NAG613      0.1576
      3  C3        20.1290   38.7810   54.2270 C.3   613  NAG613      0.2069
      4  C4        21.2990   38.7760   53.2160 C.3   613  NAG613      0.2134
      5  C5        21.9480   37.3630   53.2220 C.3   613  NAG613      0.1809
      6  C6        23.2230   37.2800   52.4080 C.3   613  NAG613      0.2141
      7  C7        20.2650   39.3170   57.7790 C.2   613  NAG613      0.2420
      8  C8        19.2990   39.4100   58.9510 C.3   613  NAG613      0.0964
      9  N2        19.8260   38.7140   56.6730 N.am  613  NAG613     -0.2019
     10  O3        19.3450   40.0040   54.2690 O.3   613  NAG613     -0.2184
     11  O4        20.8300   39.0900   51.8890 O.3   613  NAG613     -0.2176
     12  O5        22.2850   36.9360   54.5750 O.3   613  NAG613     -0.3489
     13  O6        24.0320   36.1950   52.8350 O.3   613  NAG613     -0.2176
     14  O7        21.4040   39.7860   57.8830 O.2   613  NAG613     -0.2733
@<TRIPOS>BOND
     1    11     4    1
     2     6    13    1
     3     6     5    1
     4     4     5    1
     5     4     3    1
     6     5    12    1
     7     3    10    1
     8     3     2    1
     9    12     1    1
    10     1     2    1
    11     2     9    1
    12     9     7   am
    13     7    14    2
    14     7     8    1
