@<TRIPOS>MOLECULE
1iew_G2F_A_1.pdb
 11 11 0 0 0
SMALL
GASTEIGER

@<TRIPOS>ATOM
      1  C1        26.2920   25.1690   35.8020 C.3   620  G2F620      0.1801
      2  C2        25.2280   24.9670   36.8270 C.3   620  G2F620      0.2230
      3  C3        24.2680   23.8750   36.3110 C.3   620  G2F620      0.2194
      4  C4        23.6480   24.3810   35.0010 C.3   620  G2F620      0.2144
      5  C5        24.7840   24.6150   33.9570 C.3   620  G2F620      0.1810
      6  C6        24.2900   25.1740   32.5870 C.3   620  G2F620      0.2141
      7  O3        23.2460   23.6530   37.2850 O.3   620  G2F620     -0.2173
      8  O4        22.7320   23.4270   34.4640 O.3   620  G2F620     -0.2176
      9  O5        25.7270   25.5710   34.5130 O.3   620  G2F620     -0.3479
     10  O6        23.8910   26.5350   32.7080 O.3   620  G2F620     -0.2176
     11  F2        25.8230   24.5700   38.0300 F     620  G2F620     -0.2317
@<TRIPOS>BOND
     1     6    10    1
     2     6     5    1
     3     5     9    1
     4     5     4    1
     5     8     4    1
     6     9     1    1
     7     4     3    1
     8     1     2    1
     9     3     2    1
    10     3     7    1
    11     2    11    1
