@<TRIPOS>MOLECULE
1iex_TCB_A_1.pdb
 23 24 0 0 0
SMALL
GASTEIGER

@<TRIPOS>ATOM
      1  C1        25.3390   26.7870   36.4480 C.3   617  TCB617      0.1956
      2  C2        24.3860   25.9050   37.4760 C.3   617  TCB617      0.2219
      3  C3        23.7110   24.6490   36.7510 C.3   617  TCB617      0.2181
      4  C4        23.1040   25.0400   35.2720 C.3   617  TCB617      0.2143
      5  C5        24.2860   25.6920   34.3980 C.3   617  TCB617      0.1820
      6  C6        23.9910   26.2070   32.9550 C.3   617  TCB617      0.2142
      7  O2        25.1370   25.4730   38.5690 O.3   617  TCB617     -0.2167
      8  O3        22.6950   24.1400   37.6080 O.3   617  TCB617     -0.2175
      9  O4        22.5070   23.9430   34.6830 O.3   617  TCB617     -0.2176
     10  O5        24.6960   26.8790   35.1090 O.3   617  TCB617     -0.3398
     11  O6        23.1470   27.4020   32.9920 O.3   617  TCB617     -0.2176
     12  C1'       26.1180   32.6270   35.1570 C.3   617  TCB617      0.3022
     13  C2'       25.1710   31.6800   34.2640 C.3   617  TCB617      0.2417
     14  C3'       24.6370   30.4130   35.1170 C.3   617  TCB617      0.1997
     15  C4'       25.8880   29.5430   35.9250 C.3   617  TCB617      0.1128
     16  C5'       26.8020   30.6650   36.6920 C.3   617  TCB617      0.1632
     17  C6'       28.1890   30.1770   37.3070 C.3   617  TCB617      0.2124
     18  O1'       26.7580   33.7070   34.3690 O.3   617  TCB617     -0.1869
     19  O2'       24.0200   32.4000   33.7580 O.3   617  TCB617     -0.2148
     20  O3'       23.8380   29.6860   34.0830 O.3   617  TCB617     -0.2192
     21  S4'       25.3390   28.4090   37.2400 S.3   617  TCB617     -0.1050
     22  O5'       27.1890   31.7790   35.7750 O.3   617  TCB617     -0.3254
     23  O6'       28.0470   29.5460   38.5980 O.3   617  TCB617     -0.2177
@<TRIPOS>BOND
     1     6    11    1
     2     6     5    1
     3    19    13    1
     4    20    14    1
     5    13    14    1
     6    13    12    1
     7    18    12    1
     8     5    10    1
     9     5     4    1
    10     9     4    1
    11    10     1    1
    12    14    15    1
    13    12    22    1
    14     4     3    1
    15    22    16    1
    16    15    16    1
    17    15    21    1
    18     1    21    1
    19     1     2    1
    20    16    17    1
    21     3     2    1
    22     3     8    1
    23    17    23    1
    24     2     7    1
