@<TRIPOS>MOLECULE
1iex_NAG_A_1.pdb
 14 14 0 0 0
SMALL
GASTEIGER

@<TRIPOS>ATOM
      1  C1        20.2320   38.3230   55.9690 C.3   611  NAG611      0.1665
      2  C2        20.2250   39.8590   56.0420 C.3   611  NAG611      0.1576
      3  C3        19.9280   40.4580   54.6590 C.3   611  NAG611      0.2069
      4  C4        20.8680   39.8760   53.5910 C.3   611  NAG611      0.2134
      5  C5        20.8680   38.3390   53.6590 C.3   611  NAG611      0.1809
      6  C6        21.8840   37.7100   52.7270 C.3   611  NAG611      0.2141
      7  C7        19.5520   40.4490   58.2790 C.2   611  NAG611      0.2420
      8  C8        18.5760   39.8880   59.2990 C.3   611  NAG611      0.0964
      9  N2        19.2320   40.3160   56.9960 N.am  611  NAG611     -0.2019
     10  O3        20.0830   41.8910   54.7060 O.3   611  NAG611     -0.2184
     11  O4        20.4160   40.3000   52.2870 O.3   611  NAG611     -0.2176
     12  O5        21.1930   37.8910   54.9950 O.3   611  NAG611     -0.3489
     13  O6        23.2080   37.9230   53.1940 O.3   611  NAG611     -0.2176
     14  O7        20.5920   40.9910   58.6560 O.2   611  NAG611     -0.2733
@<TRIPOS>BOND
     1    11     4    1
     2     6    13    1
     3     6     5    1
     4     4     5    1
     5     4     3    1
     6     5    12    1
     7     3    10    1
     8     3     2    1
     9    12     1    1
    10     1     2    1
    11     2     9    1
    12     9     7   am
    13     7    14    2
    14     7     8    1
