@<TRIPOS>MOLECULE
1if2_129_A_1.pdb
 10 9 0 0 0
SMALL
GASTEIGER

@<TRIPOS>ATOM
      1  P          7.6980   -1.8300   18.5010 P.3   600  129600      0.1189
      2  O1P        6.2840   -1.3030   18.8010 O.3   600  129600     -0.3571
      3  O2P        7.9410   -3.1090   19.3160 O.3   600  129600     -0.3571
      4  O3P        8.7320   -0.7240   18.7710 O.2   600  129600     -0.4600
      5  C4         7.8270   -2.2650   16.7590 C.3   600  129600      0.0809
      6  C3         9.2880   -2.1810   16.2660 C.3   600  129600      0.1057
      7  N2         9.1910   -2.2530   14.8000 N.am  600  129600     -0.2791
      8  C1         9.6010   -1.3610   13.9370 C.2   600  129600      0.1130
      9  O1         9.1680   -1.3510   12.8080 O.2   600  129600     -0.5358
     10  O2         8.2360   -3.1440   14.2930 O.3   600  129600     -0.4195
@<TRIPOS>BOND
     1     9     8    2
     2     8     7   am
     3    10     7    1
     4     7     6    1
     5     6     5    1
     6     5     1    1
     7     1     4    2
     8     1     2    1
     9     1     3    1
