@<TRIPOS>MOLECULE
1if4_FBS_A_1.pdb
 11 11 0 0 0
SMALL
GASTEIGER

@<TRIPOS>ATOM
      1  C01       -4.5100    3.2340   14.6860 C.ar  555  FBS555      0.1402
      2  C02       -3.6460    2.1100   14.8120 C.ar  555  FBS555      0.0310
      3  C03       -4.0680    0.9360   15.5330 C.ar  555  FBS555      0.0223
      4  C04       -5.3930    0.8650   16.1550 C.ar  555  FBS555      0.1252
      5  C05       -6.2290    2.0250   16.0030 C.ar  555  FBS555      0.0223
      6  C06       -5.7920    3.1880   15.2810 C.ar  555  FBS555      0.0310
      7  S07       -5.9470   -0.4070   16.9940 S.O2  555  FBS555      0.0935
      8  O08       -5.3720   -0.3810   18.3120 O.2   555  FBS555     -0.1503
      9  O09       -7.3400   -0.3030   17.1420 O.2   555  FBS555     -0.1503
     10  NP0       -5.6500   -1.7140   16.3310 N.3   555  FBS555      0.0392
     11  F11       -4.1050    4.3490   14.0050 F     555  FBS555     -0.2042
@<TRIPOS>BOND
     1    11     1    1
     2     1     2   ar
     3     1     6   ar
     4     2     3   ar
     5     6     5   ar
     6     3     4   ar
     7     5     4   ar
     8     4     7    1
     9    10     7    1
    10     7     9    2
    11     7     8    2
