@<TRIPOS>MOLECULE
1if5_FBT_A_1.pdb
 12 12 0 0 0
SMALL
GASTEIGER

@<TRIPOS>ATOM
      1  C01       -4.6670    4.4190   14.5410 C.ar  555  FBT555      0.0047
      2  C02       -3.7430    3.3400   14.7500 C.ar  555  FBT555      0.0312
      3  C03       -4.1440    2.1780   15.4810 C.ar  555  FBT555      0.1609
      4  C04       -5.4960    2.0680   16.0260 C.ar  555  FBT555      0.1795
      5  C05       -6.3910    3.1750   15.7950 C.ar  555  FBT555      0.1609
      6  C06       -5.9760    4.3280   15.0620 C.ar  555  FBT555      0.0312
      7  S07       -5.9940    0.7960   16.8590 S.O2  555  FBT555      0.0978
      8  O08       -5.3400    0.8030   18.1540 O.2   555  FBT555     -0.1502
      9  O09       -7.3860    0.8700   17.0620 O.2   555  FBT555     -0.1502
     10  NP0       -5.6940   -0.4720   16.1940 N.3   555  FBT555      0.0394
     11  F11       -3.2550    1.1600   15.6740 F     555  FBT555     -0.2027
     12  F12       -7.6610    3.1330   16.2860 F     555  FBT555     -0.2027
@<TRIPOS>BOND
     1     1     2   ar
     2     1     6   ar
     3     2     3   ar
     4     6     5   ar
     5     3    11    1
     6     3     4   ar
     7     5     4   ar
     8     5    12    1
     9     4     7    1
    10    10     7    1
    11     7     9    2
    12     7     8    2
