@<TRIPOS>MOLECULE
1if6_FBU_A_1.pdb
 12 12 0 0 0
SMALL
GASTEIGER

@<TRIPOS>ATOM
      1  C01       -4.7350    4.0670   14.5610 C.ar  555  FBU555      0.0593
      2  C02       -3.8500    2.9540   14.6150 C.ar  555  FBU555      0.1437
      3  C03       -4.1900    1.8000   15.3920 C.ar  555  FBU555      0.0498
      4  C04       -5.4270    1.7450   16.1290 C.ar  555  FBU555      0.1295
      5  C05       -6.2840    2.8780   16.0540 C.ar  555  FBU555      0.0498
      6  C06       -5.9430    4.0210   15.2810 C.ar  555  FBU555      0.1437
      7  S07       -5.8640    0.5090   17.0000 S.O2  555  FBU555      0.0936
      8  O08       -5.4110    0.6460   18.3800 O.2   555  FBU555     -0.1503
      9  O09       -7.2690    0.4050   17.0160 O.2   555  FBU555     -0.1503
     10  NP0       -5.2970   -0.7080   16.4500 N.3   555  FBU555      0.0392
     11  F11       -6.7960    5.0890   15.2350 F     555  FBU555     -0.2041
     12  F12       -2.6710    2.9850   13.9200 F     555  FBU555     -0.2041
@<TRIPOS>BOND
     1    12     2    1
     2     1     2   ar
     3     1     6   ar
     4     2     3   ar
     5    11     6    1
     6     6     5   ar
     7     3     4   ar
     8     5     4   ar
     9     4     7    1
    10    10     7    1
    11     7     9    2
    12     7     8    2
