@<TRIPOS>MOLECULE
1if7_SBR_A_1.pdb
 26 28 0 0 0
SMALL
GASTEIGER

@<TRIPOS>ATOM
      1  C01       -1.4150    7.5700   12.4240 C.3   555  SBR555      0.1078
      2  C02       -2.4830    6.7100   13.1760 C.3   555  SBR555      0.0443
      3  C03       -2.9290    5.5870   12.2330 C.3   555  SBR555      0.1174
      4  N04       -3.1040    4.2970   13.0760 N.am  555  SBR555     -0.2016
      5  C05       -4.4140    4.2160   13.6600 C.2   555  SBR555      0.2648
      6  O06       -5.2100    5.1280   13.4560 O.2   555  SBR555     -0.2684
      7  C07       -4.7370    3.1110   14.4160 C.ar  555  SBR555      0.0551
      8  C08       -3.8070    2.0420   14.6420 C.ar  555  SBR555      0.0059
      9  C09       -4.1770    0.8990   15.4200 C.ar  555  SBR555      0.0202
     10  C10       -5.5020    0.8150   15.9910 C.ar  555  SBR555      0.1251
     11  C11       -6.3960    1.8940   15.7530 C.ar  555  SBR555      0.0202
     12  C12       -6.0180    3.0150   14.9830 C.ar  555  SBR555      0.0059
     13  S13       -6.0080   -0.3710   16.8450 S.O2  555  SBR555      0.0935
     14  O14       -5.4510   -0.3090   18.1820 O.2   555  SBR555     -0.1503
     15  O15       -7.4220   -0.2950   16.9430 O.2   555  SBR555     -0.1503
     16  NP6       -5.6630   -1.6830   16.2030 N.3   555  SBR555      0.0392
     17  N17       -0.9680    8.6830   13.2440 N.ar  555  SBR555     -0.3260
     18  C18       -0.0340    8.5850   14.2160 C.ar  555  SBR555      0.0759
     19  C19        0.1420    9.9250   14.8090 C.ar  555  SBR555      0.0201
     20  C20       -1.3740    9.9150   13.1760 C.ar  555  SBR555      0.0599
     21  C21       -2.3340   10.5280   12.3300 C.ar  555  SBR555      0.0172
     22  C22       -2.6030   11.9090   12.4500 C.ar  555  SBR555      0.0015
     23  C23       -1.9160   12.6800   13.4200 C.ar  555  SBR555      0.0001
     24  C24       -0.9570   12.0700   14.2680 C.ar  555  SBR555      0.0015
     25  C25       -0.6860   10.6870   14.1470 C.ar  555  SBR555      0.0173
     26  C26       -1.8740    6.1190   14.4700 C.3   555  SBR555      0.0038
@<TRIPOS>BOND
     1     3     4    1
     2     3     2    1
     3    21    22   ar
     4    21    20   ar
     5     1     2    1
     6     1    17    1
     7    22    23   ar
     8     4     5   am
     9     2    26    1
    10    20    17   ar
    11    20    25   ar
    12    17    18   ar
    13    23    24   ar
    14     6     5    2
    15     5     7    1
    16    25    24   ar
    17    25    19   ar
    18    18    19   ar
    19     7     8   ar
    20     7    12   ar
    21     8     9   ar
    22    12    11   ar
    23     9    10   ar
    24    11    10   ar
    25    10    13    1
    26    16    13    1
    27    13    15    2
    28    13    14    2
