@<TRIPOS>MOLECULE
1if8_SBS_A_1.pdb
 26 28 0 0 0
SMALL
GASTEIGER

@<TRIPOS>ATOM
      1  C01       -0.6930    8.1310   12.6340 C.3   555  SBS555      0.1078
      2  C02       -1.3240    6.9590   13.4850 C.3   555  SBS555      0.0443
      3  C03       -2.6530    6.4880   12.8880 C.3   555  SBS555      0.1174
      4  N04       -2.9960    5.1670   13.5830 N.am  555  SBS555     -0.2016
      5  C05       -4.3520    5.1130   14.1120 C.2   555  SBS555      0.2648
      6  O06       -5.0820    6.0970   13.9510 O.2   555  SBS555     -0.2684
      7  C07       -4.7640    3.9310   14.7890 C.ar  555  SBS555      0.0551
      8  C08       -3.8710    2.8290   14.9440 C.ar  555  SBS555      0.0059
      9  C09       -4.2720    1.6380   15.6340 C.ar  555  SBS555      0.0202
     10  C10       -5.6040    1.5140   16.2020 C.ar  555  SBS555      0.1251
     11  C11       -6.4850    2.6340   16.0310 C.ar  555  SBS555      0.0202
     12  C12       -6.0760    3.8090   15.3410 C.ar  555  SBS555      0.0059
     13  S13       -6.1150    0.2340   17.0070 S.O2  555  SBS555      0.0935
     14  O14       -5.5220    0.2440   18.3340 O.2   555  SBS555     -0.1503
     15  O15       -7.5440    0.3170   17.1290 O.2   555  SBS555     -0.1503
     16  NP6       -5.8280   -1.1030   16.2890 N.3   555  SBS555      0.0392
     17  NP7        0.6010    8.4970   13.2440 N.ar  555  SBS555     -0.3260
     18  C18        1.8200    7.8620   12.9560 C.ar  555  SBS555      0.0759
     19  C19        2.8840    8.5310   13.7870 C.ar  555  SBS555      0.0201
     20  C20        0.8390    9.4810   14.1640 C.ar  555  SBS555      0.0599
     21  C21       -0.0670   10.4270   14.7940 C.ar  555  SBS555      0.0172
     22  C22        0.4230   11.3670   15.7480 C.ar  555  SBS555      0.0015
     23  C23        1.8280   11.3810   16.0910 C.ar  555  SBS555      0.0001
     24  C24        2.7420   10.4390   15.4590 C.ar  555  SBS555      0.0015
     25  C25        2.2370    9.4860   14.4890 C.ar  555  SBS555      0.0173
     26  C26       -1.6060    7.4340   14.9370 C.3   555  SBS555      0.0038
@<TRIPOS>BOND
     1     1    17    1
     2     1     2    1
     3     3     2    1
     4     3     4    1
     5    18    17   ar
     6    18    19   ar
     7    17    20   ar
     8     2    26    1
     9     4     5   am
    10    19    25   ar
    11     6     5    2
    12     5     7    1
    13    20    25   ar
    14    20    21   ar
    15    25    24   ar
    16     7     8   ar
    17     7    12   ar
    18    21    22   ar
    19     8     9   ar
    20    12    11   ar
    21    24    23   ar
    22     9    10   ar
    23    22    23   ar
    24    11    10   ar
    25    10    13    1
    26    16    13    1
    27    13    15    2
    28    13    14    2
