@<TRIPOS>MOLECULE
1if9_SBB_A_1.pdb
 26 28 0 0 0
SMALL
GASTEIGER

@<TRIPOS>ATOM
      1  C01       -3.6570    3.7200   14.6580 C.ar  555  SBB555      0.0059
      2  C02       -4.0070    2.6030   15.4510 C.ar  555  SBB555      0.0202
      3  C03       -5.3540    2.4190   15.8380 C.ar  555  SBB555      0.1251
      4  C04       -6.2640    3.3930   15.3930 C.ar  555  SBB555      0.0202
      5  C05       -5.9000    4.4870   14.6140 C.ar  555  SBB555      0.0059
      6  C06       -4.5890    4.6840   14.2220 C.ar  555  SBB555      0.0551
      7  C07       -4.1870    5.8900   13.3460 C.2   555  SBB555      0.2648
      8  O08       -5.0980    6.5870   12.9050 O.2   555  SBB555     -0.2684
      9  N09       -2.8200    6.1670   13.0410 N.am  555  SBB555     -0.2016
     10  C10       -2.1610    7.2290   12.2140 C.3   555  SBB555      0.1161
     11  C11       -2.5120    8.7540   12.1670 C.3   555  SBB555      0.0298
     12  C12       -1.2380    9.6410   12.2580 C.3   555  SBB555      0.0024
     13  C13       -1.5420   11.0750   12.7320 C.3   555  SBB555      0.0001
     14  S14       -5.8780    0.9710   16.8620 S.O2  555  SBB555      0.0935
     15  N15       -5.2090   -0.4100   16.2100 N.3   555  SBB555      0.0392
     16  O16       -7.3430    0.8320   16.8350 O.2   555  SBB555     -0.1503
     17  O17       -5.2160    1.1820   18.1330 O.2   555  SBB555     -0.1503
     18  C18       -6.6120   11.1300   10.0240 C.2   555  SBB555      0.0218
     19  C19       -6.9460   11.2300    8.7200 C.2   555  SBB555      0.0989
     20  C20       -5.3690   10.3600   10.0970 C.2   555  SBB555      0.0152
     21  N21       -5.9930   10.5730    7.9590 N.2   555  SBB555     -0.2439
     22  C22       -5.0150   10.0330    8.7750 C.2   555  SBB555      0.0807
     23  C23       -4.5780    9.9570   11.1900 C.2   555  SBB555     -0.0205
     24  C24       -3.8530    9.2860    8.5070 C.2   555  SBB555      0.0148
     25  C25       -3.3930    9.2010   10.9730 C.3   555  SBB555      0.0457
     26  C26       -3.0610    8.8840    9.6180 C.2   555  SBB555     -0.0205
@<TRIPOS>BOND
     1    21    19    1
     2    21    22    2
     3    24    22    1
     4    24    26    2
     5    19    18    2
     6    22    20    1
     7    26    25    1
     8    18    20    1
     9    20    23    2
    10    25    23    1
    11    25    11    1
    12    11    10    1
    13    11    12    1
    14    10     9    1
    15    12    13    1
    16     8     7    2
    17     9     7   am
    18     7     6    1
    19     6     5   ar
    20     6     1   ar
    21     5     4   ar
    22     1     2   ar
    23     4     3   ar
    24     2     3   ar
    25     3    14    1
    26    15    14    1
    27    16    14    2
    28    14    17    2
