@<TRIPOS>MOLECULE
1ifs_ADE_A_1.pdb
 10 11 0 0 0
SMALL
GASTEIGER

@<TRIPOS>ATOM
      1  N9        56.9790  -23.6100   97.4260 N.2   300  ADE300     -0.1914
      2  C8        56.6070  -24.2280   98.5890 C.3   300  ADE300      0.2618
      3  N7        57.5850  -24.4350   99.4110 N.2   300  ADE300     -0.2267
      4  C5        58.6750  -23.9440   98.7650 C.2   300  ADE300      0.2303
      5  C6        59.9980  -23.8890   99.1270 C.2   300  ADE300      0.4393
      6  N6        60.4270  -24.3750  100.2940 N.pl3 300  ADE300      0.2185
      7  N1        60.8090  -23.3230   98.2310 N.2   300  ADE300     -0.0265
      8  C2        60.3130  -22.8620   97.1000 C.3   300  ADE300      0.4008
      9  N3        59.1050  -22.8530   96.6330 N.2   300  ADE300     -0.1640
     10  C4        58.3260  -23.4280   97.5470 C.1   300  ADE300      0.0579
@<TRIPOS>BOND
     1     9     8    1
     2     9    10    2
     3     8     7    1
     4     1    10    2
     5     1     2    1
     6    10     4    1
     7     7     5    2
     8     2     3    1
     9     4     5    1
    10     4     3    2
    11     5     6    1
