@<TRIPOS>MOLECULE
1ifu_FMC_A_1.pdb
 17 19 0 0 0
SMALL
GASTEIGER

@<TRIPOS>ATOM
      1  N1        60.5800  -23.4560   98.3750 N.2   264  FMC264     -0.0278
      2  C2        60.0870  -23.0600   97.2310 C.3   264  FMC264      0.3922
      3  N3        58.9040  -23.2050   96.7920 N.2   264  FMC264     -0.2155
      4  C4        58.1530  -23.8540   97.6930 C.2   264  FMC264      0.1251
      5  C5        58.5560  -24.2920   98.9280 C.2   264  FMC264      0.2111
      6  C6        59.8540  -24.0890   99.3080 C.2   264  FMC264      0.4334
      7  N6        60.3740  -24.4930  100.4700 N.pl3 264  FMC264      0.2178
      8  N7        57.5360  -24.9090   99.5160 N.2   264  FMC264     -0.1387
      9  N8        56.5040  -24.8620   98.6450 N.2   264  FMC264     -0.1480
     10  C9        56.7930  -24.2260   97.4890 C.2   264  FMC264      0.1291
     11  C1'       55.8260  -23.9700   96.3090 C.3   264  FMC264      0.1910
     12  C2'       56.4910  -23.8720   94.9190 C.3   264  FMC264      0.2173
     13  O2'       55.6520  -23.0510   93.9660 O.3   264  FMC264     -0.2173
     14  C3'       56.5740  -25.3040   94.5890 C.3   264  FMC264      0.2143
     15  O3'       56.9320  -25.3560   93.2060 O.3   264  FMC264     -0.2176
     16  C4'       55.0940  -25.6610   94.9450 C.3   264  FMC264      0.1781
     17  O4'       54.8450  -25.0260   96.1980 O.3   264  FMC264     -0.3447
@<TRIPOS>BOND
     1    15    14    1
     2    13    12    1
     3    14    12    1
     4    14    16    1
     5    12    11    1
     6    16    17    1
     7    17    11    1
     8    11    10    1
     9     3     2    1
    10     3     4    2
    11     2     1    1
    12    10     4    1
    13    10     9    2
    14     4     5    1
    15     1     6    2
    16     9     8    1
    17     5     6    1
    18     5     8    2
    19     6     7    1
