@<TRIPOS>MOLECULE
1ifx_DND_A_1.pdb
 44 48 0 0 0
SMALL
GASTEIGER

@<TRIPOS>ATOM
      1  PN        18.6190   55.1940   36.5720 P.3   8000  DND8000     0.2189
      2  O11       19.2620   53.8590   36.4920 O.3   8000  DND8000    -0.4371
      3  O12       19.4130   56.4050   36.2190 O.2   8000  DND8000    -0.5170
      4  O3P       17.1690   55.1010   35.8280 O.3   8000  DND8000    -0.2703
      5  O5D       17.8810   55.3830   37.9680 O.3   8000  DND8000    -0.3112
      6  C5D       17.7440   54.4140   38.9650 C.3   8000  DND8000     0.1813
      7  C4D       18.2120   55.4270   39.9540 C.3   8000  DND8000     0.1799
      8  O4D       17.8930   56.8290   39.9090 O.3   8000  DND8000    -0.3327
      9  C3D       18.9990   55.0900   41.2000 C.3   8000  DND8000     0.2158
     10  O3D       18.6260   54.1830   42.2210 O.3   8000  DND8000    -0.2175
     11  C2D       19.5980   56.4240   41.4930 C.3   8000  DND8000     0.2309
     12  O2D       20.8500   56.6550   40.8510 O.3   8000  DND8000    -0.2158
     13  C1D       18.2960   57.0950   41.2470 C.3   8000  DND8000     0.2263
     14  N1N       17.2820   57.0570   42.3200 N.pl3 8000  DND8000    -0.2787
     15  C6N       15.9060   56.8240   42.0770 C.3   8000  DND8000     0.1195
     16  C5N       15.0110   56.8280   43.1290 C.2   8000  DND8000    -0.0044
     17  C4N       15.5370   56.9780   44.4310 C.2   8000  DND8000     0.0050
     18  C3N       16.9270   57.0960   44.7050 C.2   8000  DND8000     0.0940
     19  C2N       17.7840   57.2090   43.6160 C.2   8000  DND8000     0.0699
     20  C7N       17.5160   56.5400   46.0350 C.2   8000  DND8000     0.3890
     21  O7N       16.7790   56.6530   47.0370 O.co2 8000  DND8000    -0.2405
     22  O8N       18.6410   55.9920   46.0050 O.co2 8000  DND8000    -0.2405
     23  PA        16.1780   56.0600   34.9910 P.3   8000  DND8000     0.2189
     24  O13       15.0720   55.1910   34.4810 O.2   8000  DND8000    -0.5170
     25  O14       15.8550   57.1780   35.8510 O.3   8000  DND8000    -0.4371
     26  O5B       16.9710   56.6230   33.6510 O.3   8000  DND8000    -0.3112
     27  C5B       17.7610   55.7420   32.8330 C.3   8000  DND8000     0.1813
     28  C4B       17.0690   55.6810   31.5020 C.3   8000  DND8000     0.1821
     29  O4B       16.8450   56.9480   30.8650 O.3   8000  DND8000    -0.3135
     30  C3B       17.0190   54.5140   30.5060 C.3   8000  DND8000     0.2184
     31  O3B       16.4210   53.2030   30.6320 O.3   8000  DND8000    -0.2174
     32  C2B       16.6680   55.2020   29.2160 C.3   8000  DND8000     0.2570
     33  O2B       15.3450   54.7310   28.8690 O.3   8000  DND8000    -0.2130
     34  C1B       17.0920   56.6190   29.4920 C.3   8000  DND8000     0.3186
     35  N9A       18.2260   57.2670   28.8790 N.pl3 8000  DND8000    -0.1439
     36  C4A       18.2620   58.1230   27.8630 C.2   8000  DND8000     0.3518
     37  N3A       17.4200   58.9060   27.1700 N.2   8000  DND8000    -0.0055
     38  C2A       17.9100   59.8020   26.2950 C.3   8000  DND8000     0.5254
     39  N1A       19.2350   59.9810   26.0880 N.2   8000  DND8000     0.0021
     40  C6A       20.1540   59.2530   26.7710 C.2   8000  DND8000     0.4393
     41  C5A       19.6280   58.3170   27.6600 C.2   8000  DND8000     0.2526
     42  N7A       20.3910   57.6940   28.5480 N.2   8000  DND8000    -0.2095
     43  C8A       19.4940   57.0090   29.2580 C.3   8000  DND8000     0.3377
     44  N6A       21.4570   59.5210   26.7550 N.pl3 8000  DND8000     0.2180
@<TRIPOS>BOND
     1    39    38    1
     2    39    40    2
     3    38    37    1
     4    44    40    1
     5    40    41    1
     6    37    36    2
     7    41    36    1
     8    41    42    2
     9    36    35    1
    10    42    43    1
    11    33    32    1
    12    35    43    1
    13    35    34    1
    14    32    34    1
    15    32    30    1
    16    34    29    1
    17    30    31    1
    18    30    28    1
    19    29    28    1
    20    28    27    1
    21    27    26    1
    22    26    23    1
    23    24    23    2
    24    23     4    1
    25    23    25    1
    26     4     1    1
    27     3     1    2
    28     2     1    1
    29     1     5    1
    30     5     6    1
    31     6     7    1
    32     8     7    1
    33     8    13    1
    34     7     9    1
    35    12    11    1
    36     9    11    1
    37     9    10    1
    38    13    11    1
    39    13    14    1
    40    15    14    1
    41    15    16    1
    42    14    19    1
    43    16    17    2
    44    19    18    2
    45    17    18    1
    46    18    20    1
    47    22    20   ar
    48    20    21   ar
