@<TRIPOS>MOLECULE
1ig0_VIB_A_1.pdb
 18 19 0 0 0
SMALL
GASTEIGER

@<TRIPOS>ATOM
      1  CM2       46.3440   32.9250   17.0050 C.3   702  VIB702      0.1291
      2  N4A       49.1490   30.3080   20.1410 N.pl3 702  VIB702     -0.0925
      3  CM4       49.2850   31.2900   25.1440 C.3   702  VIB702      0.0473
      4  O1        45.5870   28.9070   26.8720 O.3   702  VIB702     -0.2200
      5  C7        46.8670   29.2240   27.4290 C.3   702  VIB702      0.1873
      6  C6        47.9830   28.8140   26.4330 C.3   702  VIB702      0.0691
      7  C2        46.8790   29.8960   22.8500 C.3   702  VIB702      0.1543
      8  S1        46.4310   28.5750   23.9740 S.3   702  VIB702     -0.0951
      9  C5        47.6580   29.3540   25.0430 C.2   702  VIB702      0.0165
     10  C4        48.2180   30.4480   24.4600 C.2   702  VIB702      0.0279
     11  N3        47.7620   30.6860   23.2790 N.pl3 702  VIB702     -0.2970
     12  C7A       48.2170   31.8260   22.4340 C.3   702  VIB702      0.1237
     13  C4A       48.2160   31.3440   19.9340 C.2   702  VIB702      0.2292
     14  N3A       47.7610   31.6140   18.6250 N.2   702  VIB702     -0.3368
     15  C2A       46.8300   32.6400   18.3980 C.1   702  VIB702      0.0663
     16  N1A       46.3580   33.4010   19.4830 N.2   702  VIB702     -0.1861
     17  C6A       46.8100   33.1350   20.7910 C.2   702  VIB702      0.1115
     18  C5A       47.7420   32.1080   21.0250 C.2   702  VIB702      0.0654
@<TRIPOS>BOND
     1     1    15    1
     2    15    14    2
     3    15    16    2
     4    14    13    2
     5    16    17    1
     6    13     2    1
     7    13    18    1
     8    17    18    2
     9    18    12    1
    10    12    11    1
    11     7    11    1
    12     7     8    1
    13    11    10    1
    14     8     9    1
    15    10     9    2
    16    10     3    1
    17     9     6    1
    18     6     5    1
    19     4     5    1
