@<TRIPOS>MOLECULE
1ig1_ANP_A_1.pdb
 31 33 0 0 0
SMALL
GASTEIGER

@<TRIPOS>ATOM
      1  PG        29.7990   35.2880   11.2120 P.3   300  ANP300      0.4884
      2  O1G       31.1130   34.8080   10.6240 O.3   300  ANP300     -0.1240
      3  O2G       29.1620   36.4060   10.4020 O.2   300  ANP300     -0.2331
      4  O3G       29.9120   35.6160   12.6890 O.3   300  ANP300     -0.1240
      5  PB        28.9560   32.4250   11.2980 P.3   300  ANP300      0.4669
      6  O1B       30.0860   32.0290   10.4090 O.2   300  ANP300     -0.2351
      7  O2B       29.0320   32.1850   12.7620 O.3   300  ANP300     -0.1253
      8  N3B       28.7700   34.0310   11.0960 N.3   300  ANP300     -0.0163
      9  PA        27.0150   30.4060   10.9340 P.3   300  ANP300      0.2220
     10  O1A       26.9590   29.7430    9.6060 O.2   300  ANP300     -0.5170
     11  O2A       27.6140   29.7100   12.0760 O.3   300  ANP300     -0.4370
     12  O3A       27.6870   31.7640   10.7590 O.3   300  ANP300     -0.2360
     13  O5'       25.4760   30.7120   11.3780 O.3   300  ANP300     -0.3111
     14  C5'       25.1870   31.4110   12.6110 C.3   300  ANP300      0.1813
     15  C4'       24.1750   30.6400   13.4210 C.3   300  ANP300      0.1821
     16  O4'       23.0260   30.3490   12.5860 O.3   300  ANP300     -0.3135
     17  C3'       24.6400   29.2800   13.9180 C.3   300  ANP300      0.2184
     18  O3'       25.5860   29.2660   15.0030 O.3   300  ANP300     -0.2174
     19  C2'       23.3390   28.5060   14.0740 C.3   300  ANP300      0.2570
     20  O2'       22.6890   28.8190   15.2910 O.3   300  ANP300     -0.2130
     21  C1'       22.5140   29.0640   12.9080 C.3   300  ANP300      0.3186
     22  N9        22.5950   28.2410   11.7010 N.pl3 300  ANP300     -0.1439
     23  C8        23.5690   28.2680   10.7330 C.3   300  ANP300      0.3377
     24  N7        23.3760   27.4080    9.7650 N.2   300  ANP300     -0.2095
     25  C5        22.1950   26.7730   10.1150 C.2   300  ANP300      0.2526
     26  C6        21.4480   25.7570    9.4950 C.2   300  ANP300      0.4393
     27  N6        21.8010   25.1750    8.3450 N.pl3 300  ANP300      0.2180
     28  N1        20.3120   25.3500   10.1050 N.2   300  ANP300      0.0021
     29  C2        19.9650   25.9300   11.2600 C.3   300  ANP300      0.5254
     30  N3        20.5840   26.8950   11.9410 N.2   300  ANP300     -0.0055
     31  C4        21.7030   27.2760   11.3070 C.2   300  ANP300      0.3518
@<TRIPOS>BOND
     1    27    26    1
     2    26    28    2
     3    26    25    1
     4    10     9    2
     5    24    25    2
     6    24    23    1
     7    28    29    1
     8    25    31    1
     9     3     1    2
    10     6     5    2
    11     2     1    1
    12    23    22    1
    13    12     9    1
    14    12     5    1
    15     9    13    1
    16     9    11    1
    17     8     1    1
    18     8     5    1
    19     1     4    1
    20    29    30    1
    21     5     7    1
    22    31    22    1
    23    31    30    2
    24    13    14    1
    25    22    21    1
    26    16    21    1
    27    16    15    1
    28    14    15    1
    29    21    19    1
    30    15    17    1
    31    17    19    1
    32    17    18    1
    33    19    20    1
