@<TRIPOS>MOLECULE
1ig3_VIB_A_1.pdb
 18 19 0 0 0
SMALL
GASTEIGER

@<TRIPOS>ATOM
      1  CM2        7.1840   69.6540   25.1800 C.3   502  VIB502      0.1291
      2  N4A        4.5780   71.4180   21.3770 N.pl3 502  VIB502     -0.0925
      3  CM4        6.4560   72.3450   16.8510 C.3   502  VIB502      0.0473
      4  O1         5.8850   69.7960   12.8260 O.3   502  VIB502     -0.2200
      5  C7         6.1380   69.4270   14.1750 C.3   502  VIB502      0.1873
      6  C6         5.1760   70.2160   15.0680 C.3   502  VIB502      0.0691
      7  C2         5.9810   69.3240   18.7580 C.3   502  VIB502      0.1543
      8  S1         5.2670   68.4520   17.3830 S.3   502  VIB502     -0.0951
      9  C5         5.5450   70.0050   16.5190 C.2   502  VIB502      0.0165
     10  C4         6.1110   70.9390   17.3250 C.2   502  VIB502      0.0279
     11  N3         6.3190   70.5140   18.5200 N.pl3 502  VIB502     -0.2970
     12  C7A        6.9170   71.3440   19.5880 C.3   502  VIB502      0.1237
     13  C4A        5.8140   70.9600   21.8770 C.2   502  VIB502      0.2292
     14  N3A        5.8980   70.5530   23.2190 N.2   502  VIB502     -0.3368
     15  C2A        7.1050   70.0910   23.7500 C.1   502  VIB502      0.0663
     16  N1A        8.2450   70.0410   22.9310 N.2   502  VIB502     -0.1861
     17  C6A        8.1760   70.4470   21.5840 C.2   502  VIB502      0.1115
     18  C5A        6.9680   70.9110   21.0450 C.2   502  VIB502      0.0654
@<TRIPOS>BOND
     1     4     5    1
     2     5     6    1
     3     6     9    1
     4     9    10    2
     5     9     8    1
     6     3    10    1
     7    10    11    1
     8     8     7    1
     9    11     7    1
    10    11    12    1
    11    12    18    1
    12    18    17    2
    13    18    13    1
    14     2    13    1
    15    17    16    1
    16    13    14    2
    17    16    15    2
    18    14    15    2
    19    15     1    1
