@<TRIPOS>MOLECULE
1ig9_TTP_A_1.pdb
 29 30 0 0 0
SMALL
GASTEIGER

@<TRIPOS>ATOM
      1  PA         0.0770   46.8650   15.8060 P.3   1005  TTP1005     0.2189
      2  O1A       -0.5190   46.2450   17.0160 O.3   1005  TTP1005    -0.4371
      3  O2A       -0.4280   46.5580   14.5060 O.2   1005  TTP1005    -0.5170
      4  O3A        1.5720   46.5270   15.7610 O.3   1005  TTP1005    -0.2700
      5  PB         2.7780   47.0020   14.8220 P.3   1005  TTP1005     0.2277
      6  O1B        3.5670   47.8840   15.6090 O.3   1005  TTP1005    -0.4368
      7  O2B        2.3140   47.6450   13.6180 O.2   1005  TTP1005    -0.5168
      8  O3B        3.6550   45.6840   14.4780 O.3   1005  TTP1005    -0.2258
      9  PG         3.3800   44.1630   13.9950 P.3   1005  TTP1005     0.5373
     10  O1G        2.0490   43.9580   13.6600 O.3   1005  TTP1005    -0.1143
     11  O2G        4.4040   43.8980   12.9610 O.2   1005  TTP1005    -0.2221
     12  O3G        3.6210   43.3130   15.2070 O.3   1005  TTP1005    -0.1143
     13  O5'        0.0350   48.3960   15.9750 O.3   1005  TTP1005    -0.3112
     14  C5'       -0.0480   49.4620   14.9570 C.3   1005  TTP1005     0.1812
     15  C4'        0.5650   50.7430   15.4160 C.3   1005  TTP1005     0.1773
     16  O4'       -0.1940   51.2190   16.5650 O.3   1005  TTP1005    -0.3339
     17  C3'        1.9770   50.6280   15.9480 C.3   1005  TTP1005     0.1857
     18  O3'        2.9880   50.5250   14.9960 O.3   1005  TTP1005    -0.2203
     19  C2'        2.0840   51.8480   16.8410 C.3   1005  TTP1005     0.0874
     20  C1'        0.6930   51.8710   17.4770 C.3   1005  TTP1005     0.2090
     21  N1         0.7000   51.1770   18.8350 N.am  1005  TTP1005    -0.1794
     22  C2         1.1360   51.9230   19.9070 C.1   1005  TTP1005     0.2844
     23  O2         1.4580   53.0930   19.8460 O.2   1005  TTP1005    -0.1918
     24  N3         1.1920   51.2310   21.0600 N.2   1005  TTP1005    -0.2455
     25  C4         0.8490   49.9000   21.2720 C.1   1005  TTP1005     0.2134
     26  O4         0.9620   49.4460   22.3650 O.2   1005  TTP1005    -0.2088
     27  C5         0.3880   49.1590   20.1290 C.2   1005  TTP1005     0.0891
     28  C5M       -0.0100   47.7150   20.2630 C.3   1005  TTP1005     0.0462
     29  C6         0.3320   49.8310   18.9840 C.2   1005  TTP1005     0.0877
@<TRIPOS>BOND
     1    11     9    2
     2     7     5    2
     3    10     9    1
     4     9     8    1
     5     9    12    1
     6     8     5    1
     7     3     1    2
     8     5     6    1
     9     5     4    1
    10    14    15    1
    11    14    13    1
    12    18    17    1
    13    15    17    1
    14    15    16    1
    15     4     1    1
    16     1    13    1
    17     1     2    1
    18    17    19    1
    19    16    20    1
    20    19    20    1
    21    20    21    1
    22    21    29    1
    23    21    22   am
    24    29    27    2
    25    23    22    2
    26    22    24    2
    27    27    28    1
    28    27    25    1
    29    24    25    2
    30    25    26    2
