@<TRIPOS>MOLECULE
1igj_DGX_B_1.pdb
 37 42 0 0 0
SMALL
GASTEIGER

@<TRIPOS>ATOM
      1  C1        34.8180   35.2770   72.3170 C.3   228  DGX228      0.0025
      2  C2        36.2490   35.0700   71.8190 C.3   228  DGX228      0.0296
      3  C3        37.2930   35.3970   72.8870 C.3   228  DGX228      0.1178
      4  O3        37.1800   34.5530   74.0420 O.3   228  DGX228     -0.3330
      5  C4        37.0870   36.8360   73.3410 C.3   228  DGX228      0.0296
      6  C5        35.6740   37.1350   73.8380 C.3   228  DGX228      0.0024
      7  C6        35.5360   38.5910   74.2760 C.3   228  DGX228      0.0002
      8  C7        35.5150   39.5330   73.0750 C.3   228  DGX228      0.0024
      9  C8        34.3190   39.2290   72.1770 C.3   228  DGX228      0.0282
     10  C9        34.2880   37.7610   71.7460 C.3   228  DGX228      0.0049
     11  C10       34.5380   36.6810   72.8740 C.3   228  DGX228      0.0003
     12  C11       32.9230   37.5470   71.1000 C.3   228  DGX228      0.0331
     13  C12       32.6080   38.5060   69.9610 C.3   228  DGX228      0.1544
     14  O12       31.2900   38.1930   69.4890 O.3   228  DGX228     -0.2231
     15  C13       32.7240   40.0380   70.3030 C.3   228  DGX228      0.0575
     16  C14       34.0950   40.2910   71.0240 C.3   228  DGX228      0.1290
     17  O14       34.1460   41.6700   71.5430 O.3   228  DGX228     -0.2256
     18  C15       35.0580   40.3090   69.8150 C.3   228  DGX228      0.0308
     19  C16       34.3370   41.0510   68.6910 C.3   228  DGX228      0.0068
     20  C17       32.8520   40.7780   68.9090 C.3   228  DGX228      0.0268
     21  C18       31.5470   40.5090   71.1790 C.3   228  DGX228      0.0053
     22  C19       33.2810   36.4080   73.7230 C.3   228  DGX228      0.0000
     23  C20       32.0200   42.0080   68.6890 C.2   228  DGX228      0.0053
     24  C21       32.4250   43.3570   69.1520 C.3   228  DGX228      0.2314
     25  O21       31.2840   44.1960   68.8500 O.3   228  DGX228     -0.4408
     26  C22       30.8050   42.1090   68.1240 C.2   228  DGX228      0.0769
     27  C23       30.3630   43.4830   68.1940 C.2   228  DGX228      0.3412
     28  O23       29.3120   44.0160   67.8230 O.2   228  DGX228     -0.2449
     29  C1X       38.3400   33.8620   74.5400 C.3   228  DGX228      0.2377
     30  C2X       38.6170   32.6440   73.6550 C.3   228  DGX228      0.0969
     31  C3X       39.8950   31.9110   74.0700 C.3   228  DGX228      0.1896
     32  O3X       39.7570   31.2300   75.3330 O.3   228  DGX228     -0.2202
     33  C4X       41.0570   32.9070   74.1130 C.3   228  DGX228      0.2092
     34  O4X       42.2180   32.2390   74.6280 O.3   228  DGX228     -0.2178
     35  C5X       40.7180   34.1330   74.9770 C.3   228  DGX228      0.1506
     36  O5X       39.4830   34.7200   74.5340 O.3   228  DGX228     -0.3302
     37  C6X       41.7920   35.2050   74.8640 C.3   228  DGX228      0.0350
@<TRIPOS>BOND
     1    28    27    2
     2    26    27    1
     3    26    23    2
     4    27    25    1
     5    23    20    1
     6    23    24    1
     7    19    20    1
     8    19    18    1
     9    25    24    1
    10    20    15    1
    11    14    13    1
    12    18    16    1
    13    13    15    1
    14    13    12    1
    15    15    16    1
    16    15    21    1
    17    16    17    1
    18    16     9    1
    19    12    10    1
    20    10     9    1
    21    10    11    1
    22     2     1    1
    23     2     3    1
    24     9     8    1
    25     1    11    1
    26    11    22    1
    27    11     6    1
    28     3     5    1
    29     3     4    1
    30     8     7    1
    31     5     6    1
    32    30    31    1
    33    30    29    1
    34     6     7    1
    35     4    29    1
    36    31    33    1
    37    31    32    1
    38    33    34    1
    39    33    35    1
    40    36    29    1
    41    36    35    1
    42    37    35    1
