@<TRIPOS>MOLECULE
1igr_FUC_A_1.pdb
 10 10 0 0 0
SMALL
GASTEIGER

@<TRIPOS>ATOM
      1  C1        35.3130   19.9740   76.0360 C.3   481  FUC481      0.1776
      2  C2        35.0160   21.3070   75.3140 C.3   481  FUC481      0.2141
      3  C3        34.0500   22.3030   76.0250 C.3   481  FUC481      0.2172
      4  C4        33.8990   22.1570   77.5420 C.3   481  FUC481      0.2116
      5  C5        34.3480   20.7630   78.0920 C.3   481  FUC481      0.1483
      6  C6        34.6300   20.5810   79.5930 C.3   481  FUC481      0.0349
      7  O2        34.5630   21.0500   73.9770 O.3   481  FUC481     -0.2176
      8  O3        34.4680   23.6520   75.7430 O.3   481  FUC481     -0.2175
      9  O4        34.5280   23.2580   78.1890 O.3   481  FUC481     -0.2177
     10  O5        35.5040   20.2790   77.4000 O.3   481  FUC481     -0.3508
@<TRIPOS>BOND
     1     7     2    1
     2     2     3    1
     3     2     1    1
     4     8     3    1
     5     3     4    1
     6     1    10    1
     7    10     5    1
     8     4     5    1
     9     4     9    1
    10     5     6    1
