@<TRIPOS>MOLECULE
1igr_NAG_A_1.pdb
 14 14 0 0 0
SMALL
GASTEIGER

@<TRIPOS>ATOM
      1  C1        33.0730   15.2830   72.7620 C.3   480  NAG480      0.1665
      2  C2        31.5970   15.2970   73.3950 C.3   480  NAG480      0.1576
      3  C3        31.1590   16.7040   73.4830 C.3   480  NAG480      0.2069
      4  C4        32.0990   17.6690   74.2300 C.3   480  NAG480      0.2134
      5  C5        33.6360   17.5070   73.8450 C.3   480  NAG480      0.1809
      6  C6        34.7120   17.8930   74.8850 C.3   480  NAG480      0.2141
      7  C7        29.8490   13.5690   73.0340 C.2   480  NAG480      0.2420
      8  C8        28.8220   12.7280   72.2230 C.3   480  NAG480      0.0964
      9  N2        30.5860   14.6080   72.5680 N.am  480  NAG480     -0.2019
     10  O3        29.9130   16.6960   74.1070 O.3   480  NAG480     -0.2184
     11  O4        31.6200   19.0200   73.9900 O.3   480  NAG480     -0.2176
     12  O5        34.0100   16.1210   73.4770 O.3   480  NAG480     -0.3489
     13  O6        34.3470   18.9400   75.7810 O.3   480  NAG480     -0.2176
     14  O7        29.9660   13.2420   74.1370 O.2   480  NAG480     -0.2733
@<TRIPOS>BOND
     1     8     7    1
     2     9     7   am
     3     9     2    1
     4     1     2    1
     5     1    12    1
     6     7    14    2
     7     2     3    1
     8    12     5    1
     9     3    10    1
    10     3     4    1
    11     5     4    1
    12     5     6    1
    13    11     4    1
    14     6    13    1
