@<TRIPOS>MOLECULE
1igt_GAL_B_1.pdb
 22 22 0 0 0
SMALL
GASTEIGER

@<TRIPOS>ATOM
      1  C1         3.0200  -27.5730  -24.4680 C.3   481  GAL481      0.1161
      2  C2         1.7770  -28.3220  -23.9540 C.3   481  GAL481      0.1121
      3  C3         1.6620  -29.6810  -24.6540 C.3   481  GAL481      0.1118
      4  C4         2.0080  -29.5480  -26.1400 C.3   481  GAL481      0.1117
      5  C5         1.9390  -28.0780  -26.5870 C.3   481  GAL481      0.1105
      6  C6         0.5830  -27.4020  -26.4260 C.3   481  GAL481      0.0729
      7  O2         1.8710  -28.5210  -22.5490 O.3   481  GAL481     -0.3865
      8  O3         0.3450  -30.2000  -24.5090 O.3   481  GAL481     -0.3865
      9  O4         1.1150  -30.3350  -26.9180 O.3   481  GAL481     -0.3865
     10  O5         2.9120  -27.2750  -25.8740 O.3   481  GAL481     -0.3631
     11  O6         0.7220  -26.0680  -25.9490 O.3   481  GAL481     -0.3924
     12  H1         3.8910  -28.2150  -24.3350 H     481  GAL481      0.0650
     13  H2         0.8930  -27.6780  -24.0290 H     481  GAL481      0.0647
     14  H3         2.3770  -30.3760  -24.1800 H     481  GAL481      0.0647
     15  H4         3.0300  -29.9130  -26.3220 H     481  GAL481      0.0647
     16  H5         2.2910  -27.9540  -27.6210 H     481  GAL481      0.0646
     17  H61       -0.1810  -27.9840  -25.8900 H     481  GAL481      0.0584
     18  H62        0.1400  -27.3370  -27.4280 H     481  GAL481      0.0584
     19  HO2        1.0040  -28.8430  -22.2740 H     481  GAL481      0.2100
     20  HO3        0.3490  -31.0990  -24.8640 H     481  GAL481      0.2100
     21  HO4        0.2170  -30.1380  -26.6210 H     481  GAL481      0.2100
     22  HO6        1.6670  -25.8390  -25.9250 H     481  GAL481      0.2095
@<TRIPOS>BOND
     1    16     5    1
     2    18     6    1
     3     9    21    1
     4     9     4    1
     5     5     6    1
     6     5     4    1
     7     5    10    1
     8     6    11    1
     9     6    17    1
    10    15     4    1
    11     4     3    1
    12    11    22    1
    13    10     1    1
    14    20     8    1
    15     3     8    1
    16     3    14    1
    17     3     2    1
    18     1    12    1
    19     1     2    1
    20    13     2    1
    21     2     7    1
    22     7    19    1
