@<TRIPOS>MOLECULE
1igt_BMA_D_1.pdb
 20 20 0 0 0
SMALL
GASTEIGER

@<TRIPOS>ATOM
      1  C1        18.3620   -6.4750  -17.9060 C.3   478  BMA478      0.1162
      2  C2        17.6670   -7.7750  -17.4720 C.3   478  BMA478      0.1154
      3  C3        18.6610   -8.7120  -16.7800 C.3   478  BMA478      0.1501
      4  C4        19.8570   -8.9330  -17.6840 C.3   478  BMA478      0.1151
      5  C5        20.4710   -7.6020  -18.1180 C.3   478  BMA478      0.1139
      6  C6        21.5670   -7.8500  -19.1340 C.3   478  BMA478      0.1115
      7  O2        17.1140   -8.4200  -18.6130 O.3   478  BMA478     -0.3864
      8  O3        18.0420   -9.9910  -16.5190 O.3   478  BMA478     -0.2256
      9  O4        20.8240   -9.7170  -17.0030 O.3   478  BMA478     -0.3864
     10  O5        19.4750   -6.7780  -18.7600 O.3   478  BMA478     -0.3630
     11  O6        22.1640   -6.6080  -19.5660 O.3   478  BMA478     -0.2320
     12  H1        18.7130   -5.9030  -17.0240 H     478  BMA478      0.0650
     13  H2        16.8560   -7.4980  -16.7750 H     478  BMA478      0.0648
     14  H3        18.9970   -8.2000  -15.8600 H     478  BMA478      0.0682
     15  H4        19.5040   -9.4770  -18.5780 H     478  BMA478      0.0648
     16  H5        20.8960   -7.0670  -17.2490 H     478  BMA478      0.0647
     17  H61       21.1030   -8.4180  -19.9540 H     478  BMA478      0.0618
     18  H62       22.3160   -8.5160  -18.6810 H     478  BMA478      0.0618
     19  HO2       16.8150   -7.7170  -19.2010 H     478  BMA478      0.2100
     20  HO4       20.3970  -10.5380  -16.7450 H     478  BMA478      0.2100
@<TRIPOS>BOND
     1    17     6    1
     2    11     6    1
     3    19     7    1
     4     6    18    1
     5     6     5    1
     6    10     5    1
     7    10     1    1
     8     7     2    1
     9    15     4    1
    10     5     4    1
    11     5    16    1
    12     1     2    1
    13     1    12    1
    14     4     9    1
    15     4     3    1
    16     2     3    1
    17     2    13    1
    18     9    20    1
    19     3     8    1
    20     3    14    1
