@<TRIPOS>MOLECULE
1igx_BGC_A_1.pdb
 12 12 0 0 0
SMALL
GASTEIGER

@<TRIPOS>ATOM
      1  C2       249.3410  117.8430  -36.6740 C.3   751  BGC751      0.2434
      2  C3       250.8440  117.7500  -36.4330 C.3   751  BGC751      0.2199
      3  C4       251.5030  117.1520  -37.6770 C.3   751  BGC751      0.2144
      4  C5       251.2100  118.1020  -38.8520 C.3   751  BGC751      0.1836
      5  C6       251.8220  117.6840  -40.1840 C.3   751  BGC751      0.2142
      6  C1       249.1240  118.7880  -37.8630 C.3   751  BGC751      0.3024
      7  O1       247.7690  118.9360  -38.1290 O.3   751  BGC751     -0.1869
      8  O2       248.6860  118.3420  -35.5180 O.3   751  BGC751     -0.2148
      9  O3       251.1190  116.9650  -35.2880 O.3   751  BGC751     -0.2174
     10  O4       252.9050  117.0150  -37.4740 O.3   751  BGC751     -0.2176
     11  O5       249.7720  118.2450  -39.0320 O.3   751  BGC751     -0.3236
     12  O6       251.2560  116.4800  -40.6810 O.3   751  BGC751     -0.2176
@<TRIPOS>BOND
     1    12     5    1
     2     5     4    1
     3    11     4    1
     4    11     6    1
     5     4     3    1
     6     7     6    1
     7     6     1    1
     8     3    10    1
     9     3     2    1
    10     1     2    1
    11     1     8    1
    12     2     9    1
