@<TRIPOS>MOLECULE
1igx_EPA_A_1.pdb
 22 21 0 0 0
SMALL
GASTEIGER

@<TRIPOS>ATOM
      1  C1       253.5670  111.0370  -37.0730 C.2   700  EPA700      0.3649
      2  OA       253.3120  111.4470  -35.9120 O.co2 700  EPA700     -0.2457
      3  OB       253.1570  111.6040  -38.1170 O.co2 700  EPA700     -0.2457
      4  C2       254.4130  109.7830  -37.2250 C.3   700  EPA700      0.1144
      5  C3       253.5710  108.5910  -37.6070 C.3   700  EPA700      0.0165
      6  C4       252.8420  108.8250  -38.9060 C.3   700  EPA700      0.0263
      7  C5       253.3620  108.2560  -40.1340 C.2   700  EPA700     -0.0304
      8  C6       252.7850  107.1340  -40.6750 C.2   700  EPA700     -0.0260
      9  C7       251.6200  106.4890  -40.0150 C.3   700  EPA700      0.0513
     10  C8       250.2690  107.0290  -40.3070 C.2   700  EPA700     -0.0257
     11  C9       249.1860  106.5800  -39.6160 C.2   700  EPA700     -0.0257
     12  C10      249.3470  105.5140  -38.5370 C.3   700  EPA700      0.0513
     13  C11      248.5000  104.2430  -38.6400 C.2   700  EPA700     -0.0257
     14  C12      248.8360  103.1230  -37.9330 C.2   700  EPA700     -0.0257
     15  C13      250.0210  103.1190  -37.0680 C.3   700  EPA700      0.0513
     16  C14      250.8710  101.8930  -37.0350 C.2   700  EPA700     -0.0257
     17  C15      251.1220  101.2170  -35.8610 C.2   700  EPA700     -0.0257
     18  C16      250.5670  101.6890  -34.5670 C.3   700  EPA700      0.0513
     19  C17      249.1290  101.8590  -34.4490 C.2   700  EPA700     -0.0260
     20  C18      248.4920  101.5570  -33.2710 C.2   700  EPA700     -0.0304
     21  C19      249.2680  101.0330  -32.0560 C.3   700  EPA700      0.0257
     22  C20      248.4580  101.1560  -30.7810 C.3   700  EPA700      0.0050
@<TRIPOS>BOND
     1     8     7    2
     2     8     9    1
     3    10     9    1
     4    10    11    2
     5     7     6    1
     6    11    12    1
     7     6     5    1
     8    13    12    1
     9    13    14    2
    10     3     1   ar
    11    14    15    1
    12     5     4    1
    13     4     1    1
    14     1     2   ar
    15    15    16    1
    16    16    17    2
    17    17    18    1
    18    18    19    1
    19    19    20    2
    20    20    21    1
    21    21    22    1
