@<TRIPOS>MOLECULE
1igx_COH_A_1.pdb
 43 50 0 0 0
SMALL
GASTEIGER

@<TRIPOS>ATOM
      1 CO        242.3450   90.4980  -42.7160 Co.oh 601  COH601      0.0000
      2  CHA      239.3450   90.6970  -41.2060 C.2   601  COH601      0.0000
      3  CHB      241.3330   87.6950  -44.4230 C.2   601  COH601      0.0000
      4  CHC      245.3460   90.2520  -44.2080 C.2   601  COH601      0.0000
      5  CHD      243.4850   93.2820  -40.9980 C.2   601  COH601      0.0000
      6  NA       240.6900   89.3700  -42.8460 N.ar  601  COH601      0.0000
      7  C1A      239.4730   89.6080  -42.1140 C.ar  601  COH601      0.0000
      8  C2A      238.4070   88.5260  -42.4490 C.ar  601  COH601      0.0000
      9  C3A      239.0260   87.6520  -43.4130 C.ar  601  COH601      0.0000
     10  C4A      240.4380   88.2560  -43.5960 C.ar  601  COH601      0.0000
     11  CMA      238.4590   86.4000  -44.1070 C.3   601  COH601      0.0000
     12  CAA      236.9020   88.2920  -41.8970 C.3   601  COH601      0.0000
     13  CBA      235.7450   88.9960  -42.6600 C.3   601  COH601      0.0000
     14  CGA      235.8110   90.5400  -42.6490 C.2   601  COH601      0.0000
     15  O1A      235.7850   91.1450  -41.5260 O.co2 601  COH601      0.0000
     16  O2A      235.8480   91.1630  -43.7490 O.co2 601  COH601      0.0000
     17  NB       243.1290   89.2490  -44.0150 N.2   601  COH601      0.0000
     18  C1B      242.5950   88.1190  -44.6550 C.2   601  COH601      0.0000
     19  C2B      243.5290   87.4410  -45.5830 C.2   601  COH601      0.0000
     20  C3B      244.6800   88.1680  -45.5260 C.2   601  COH601      0.0000
     21  C4B      244.4270   89.2760  -44.5620 C.2   601  COH601      0.0000
     22  CMB      243.2390   86.2100  -46.4040 C.3   601  COH601      0.0000
     23  CAB      245.9340   87.9070  -46.2750 C.3   601  COH601      0.0000
     24  CBB      246.7010   86.7550  -46.1860 C.3   601  COH601      0.0000
     25  NC       244.0470   91.5920  -42.5930 N.ar  601  COH601      0.0000
     26  C1C      245.1920   91.3080  -43.3200 C.ar  601  COH601      0.0000
     27  C2C      246.2440   92.2830  -43.0230 C.ar  601  COH601      0.0000
     28  C3C      245.6940   93.1570  -42.0880 C.ar  601  COH601      0.0000
     29  C4C      244.3720   92.6850  -41.8720 C.ar  601  COH601      0.0000
     30  CMC      247.6730   92.3300  -43.6720 C.3   601  COH601      0.0000
     31  CAC      246.2520   94.3090  -41.4310 C.3   601  COH601      0.0000
     32  CBC      246.5730   95.5730  -42.0420 C.3   601  COH601      0.0000
     33  ND       241.6280   91.7540  -41.3850 N.2   601  COH601      0.0000
     34  C1D      242.1550   92.8360  -40.7610 C.2   601  COH601      0.0000
     35  C2D      241.1550   93.5080  -39.7810 C.2   601  COH601      0.0000
     36  C3D      240.0200   92.7540  -39.8930 C.2   601  COH601      0.0000
     37  C4D      240.2780   91.6800  -40.8440 C.2   601  COH601      0.0000
     38  CMD      241.5210   94.7470  -38.9550 C.3   601  COH601      0.0000
     39  CAD      238.6200   93.0160  -39.2410 C.3   601  COH601      0.0000
     40  CBD      238.2690   92.2300  -37.9570 C.3   601  COH601      0.0000
     41  CGD      239.3040   92.2460  -36.8570 C.2   601  COH601      0.0000
     42  O1D      240.1990   91.3460  -36.8210 O.co2 601  COH601      0.0000
     43  O2D      239.2150   93.1610  -36.0210 O.co2 601  COH601      0.0000
@<TRIPOS>BOND
     1    22    19    1
     2    23    24    1
     3    23    20    1
     4    19    20    2
     5    19    18    1
     6    20    21    1
     7    18     3    1
     8    18    17    2
     9    21     4    2
    10    21    17    1
    11     3    10    2
    12     4    26    1
    13    11     9    1
    14    17     1    1
    15    16    14   ar
    16    30    27    1
    17    10     9   ar
    18    10     6   ar
    19     9     8   ar
    20    26    27   ar
    21    26    25   ar
    22    27    28   ar
    23     6     1    1
    24     6     7   ar
    25     1    25    1
    26     1    33    1
    27    13    14    1
    28    13    12    1
    29    14    15   ar
    30    25    29   ar
    31     8     7   ar
    32     8    12    1
    33     7     2    2
    34    28    29   ar
    35    28    31    1
    36    32    31    1
    37    29     5    1
    38    33    37    2
    39    33    34    1
    40     2    37    1
    41     5    34    2
    42    37    36    1
    43    34    35    1
    44    36    35    2
    45    36    39    1
    46    35    38    1
    47    39    40    1
    48    40    41    1
    49    41    42   ar
    50    41    43   ar
