@<TRIPOS>MOLECULE
1igy_BMA_B_1.pdb
 20 20 0 0 0
SMALL
GASTEIGER

@<TRIPOS>ATOM
      1  C1         7.1200   21.9890   44.4000 C.3   478  BMA478      0.1162
      2  C2         7.1080   20.6930   43.5530 C.3   478  BMA478      0.1154
      3  C3         8.4920   20.0280   43.6480 C.3   478  BMA478      0.1501
      4  C4         9.5570   21.0210   43.1940 C.3   478  BMA478      0.1151
      5  C5         9.4430   22.3370   43.9860 C.3   478  BMA478      0.1139
      6  C6        10.3820   23.4120   43.4750 C.3   478  BMA478      0.1115
      7  O2         6.8160   21.0020   42.1910 O.3   478  BMA478     -0.3864
      8  O3         8.5720   18.8300   42.8310 O.3   478  BMA478     -0.2256
      9  O4        10.8440   20.4500   43.3910 O.3   478  BMA478     -0.3864
     10  O5         8.1100   22.8780   43.8850 O.3   478  BMA478     -0.3630
     11  O6        10.5510   24.4360   44.4790 O.3   478  BMA478     -0.2320
     12  H1         7.3290   21.7230   45.4460 H     478  BMA478      0.0650
     13  H2         6.3410   20.0150   43.9520 H     478  BMA478      0.0648
     14  H3         8.6790   19.7640   44.6980 H     478  BMA478      0.0682
     15  H4         9.4060   21.2470   42.1290 H     478  BMA478      0.0648
     16  H5         9.6560   22.1440   45.0460 H     478  BMA478      0.0647
     17  H61        9.9550   23.8530   42.5630 H     478  BMA478      0.0618
     18  H62       11.3540   22.9540   43.2440 H     478  BMA478      0.0618
     19  HO2        5.9570   21.4270   42.1380 H     478  BMA478      0.2100
     20  HO4       11.5160   21.0710   43.1000 H     478  BMA478      0.2100
@<TRIPOS>BOND
     1    15     4    1
     2    19     7    1
     3     7     2    1
     4    17     6    1
     5     8     3    1
     6    20     9    1
     7     4     9    1
     8     4     3    1
     9     4     5    1
    10    18     6    1
    11     6     5    1
    12     6    11    1
    13     2     3    1
    14     2    13    1
    15     2     1    1
    16     3    14    1
    17    10     5    1
    18    10     1    1
    19     5    16    1
    20     1    12    1
