@<TRIPOS>MOLECULE
1igy_FUC_D_1.pdb
 21 21 0 0 0
SMALL
GASTEIGER

@<TRIPOS>ATOM
      1  C1         0.3920   10.3620   35.4530 C.3   476  FUC476      0.1160
      2  C2         1.0240    9.4840   36.5350 C.3   476  FUC476      0.1121
      3  C3         2.5270    9.7460   36.6600 C.3   476  FUC476      0.1117
      4  C4         2.7770   11.2460   36.8340 C.3   476  FUC476      0.1093
      5  C5         2.1330   12.0090   35.6750 C.3   476  FUC476      0.0848
      6  C6         2.2970   13.5180   35.7770 C.3   476  FUC476     -0.0361
      7  O2         0.8050    8.1180   36.2080 O.3   476  FUC476     -0.3865
      8  O3         3.0560    9.0350   37.7770 O.3   476  FUC476     -0.3865
      9  O4         2.2210   11.6890   38.0660 O.3   476  FUC476     -0.3866
     10  O5         0.7240   11.7330   35.6460 O.3   476  FUC476     -0.3657
     11  H1         0.8010   10.0790   34.4730 H     476  FUC476      0.0650
     12  H2         0.5610    9.7170   37.5040 H     476  FUC476      0.0647
     13  H3         3.0230    9.4110   35.7380 H     476  FUC476      0.0647
     14  H4         3.8610   11.4290   36.8280 H     476  FUC476      0.0646
     15  H5         2.5740   11.6780   34.7240 H     476  FUC476      0.0620
     16  H61        1.7780   13.9870   34.9300 H     476  FUC476      0.0255
     17  H62        3.3640   13.7780   35.7320 H     476  FUC476      0.0255
     18  H63        1.8490   13.8760   36.7140 H     476  FUC476      0.0255
     19  HO2       -0.1390    7.9510   36.1560 H     476  FUC476      0.2100
     20  HO3        2.9040    8.0950   37.6560 H     476  FUC476      0.2100
     21  HO4        1.2750   11.5260   38.0650 H     476  FUC476      0.2100
@<TRIPOS>BOND
     1    11     1    1
     2    15     5    1
     3    16     6    1
     4     1    10    1
     5     1     2    1
     6    10     5    1
     7     5     6    1
     8     5     4    1
     9    17     6    1
    10    13     3    1
    11     6    18    1
    12    19     7    1
    13     7     2    1
    14     2     3    1
    15     2    12    1
    16     3     4    1
    17     3     8    1
    18    14     4    1
    19     4     9    1
    20    20     8    1
    21    21     9    1
