@<TRIPOS>MOLECULE
1igy_GAL_B_1.pdb
 22 22 0 0 0
SMALL
GASTEIGER

@<TRIPOS>ATOM
      1  C1        18.0580   26.5960   50.2020 C.3   481  GAL481      0.1161
      2  C2        18.8770   27.4960   51.1260 C.3   481  GAL481      0.1121
      3  C3        20.3360   26.9840   51.1170 C.3   481  GAL481      0.1118
      4  C4        20.3580   25.5200   51.5780 C.3   481  GAL481      0.1117
      5  C5        19.4320   24.6780   50.6850 C.3   481  GAL481      0.1105
      6  C6        19.3110   23.2270   51.1550 C.3   481  GAL481      0.0729
      7  O2        18.8070   28.8430   50.6660 O.3   481  GAL481     -0.3865
      8  O3        21.1660   27.7790   51.9570 O.3   481  GAL481     -0.3865
      9  O4        19.9330   25.4330   52.9360 O.3   481  GAL481     -0.3865
     10  O5        18.0940   25.2410   50.6760 O.3   481  GAL481     -0.3631
     11  O6        18.4430   22.4720   50.3160 O.3   481  GAL481     -0.3924
     12  H1        18.4890   26.6420   49.1920 H     481  GAL481      0.0650
     13  H2        18.4690   27.4280   52.1440 H     481  GAL481      0.0647
     14  H3        20.7140   27.0240   50.0860 H     481  GAL481      0.0647
     15  H4        21.3820   25.1330   51.4830 H     481  GAL481      0.0647
     16  H5        19.8150   24.6800   49.6550 H     481  GAL481      0.0646
     17  H61       18.9170   23.2260   52.1810 H     481  GAL481      0.0584
     18  H62       20.3120   22.7740   51.1440 H     481  GAL481      0.0584
     19  HO2       17.8910   29.1300   50.6620 H     481  GAL481      0.2100
     20  HO3       22.0640   27.4390   51.9310 H     481  GAL481      0.2100
     21  HO4       19.9540   24.5150   53.2180 H     481  GAL481      0.2100
     22  HO6       18.5010   22.8040   49.4170 H     481  GAL481      0.2095
@<TRIPOS>BOND
     1    12     1    1
     2    22    11    1
     3    16     5    1
     4    14     3    1
     5     1    10    1
     6     1     2    1
     7    11     6    1
     8    19     7    1
     9     7     2    1
    10    10     5    1
    11     5     6    1
    12     5     4    1
    13     3     2    1
    14     3     4    1
    15     3     8    1
    16     2    13    1
    17    18     6    1
    18     6    17    1
    19    15     4    1
    20     4     9    1
    21    20     8    1
    22     9    21    1
