@<TRIPOS>MOLECULE
1igz_BGC_A_1.pdb
 12 12 0 0 0
SMALL
GASTEIGER

@<TRIPOS>ATOM
      1  C2       254.3950  122.8150  -50.6880 C.3   750  BGC750      0.2434
      2  C3       254.4020  121.8050  -51.8440 C.3   750  BGC750      0.2199
      3  C4       253.2430  120.8190  -51.6920 C.3   750  BGC750      0.2144
      4  C5       251.9480  121.6360  -51.6860 C.3   750  BGC750      0.1836
      5  C6       250.6820  120.8040  -51.6440 C.3   750  BGC750      0.2142
      6  C1       253.0020  123.4920  -50.5650 C.3   750  BGC750      0.3024
      7  O1       252.9330  124.2430  -49.3950 O.3   750  BGC750     -0.1869
      8  O2       255.4070  123.7970  -50.9110 O.3   750  BGC750     -0.2148
      9  O3       255.6240  121.0940  -51.8480 O.3   750  BGC750     -0.2174
     10  O4       253.2520  119.8710  -52.7590 O.3   750  BGC750     -0.2176
     11  O5       251.9420  122.5040  -50.5270 O.3   750  BGC750     -0.3236
     12  O6       250.9910  119.4190  -51.5690 O.3   750  BGC750     -0.2176
@<TRIPOS>BOND
     1    10     3    1
     2     9     2    1
     3     2     3    1
     4     2     1    1
     5     3     4    1
     6     4     5    1
     7     4    11    1
     8     5    12    1
     9     8     1    1
    10     1     6    1
    11     6    11    1
    12     6     7    1
