@<TRIPOS>MOLECULE
1igz_EIC_A_1.pdb
 20 19 0 0 0
SMALL
GASTEIGER

@<TRIPOS>ATOM
      1  C1       253.4490  111.1400  -37.7210 C.2   700  EIC700      0.3649
      2  C2       253.7300  109.6940  -38.1070 C.3   700  EIC700      0.1141
      3  C3       253.0290  109.3020  -39.4100 C.3   700  EIC700      0.0118
      4  C4       252.7220  107.8170  -39.4680 C.3   700  EIC700      0.0006
      5  C5       251.8360  107.5020  -40.6510 C.3   700  EIC700      0.0000
      6  C6       251.0510  106.2370  -40.4010 C.3   700  EIC700      0.0003
      7  C7       250.0950  106.3830  -39.2230 C.3   700  EIC700      0.0047
      8  C8       250.0590  105.0820  -38.4490 C.3   700  EIC700      0.0257
      9  C9       250.0580  103.7700  -39.2050 C.2   700  EIC700     -0.0304
     10  C10      249.8990  102.5500  -38.5710 C.2   700  EIC700     -0.0260
     11  C11      249.7160  102.4510  -37.0820 C.3   700  EIC700      0.0513
     12  C12      250.5160  101.3830  -36.3110 C.2   700  EIC700     -0.0260
     13  C13      250.1700  101.0500  -35.0190 C.2   700  EIC700     -0.0304
     14  C14      249.0160  101.7250  -34.3590 C.3   700  EIC700      0.0257
     15  C15      248.2980  101.0810  -33.2100 C.3   700  EIC700      0.0047
     16  C16      249.1500  101.0250  -31.9610 C.3   700  EIC700      0.0003
     17  C17      248.3550  100.3840  -30.8270 C.3   700  EIC700      0.0000
     18  C18      246.9780  101.0660  -30.6300 C.3   700  EIC700      0.0000
     19  O1       253.5800  112.0220  -38.6000 O.co2 700  EIC700     -0.2457
     20  O2       253.0930  111.3890  -36.5460 O.co2 700  EIC700     -0.2457
@<TRIPOS>BOND
     1     5     6    1
     2     5     4    1
     3     6     7    1
     4     4     3    1
     5     3     2    1
     6     7     8    1
     7     9    10    2
     8     9     8    1
     9    19     1   ar
    10    10    11    1
    11     2     1    1
    12     1    20   ar
    13    11    12    1
    14    12    13    2
    15    13    14    1
    16    14    15    1
    17    15    16    1
    18    16    17    1
    19    17    18    1
