@<TRIPOS>MOLECULE
1igz_COH_A_1.pdb
 43 50 0 0 0
SMALL
GASTEIGER

@<TRIPOS>ATOM
      1 CO        242.3300   90.6410  -42.8460 Co.oh 601  COH601      0.0000
      2  CHA      239.3050   90.7990  -41.3540 C.2   601  COH601      0.0000
      3  CHB      241.2060   87.8560  -44.6130 C.2   601  COH601      0.0000
      4  CHC      245.2690   90.3590  -44.3680 C.2   601  COH601      0.0000
      5  CHD      243.4310   93.3420  -41.0730 C.2   601  COH601      0.0000
      6  NA       240.6210   89.5140  -43.0080 N.ar  601  COH601      0.0000
      7  C1A      239.4200   89.7510  -42.2750 C.ar  601  COH601      0.0000
      8  C2A      238.3330   88.7310  -42.6130 C.ar  601  COH601      0.0000
      9  C3A      238.9050   87.8530  -43.5870 C.ar  601  COH601      0.0000
     10  C4A      240.3310   88.4170  -43.7720 C.ar  601  COH601      0.0000
     11  CMA      238.2890   86.6350  -44.2870 C.3   601  COH601      0.0000
     12  CAA      236.8440   88.5920  -42.0320 C.3   601  COH601      0.0000
     13  CBA      235.7300   89.3610  -42.7950 C.3   601  COH601      0.0000
     14  CGA      235.9010   90.8940  -42.8500 C.2   601  COH601      0.0000
     15  O1A      235.9630   91.5530  -41.7610 O.co2 601  COH601      0.0000
     16  O2A      235.9230   91.4580  -43.9750 O.co2 601  COH601      0.0000
     17  NB       243.0520   89.3750  -44.1900 N.2   601  COH601      0.0000
     18  C1B      242.4900   88.2590  -44.8430 C.2   601  COH601      0.0000
     19  C2B      243.3960   87.5860  -45.7840 C.2   601  COH601      0.0000
     20  C3B      244.5580   88.2930  -45.7190 C.2   601  COH601      0.0000
     21  C4B      244.3340   89.3870  -44.7390 C.2   601  COH601      0.0000
     22  CMB      243.0730   86.3670  -46.6230 C.3   601  COH601      0.0000
     23  CAB      245.7900   88.0140  -46.4850 C.3   601  COH601      0.0000
     24  CBB      246.5180   86.8370  -46.4220 C.3   601  COH601      0.0000
     25  NC       244.0240   91.7100  -42.7140 N.ar  601  COH601      0.0000
     26  C1C      245.1480   91.4200  -43.4540 C.ar  601  COH601      0.0000
     27  C2C      246.2040   92.3780  -43.1450 C.ar  601  COH601      0.0000
     28  C3C      245.6570   93.2340  -42.1850 C.ar  601  COH601      0.0000
     29  C4C      244.3390   92.7680  -41.9690 C.ar  601  COH601      0.0000
     30  CMC      247.6350   92.4350  -43.7930 C.3   601  COH601      0.0000
     31  CAC      246.2250   94.3660  -41.5030 C.3   601  COH601      0.0000
     32  CBC      246.5460   95.6550  -42.0710 C.3   601  COH601      0.0000
     33  ND       241.5650   91.8490  -41.4830 N.2   601  COH601      0.0000
     34  C1D      242.0850   92.8940  -40.8290 C.2   601  COH601      0.0000
     35  C2D      241.0650   93.5320  -39.8280 C.2   601  COH601      0.0000
     36  C3D      239.9360   92.7740  -39.9730 C.2   601  COH601      0.0000
     37  C4D      240.2230   91.7520  -40.9550 C.2   601  COH601      0.0000
     38  CMD      241.4080   94.7400  -38.9570 C.3   601  COH601      0.0000
     39  CAD      238.5050   92.9760  -39.3420 C.3   601  COH601      0.0000
     40  CBD      238.1330   92.0830  -38.1280 C.3   601  COH601      0.0000
     41  CGD      238.8470   92.3480  -36.8280 C.2   601  COH601      0.0000
     42  O1D      239.9270   91.7310  -36.5860 O.co2 601  COH601      0.0000
     43  O2D      238.3250   93.1570  -36.0390 O.co2 601  COH601      0.0000
@<TRIPOS>BOND
     1    22    19    1
     2    23    24    1
     3    23    20    1
     4    19    20    2
     5    19    18    1
     6    20    21    1
     7    18     3    1
     8    18    17    2
     9    21     4    2
    10    21    17    1
    11     3    10    2
    12     4    26    1
    13    11     9    1
    14    17     1    1
    15    16    14   ar
    16    30    27    1
    17    10     9   ar
    18    10     6   ar
    19     9     8   ar
    20    26    27   ar
    21    26    25   ar
    22    27    28   ar
    23     6     1    1
    24     6     7   ar
    25    14    13    1
    26    14    15   ar
    27     1    25    1
    28     1    33    1
    29    13    12    1
    30    25    29   ar
    31     8     7   ar
    32     8    12    1
    33     7     2    2
    34    28    29   ar
    35    28    31    1
    36    32    31    1
    37    29     5    1
    38    33    37    2
    39    33    34    1
    40     2    37    1
    41     5    34    2
    42    37    36    1
    43    34    35    1
    44    36    35    2
    45    36    39    1
    46    35    38    1
    47    39    40    1
    48    40    41    1
    49    41    42   ar
    50    41    43   ar
