@<TRIPOS>MOLECULE
1ih7_GMP_A_1.pdb
 20 22 0 0 0
SMALL
GASTEIGER

@<TRIPOS>ATOM
      1  O5'        1.7070    7.6070   49.6330 O.3   1000  GMP1000    -0.2176
      2  C5'        2.2130    8.4520   50.7260 C.3   1000  GMP1000     0.2142
      3  C4'        3.3250    8.0150   51.8460 C.3   1000  GMP1000     0.1828
      4  O4'        4.4580    7.1030   51.4630 O.3   1000  GMP1000    -0.3325
      5  C3'        4.0040    9.3580   52.3810 C.3   1000  GMP1000     0.2159
      6  O3'        3.9600    9.4260   53.8780 O.3   1000  GMP1000    -0.2175
      7  C2'        5.4750    9.2070   51.7380 C.3   1000  GMP1000     0.2310
      8  O2'        6.4460   10.0710   52.3440 O.3   1000  GMP1000    -0.2158
      9  C1'        5.7320    7.7100   51.9640 C.3   1000  GMP1000     0.2293
     10  N9         6.9630    7.1680   51.2200 N.pl3 1000  GMP1000    -0.2354
     11  C8         8.2610    7.0520   51.6940 C.3   1000  GMP1000     0.2246
     12  N7         9.1290    6.5360   50.8430 N.2   1000  GMP1000    -0.2322
     13  C5         8.3680    6.2710   49.6870 C.2   1000  GMP1000     0.2182
     14  C6         8.7410    5.6690   48.3160 C.1   1000  GMP1000     0.2372
     15  O6         9.8130    5.2140   47.7770 O.2   1000  GMP1000    -0.2069
     16  N1         7.5550    5.6380   47.5210 N.2   1000  GMP1000    -0.2485
     17  C2         6.2600    6.0860   47.9170 C.1   1000  GMP1000     0.2531
     18  N2         5.2740    5.9620   47.0010 N.pl3 1000  GMP1000    -0.0226
     19  N3         5.9530    6.6150   49.1290 N.2   1000  GMP1000    -0.3074
     20  C4         7.0410    6.6780   49.9460 C.2   1000  GMP1000     0.2300
@<TRIPOS>BOND
     1    18    17    1
     2    16    17    2
     3    16    14    2
     4    15    14    2
     5    17    19    2
     6    14    13    1
     7    19    20    2
     8     1     2    1
     9    13    20    1
    10    13    12    2
    11    20    10    1
    12     2     3    1
    13    12    11    1
    14    10    11    1
    15    10     9    1
    16     4     3    1
    17     4     9    1
    18     7     9    1
    19     7     8    1
    20     7     5    1
    21     3     5    1
    22     5     6    1
