@<TRIPOS>MOLECULE
1ih8_APC_A_1.pdb
 31 33 0 0 0
SMALL
GASTEIGER

@<TRIPOS>ATOM
      1  PG        17.0080   61.7830   51.0500 P.3   3001  APC3001     0.5389
      2  O1G       16.8840   60.4040   50.5080 O.3   3001  APC3001    -0.1143
      3  O2G       18.1050   62.2620   50.1740 O.2   3001  APC3001    -0.2220
      4  O3G       17.2960   61.8670   52.5070 O.3   3001  APC3001    -0.1143
      5  PB        14.6580   62.0450   50.1330 P.3   3001  APC3001     0.3895
      6  O1B       13.3370   62.7130   50.2090 O.2   3001  APC3001    -0.2544
      7  O2B       14.2540   60.6250   50.3300 O.3   3001  APC3001    -0.1388
      8  O3B       15.7480   62.6320   51.0330 O.3   3001  APC3001    -0.2026
      9  PA        14.9630   60.7090   47.5540 P.3   3001  APC3001     0.3820
     10  O1A       15.5400   59.5680   48.3020 O.3   3001  APC3001    -0.1392
     11  O2A       15.7670   60.7680   46.3120 O.2   3001  APC3001    -0.2548
     12  C3A       15.1970   62.2180   48.4620 C.3   3001  APC3001     0.2357
     13  O5'       13.4330   60.5110   47.1600 O.3   3001  APC3001    -0.2896
     14  C5'       12.8600   61.3070   46.1250 C.3   3001  APC3001     0.1836
     15  C4'       11.4160   61.5940   46.4340 C.3   3001  APC3001     0.1822
     16  O4'       10.5880   60.4340   46.1470 O.3   3001  APC3001    -0.3135
     17  C3'       11.1760   61.8430   47.9140 C.3   3001  APC3001     0.2184
     18  O3'       11.5380   63.1680   48.2880 O.3   3001  APC3001    -0.2174
     19  C2'        9.6850   61.5680   48.0330 C.3   3001  APC3001     0.2570
     20  O2'        8.9060   62.6530   47.5630 O.3   3001  APC3001    -0.2130
     21  C1'        9.5350   60.3600   47.0990 C.3   3001  APC3001     0.3186
     22  N9         9.6630   59.0840   47.8010 N.pl3 3001  APC3001    -0.1439
     23  C8        10.6540   58.1410   47.6540 C.3   3001  APC3001     0.3377
     24  N7        10.5110   57.0990   48.4380 N.2   3001  APC3001    -0.2095
     25  C5         9.3470   57.3720   49.1450 C.2   3001  APC3001     0.2526
     26  C6         8.6540   56.6580   50.1370 C.2   3001  APC3001     0.4393
     27  N6         9.0500   55.4690   50.6060 N.pl3 3001  APC3001     0.2180
     28  N1         7.5250   57.2120   50.6380 N.2   3001  APC3001     0.0021
     29  C2         7.1280   58.4000   50.1620 C.3   3001  APC3001     0.5254
     30  N3         7.6910   59.1650   49.2290 N.2   3001  APC3001    -0.0055
     31  C4         8.8110   58.5890   48.7570 C.2   3001  APC3001     0.3518
@<TRIPOS>BOND
     1    14    15    1
     2    14    13    1
     3    16    15    1
     4    16    21    1
     5    11     9    2
     6    15    17    1
     7    21    22    1
     8    21    19    1
     9    13     9    1
    10     9    10    1
    11     9    12    1
    12    20    19    1
    13    23    22    1
    14    23    24    1
    15    22    31    1
    16    17    19    1
    17    17    18    1
    18    24    25    2
    19    12     5    1
    20    31    25    1
    21    31    30    2
    22    25    26    1
    23    30    29    1
    24     5     6    2
    25     5     7    1
    26     5     8    1
    27    26    27    1
    28    26    28    2
    29    29    28    1
    30     3     1    2
    31     2     1    1
    32     8     1    1
    33     1     4    1
