@<TRIPOS>MOLECULE
1ihi_NAP_A_1.pdb
 48 52 0 0 0
SMALL
GASTEIGER

@<TRIPOS>ATOM
      1  PA         4.4320   43.0580   28.1170 P.3   324  NAP324      0.2189
      2  O1A        5.7630   42.9120   27.5240 O.3   324  NAP324     -0.4371
      3  O2A        3.2630   43.2940   27.3180 O.2   324  NAP324     -0.5170
      4  O5B        4.5350   44.2130   29.2940 O.3   324  NAP324     -0.3112
      5  C5B        5.4190   44.0470   30.5450 C.3   324  NAP324      0.1813
      6  C4B        5.4350   45.4050   31.0630 C.3   324  NAP324      0.1820
      7  O4B        5.9950   46.4590   30.0700 O.3   324  NAP324     -0.3136
      8  C3B        4.3440   45.8940   31.5160 C.3   324  NAP324      0.2157
      9  O3B        4.0640   45.4840   32.8110 O.3   324  NAP324     -0.2175
     10  C2B        4.4000   47.4060   31.4810 C.3   324  NAP324      0.2314
     11  O2B        4.4740   48.0030   32.6400 O.3   324  NAP324     -0.2630
     12  C1B        5.4920   47.7230   30.5500 C.3   324  NAP324      0.3158
     13  N9A        5.0670   48.6200   29.4180 N.pl3 324  NAP324     -0.1439
     14  C8A        3.9680   48.7050   28.5490 C.3   324  NAP324      0.3377
     15  N7A        4.0610   49.6840   27.6840 N.2   324  NAP324     -0.2095
     16  C5A        5.2600   50.2870   27.9730 C.2   324  NAP324      0.2526
     17  C6A        5.9590   51.4120   27.4040 C.2   324  NAP324      0.4393
     18  N6A        5.4580   52.1020   26.3860 N.pl3 324  NAP324      0.2180
     19  N1A        7.1960   51.7770   27.9530 N.2   324  NAP324      0.0021
     20  C2A        7.7280   51.0780   29.0000 C.3   324  NAP324      0.5254
     21  N3A        7.1300   50.0100   29.5820 N.2   324  NAP324     -0.0055
     22  C4A        5.8920   49.6600   29.0250 C.2   324  NAP324      0.3518
     23  O3         4.4050   41.6160   28.8290 O.3   324  NAP324     -0.2703
     24  PN         3.2320   40.6280   29.4200 P.3   324  NAP324      0.2189
     25  O1N        3.3000   40.7120   30.8840 O.3   324  NAP324     -0.4371
     26  O2N        3.5540   39.3180   28.8050 O.2   324  NAP324     -0.5170
     27  O5D        1.7710   41.0320   28.9030 O.3   324  NAP324     -0.3112
     28  C5D        1.3720   41.0490   27.5100 C.3   324  NAP324      0.1813
     29  C4D       -0.0080   40.3950   27.3520 C.3   324  NAP324      0.1799
     30  O4D        0.1130   39.1830   26.5870 O.3   324  NAP324     -0.3327
     31  C3D       -0.7100   39.9280   28.6550 C.3   324  NAP324      0.2158
     32  O3D       -1.4020   40.9470   29.4160 O.3   324  NAP324     -0.2175
     33  C2D       -1.6310   38.8460   28.2000 C.3   324  NAP324      0.2309
     34  O2D       -2.9210   39.2800   27.8150 O.3   324  NAP324     -0.2158
     35  C1D       -0.8180   38.2040   27.0420 C.3   324  NAP324      0.2263
     36  N1N       -0.1350   36.9350   27.4320 N.pl3 324  NAP324     -0.2787
     37  C2N       -0.6180   35.7050   26.8840 C.3   324  NAP324      0.1244
     38  C3N        0.0960   34.5050   27.2900 C.2   324  NAP324      0.0544
     39  C7N       -0.2830   33.1760   26.8200 C.2   324  NAP324      0.2818
     40  O7N        0.3320   32.1570   27.1740 O.2   324  NAP324     -0.2670
     41  N7N       -1.3210   33.0060   25.9790 N.am  324  NAP324     -0.0839
     42  C4N        1.2080   34.6360   28.1840 C.2   324  NAP324      0.0033
     43  C5N        1.6520   35.8180   28.6960 C.2   324  NAP324      0.0157
     44  C6N        0.9870   36.9700   28.3250 C.2   324  NAP324      0.0633
     45  P2B        3.1790   48.9200   33.0610 P.3   324  NAP324      0.5328
     46  O1X        1.9320   48.0820   33.0360 O.3   324  NAP324     -0.1145
     47  O2X        3.5770   49.3990   34.3690 O.3   324  NAP324     -0.1145
     48  O3X        3.1700   49.9900   32.0570 O.2   324  NAP324     -0.2224
@<TRIPOS>BOND
     1    41    39   am
     2    18    17    1
     3    30    35    1
     4    30    29    1
     5    39    40    2
     6    39    38    1
     7    37    38    1
     8    37    36    1
     9    35    36    1
    10    35    33    1
    11    38    42    2
    12     3     1    2
    13    29    28    1
    14    29    31    1
    15    17    19    2
    16    17    16    1
    17    36    44    1
    18    28    27    1
    19     2     1    1
    20    15    16    2
    21    15    14    1
    22    34    33    1
    23    19    20    1
    24    16    22    1
    25     1    23    1
    26     1     4    1
    27    42    43    1
    28    33    31    1
    29    44    43    2
    30    14    13    1
    31    31    32    1
    32    26    24    2
    33    23    24    1
    34    27    24    1
    35    20    21    1
    36    22    13    1
    37    22    21    2
    38     4     5    1
    39    13    12    1
    40    24    25    1
    41     7    12    1
    42     7     6    1
    43     5     6    1
    44    12    10    1
    45     6     8    1
    46    10     8    1
    47    10    11    1
    48     8     9    1
    49    48    45    2
    50    11    45    1
    51    46    45    1
    52    45    47    1
