@<TRIPOS>MOLECULE
1ihi_IU5_A_1.pdb
 28 31 0 0 0
SMALL
GASTEIGER

@<TRIPOS>ATOM
      1  C1        -3.1600   30.1750   40.6320 C.3   326  IU5326      0.0026
      2  C10       -2.7970   31.5840   40.0290 C.3   326  IU5326      0.0003
      3  C11       -2.5350   30.7190   37.5720 C.3   326  IU5326      0.0001
      4  C12       -1.6100   30.6370   36.3000 C.3   326  IU5326      0.0000
      5  C13       -1.2770   32.0380   35.7320 C.3   326  IU5326      0.0001
      6  C14       -0.5680   32.7880   36.9240 C.3   326  IU5326      0.0024
      7  C15       -0.0640   34.1200   36.2650 C.3   326  IU5326      0.0001
      8  C16        0.2850   33.6740   34.8060 C.3   326  IU5326      0.0000
      9  C17       -0.0880   32.1380   34.7120 C.3   326  IU5326      0.0000
     10  C18       -2.5710   32.8060   35.2220 C.3   326  IU5326      0.0000
     11  C19       -4.1550   32.3090   39.7360 C.3   326  IU5326      0.0000
     12  O1A       -0.3770   35.0240   39.0180 O.3   326  IU5326     -0.2232
     13  O1B        0.0500   29.4320   42.5460 O.3   326  IU5326     -0.2232
     14  C2        -1.9110   29.3310   41.0370 C.3   326  IU5326      0.0329
     15  C20       -0.3500   31.6990   33.2040 C.3   326  IU5326      0.0006
     16  C21       -0.7520   30.2700   33.0380 C.3   326  IU5326      0.0000
     17  C22        0.9240   32.0740   32.4000 C.3   326  IU5326      0.0118
     18  C23        0.6230   32.5380   31.0400 C.3   326  IU5326      0.1141
     19  C24       -0.4050   33.7360   30.8770 C.2   326  IU5326      0.3649
     20  C3        -1.1470   30.1480   42.1290 C.3   326  IU5326      0.1520
     21  C4        -0.7250   31.5420   41.6230 C.3   326  IU5326      0.0330
     22  O4        -0.3440   34.7500   31.6270 O.co2 326  IU5326     -0.2457
     23  O4A       -1.1580   33.5340   29.9560 O.co2 326  IU5326     -0.2457
     24  C5        -2.0040   32.3310   41.1950 C.3   326  IU5326      0.0050
     25  C6        -1.6100   33.7360   40.6850 C.3   326  IU5326      0.0330
     26  C7        -0.7410   33.6570   39.4110 C.3   326  IU5326      0.1519
     27  C8        -1.4820   32.9310   38.2360 C.3   326  IU5326      0.0304
     28  C9        -1.8610   31.4890   38.7300 C.3   326  IU5326      0.0024
@<TRIPOS>BOND
     1    23    19   ar
     2    19    18    1
     3    19    22   ar
     4    18    17    1
     5    17    15    1
     6    16    15    1
     7    15     9    1
     8     9     8    1
     9     9     5    1
    10     8     7    1
    11    10     5    1
    12     5     4    1
    13     5     6    1
    14     7     6    1
    15     4     3    1
    16     6    27    1
    17     3    28    1
    18    27    28    1
    19    27    26    1
    20    28     2    1
    21    12    26    1
    22    26    25    1
    23    11     2    1
    24     2     1    1
    25     2    24    1
    26     1    14    1
    27    25    24    1
    28    14    20    1
    29    24    21    1
    30    21    20    1
    31    20    13    1
