@<TRIPOS>MOLECULE
1ihj_III_C_1.pdb
 39 39 0 0 0
SMALL
GASTEIGER

@<TRIPOS>ATOM
      1  N        -23.3180   29.2660   21.1190 N.3     3  THR3       -0.1203
      2  CA       -21.9350   29.5430   21.6080 C.3     3  THR3        0.1994
      3  C        -21.1400   30.2850   20.5340 C.2     3  THR3        0.2618
      4  O        -20.8780   29.7580   19.4500 O.2     3  THR3       -0.2717
      5  CB       -21.2300   28.2370   21.9820 C.3     3  THR3        0.1784
      6  OG1      -19.8580   28.5080   22.2850 O.3     3  THR3       -0.2211
      7  CG2      -21.3420   27.2290   20.8490 C.3     3  THR3        0.0376
      8  N        -20.7430   31.5090   20.8590 N.am    4  GLU4       -0.1965
      9  CA       -20.0400   32.3730   19.9210 C.3     4  GLU4        0.1733
     10  C        -18.6430   32.0080   19.4210 C.2     4  GLU4        0.2616
     11  O        -18.4060   32.0440   18.2150 O.2     4  GLU4       -0.2715
     12  CB       -20.0230   33.8010   20.4730 C.3     4  GLU4        0.0429
     13  CG       -19.6200   34.8510   19.4530 C.3     4  GLU4        0.1163
     14  CD       -20.1220   36.2340   19.8180 C.2     4  GLU4        0.3649
     15  OE1      -21.3530   36.3980   19.9570 O.co2   4  GLU4       -0.2457
     16  OE2      -19.2930   37.1560   19.9650 O.co2   4  GLU4       -0.2457
     17  N        -17.7140   31.6630   20.3080 N.am    5  PHE5       -0.1960
     18  CA       -16.3570   31.3510   19.8410 C.3     5  PHE5        0.1771
     19  C        -15.9110   29.9140   20.0760 C.2     5  PHE5        0.2620
     20  O        -15.3590   29.5950   21.1300 O.2     5  PHE5       -0.2715
     21  CB       -15.3450   32.2940   20.4940 C.3     5  PHE5        0.0574
     22  CG       -15.6760   33.7460   20.3180 C.ar    5  PHE5       -0.0200
     23  CD1      -16.3410   34.4480   21.3210 C.ar    5  PHE5       -0.0042
     24  CD2      -15.3360   34.4090   19.1450 C.ar    5  PHE5       -0.0042
     25  CE1      -16.6610   35.7910   21.1580 C.ar    5  PHE5       -0.0003
     26  CE2      -15.6540   35.7570   18.9710 C.ar    5  PHE5       -0.0003
     27  CZ       -16.3160   36.4470   19.9790 C.ar    5  PHE5       -0.0000
     28  N        -16.1280   29.0500   19.0900 N.am    6  CYS6       -0.1954
     29  CA       -15.7410   27.6500   19.2400 C.3     6  CYS6        0.1843
     30  C        -14.8990   27.1550   18.0710 C.2     6  CYS6        0.2626
     31  O        -15.0300   27.6420   16.9500 O.2     6  CYS6       -0.2714
     32  CB       -16.9770   26.7590   19.3470 C.3     6  CYS6        0.0997
     33  SG       -18.2750   27.2420   20.5310 S.3     6  CYS6       -0.0797
     34  N        -14.0480   26.1710   18.3380 N.am    7  ALA7       -0.1941
     35  CA       -13.1910   25.6020   17.3040 C.3     7  ALA7        0.1979
     36  C        -12.8270   24.1640   17.6450 C.2     7  ALA7        0.3842
     37  O        -12.0480   23.5610   16.8740 O.co2   7  ALA7       -0.2437
     38  CB       -11.9200   26.4450   17.1500 C.3     7  ALA7        0.0356
     39  OXT      -13.3280   23.6600   18.6770 O.co2   7  ALA7       -0.2437
@<TRIPOS>BOND
     1    37    36   ar
     2    31    30    2
     3    38    35    1
     4    35    36    1
     5    35    34    1
     6    36    39   ar
     7    30    34   am
     8    30    29    1
     9    11    10    2
    10    26    24   ar
    11    26    27   ar
    12    28    29    1
    13    28    19   am
    14    24    22   ar
    15    29    32    1
    16    32    33    1
    17    10     9    1
    18    10    17   am
    19     4     3    2
    20    13    14    1
    21    13    12    1
    22    14    15   ar
    23    14    16   ar
    24    18    19    1
    25    18    17    1
    26    18    21    1
    27     9    12    1
    28     9     8    1
    29    27    25   ar
    30    19    20    2
    31    22    21    1
    32    22    23   ar
    33     3     8   am
    34     3     2    1
    35     7     5    1
    36     1     2    1
    37    25    23   ar
    38     2     5    1
    39     5     6    1
