@<TRIPOS>MOLECULE
1ihu_ADP_A_1.pdb
 27 29 0 0 0
SMALL
GASTEIGER

@<TRIPOS>ATOM
      1  PB        23.4890   18.1860   81.0670 P.3   590  ADP590      0.5373
      2  O1B       22.4320   19.1450   81.4920 O.3   590  ADP590     -0.1143
      3  O2B       23.0970   16.6720   81.1370 O.3   590  ADP590     -0.1143
      4  O3B       24.1980   18.5250   79.7390 O.2   590  ADP590     -0.2221
      5  PA        25.7130   19.3450   82.4160 P.3   590  ADP590      0.2231
      6  O1A       25.4040   20.7450   81.9440 O.2   590  ADP590     -0.5169
      7  O2A       26.8710   18.4850   82.2990 O.3   590  ADP590     -0.4370
      8  O3A       24.6050   18.1800   82.1710 O.3   590  ADP590     -0.2261
      9  O5'       25.4130   19.5540   83.9660 O.3   590  ADP590     -0.3111
     10  C5'       25.2040   19.4500   85.3820 C.3   590  ADP590      0.1813
     11  C4'       25.8890   20.6280   86.0170 C.3   590  ADP590      0.1821
     12  O4'       26.6140   19.6930   86.9010 O.3   590  ADP590     -0.3135
     13  C3'       27.0410   21.5650   85.7380 C.3   590  ADP590      0.2184
     14  O3'       26.8140   22.7210   86.5800 O.3   590  ADP590     -0.2174
     15  C2'       28.3060   20.6700   86.1330 C.3   590  ADP590      0.2570
     16  O2'       29.5970   21.3360   86.0530 O.3   590  ADP590     -0.2130
     17  C1'       28.0100   19.6070   87.2180 C.3   590  ADP590      0.3186
     18  N9        28.3920   18.1360   87.0680 N.pl3 590  ADP590     -0.1439
     19  C8        28.2660   17.2920   86.0620 C.3   590  ADP590      0.3377
     20  N7        28.7990   16.1540   86.3150 N.2   590  ADP590     -0.2095
     21  C5        29.3760   16.2410   87.5850 C.2   590  ADP590      0.2526
     22  C6        30.1310   15.4580   88.5730 C.2   590  ADP590      0.4393
     23  N6        30.5320   14.1550   88.4160 N.pl3 590  ADP590      0.2180
     24  N1        30.4950   15.9980   89.7620 N.2   590  ADP590      0.0021
     25  C2        30.1960   17.2570   90.0930 C.3   590  ADP590      0.5254
     26  N3        29.5210   18.0210   89.2100 N.2   590  ADP590     -0.0055
     27  C4        29.1410   17.5070   88.0160 C.2   590  ADP590      0.3518
@<TRIPOS>BOND
     1     4     1    2
     2     1     3    1
     3     1     2    1
     4     1     8    1
     5     6     5    2
     6     8     5    1
     7     7     5    1
     8     5     9    1
     9     9    10    1
    10    10    11    1
    11    13    11    1
    12    13    15    1
    13    13    14    1
    14    11    12    1
    15    16    15    1
    16    19    20    1
    17    19    18    1
    18    15    17    1
    19    20    21    2
    20    12    17    1
    21    18    17    1
    22    18    27    1
    23    21    27    1
    24    21    22    1
    25    27    26    2
    26    23    22    1
    27    22    24    2
    28    26    25    1
    29    24    25    1
