@<TRIPOS>MOLECULE
1ihx_SND_A_1.pdb
 36 39 0 0 0
SMALL
GASTEIGER

@<TRIPOS>ATOM
      1  PA        43.1380   10.8210   42.4430 P.3   335  SND335      0.2189
      2  O1A       43.9570    9.5860   42.5060 O.3   335  SND335     -0.4371
      3  O2A       42.6230   10.9940   41.0790 O.2   335  SND335     -0.5170
      4  O5B       44.0110   12.1040   42.8130 O.3   335  SND335     -0.3112
      5  C5B       45.3570   11.9570   43.2770 C.3   335  SND335      0.1813
      6  C4B       46.1370   13.1530   42.8310 C.3   335  SND335      0.1821
      7  O4B       47.1210   13.4580   43.8530 O.3   335  SND335     -0.3135
      8  C3B       46.9090   12.9830   41.5270 C.3   335  SND335      0.2184
      9  O3B       46.7970   14.1130   40.6370 O.3   335  SND335     -0.2174
     10  C2B       48.2990   12.6740   42.0390 C.3   335  SND335      0.2570
     11  O2B       49.3480   12.9900   41.1130 O.3   335  SND335     -0.2130
     12  C1B       48.3830   13.5290   43.2710 C.3   335  SND335      0.3186
     13  N9A       49.4090   13.1070   44.2110 N.pl3 335  SND335     -0.1439
     14  C8A       49.8020   11.8630   44.6170 C.3   335  SND335      0.3377
     15  N7A       50.7980   11.9190   45.5150 N.2   335  SND335     -0.2095
     16  C5A       51.0410   13.2740   45.6800 C.2   335  SND335      0.2526
     17  C6A       51.9600   14.0240   46.4860 C.2   335  SND335      0.4393
     18  N6A       52.8410   13.4680   47.3050 N.pl3 335  SND335      0.2180
     19  N1A       51.9180   15.4070   46.3940 N.2   335  SND335      0.0021
     20  C2A       51.0010   15.9990   45.5400 C.3   335  SND335      0.5254
     21  N3A       50.1220   15.3940   44.7670 N.2   335  SND335     -0.0055
     22  C4A       50.1880   14.0230   44.8800 C.2   335  SND335      0.3518
     23  O3        42.0100   10.8710   43.5300 O.3   335  SND335     -0.2703
     24  PN        41.1270   12.1550   43.9760 P.3   335  SND335      0.2189
     25  O1N       42.0360   13.2480   44.3570 O.3   335  SND335     -0.4371
     26  O2N       40.3170   12.5690   42.8460 O.2   335  SND335     -0.5170
     27  O5D       40.2290   11.7740   45.1710 O.3   335  SND335     -0.3112
     28  C5D       40.7790   11.3370   46.3810 C.3   335  SND335      0.1813
     29  C4D       39.6130   11.1720   47.3070 C.3   335  SND335      0.1797
     30  O4D       38.6050   10.3080   46.7310 O.3   335  SND335     -0.3336
     31  C3D       39.9690   10.6910   48.6680 C.3   335  SND335      0.2156
     32  O3D       39.4090   11.4650   49.7410 O.3   335  SND335     -0.2176
     33  C2D       39.4200    9.2530   48.6300 C.3   335  SND335      0.2298
     34  O2D       39.0560    8.8010   49.9630 O.3   335  SND335     -0.2160
     35  C1D       38.2560    9.3090   47.6460 C.3   335  SND335      0.2397
     36  N1N       38.0350    8.0300   46.9270 N.3   335  SND335     -0.0972
@<TRIPOS>BOND
     1     9     8    1
     2     3     1    2
     3    11    10    1
     4     8    10    1
     5     8     6    1
     6    10    12    1
     7     1     2    1
     8     1     4    1
     9     1    23    1
    10     4     5    1
    11     6     5    1
    12     6     7    1
    13    26    24    2
    14    12     7    1
    15    12    13    1
    16    23    24    1
    17    24    25    1
    18    24    27    1
    19    13    14    1
    20    13    22    1
    21    14    15    1
    22    21    22    2
    23    21    20    1
    24    22    16    1
    25    27    28    1
    26    15    16    2
    27    20    19    1
    28    16    17    1
    29    28    29    1
    30    19    17    2
    31    17    18    1
    32    30    29    1
    33    30    35    1
    34    36    35    1
    35    29    31    1
    36    35    33    1
    37    33    31    1
    38    33    34    1
    39    31    32    1
