@<TRIPOS>MOLECULE
1ihy_APR_A_1.pdb
 36 39 0 0 0
SMALL
GASTEIGER

@<TRIPOS>ATOM
      1  N1        52.1960   15.3350   46.6300 N.2   335  APR335      0.0021
      2  C2        51.3360   15.9790   45.7620 C.3   335  APR335      0.5254
      3  N3        50.4660   15.4320   44.9390 N.2   335  APR335     -0.0055
      4  C4        50.4690   14.0630   45.0130 C.2   335  APR335      0.3518
      5  C5        51.2630   13.2610   45.8330 C.2   335  APR335      0.2526
      6  C6        52.1780   13.9520   46.6890 C.2   335  APR335      0.4393
      7  N6        53.0040   13.3320   47.5240 N.pl3 335  APR335      0.2180
      8  N7        50.9810   11.9180   45.6340 N.2   335  APR335     -0.2095
      9  C8        50.0230   11.9210   44.6930 C.3   335  APR335      0.3377
     10  N9        49.6800   13.1850   44.2870 N.pl3 335  APR335     -0.1439
     11  C1'       48.6960   13.6340   43.2760 C.3   335  APR335      0.3186
     12  C2'       48.7470   12.8060   42.0060 C.3   335  APR335      0.2570
     13  O2'       49.7280   13.3210   41.0920 O.3   335  APR335     -0.2130
     14  C3'       47.3280   12.8520   41.4500 C.3   335  APR335      0.2184
     15  O3'       47.0710   13.7920   40.3880 O.3   335  APR335     -0.2174
     16  O4'       47.3810   13.5480   43.7470 O.3   335  APR335     -0.3135
     17  C4'       46.4780   13.1110   42.6900 C.3   335  APR335      0.1821
     18  C5'       45.6690   11.9220   43.1950 C.3   335  APR335      0.1813
     19  O5'       44.2450   12.1730   42.9670 O.3   335  APR335     -0.3112
     20  PA        43.2760   11.0420   42.3000 P.3   335  APR335      0.2189
     21  O1A       43.8770    9.6920   42.4680 O.3   335  APR335     -0.4371
     22  O2A       43.0720   11.3190   40.8590 O.2   335  APR335     -0.5170
     23  O3A       41.9440   11.2310   43.1240 O.3   335  APR335     -0.2703
     24  PB        41.3540   12.4480   44.1200 P.3   335  APR335      0.2189
     25  O1B       41.8420   12.2620   45.5160 O.3   335  APR335     -0.4371
     26  O2B       41.7460   13.7870   43.5970 O.2   335  APR335     -0.5170
     27  O5D       39.8310   12.2230   44.0040 O.3   335  APR335     -0.3112
     28  C5D       39.3580   10.9990   44.4750 C.3   335  APR335      0.1813
     29  O4D       37.6230   11.0880   42.8680 O.3   335  APR335     -0.3237
     30  O1D       37.3610    9.6090   41.0550 O.3   335  APR335     -0.1869
     31  C1D       36.9010    9.9800   42.4090 C.3   335  APR335      0.3023
     32  O2D       36.1880    7.8720   43.5050 O.3   335  APR335     -0.2148
     33  C2D       37.1920    8.8990   43.4350 C.3   335  APR335      0.2433
     34  O3D       36.0450    9.7770   45.4870 O.3   335  APR335     -0.2175
     35  C3D       37.3040    9.6620   44.7670 C.3   335  APR335      0.2168
     36  C4D       37.9010   10.9530   44.2880 C.3   335  APR335      0.1807
@<TRIPOS>BOND
     1    15    14    1
     2    22    20    2
     3    30    31    1
     4    13    12    1
     5    14    12    1
     6    14    17    1
     7    12    11    1
     8    20    21    1
     9    20    19    1
    10    20    23    1
    11    31    29    1
    12    31    33    1
    13    17    18    1
    14    17    16    1
    15    29    36    1
    16    19    18    1
    17    23    24    1
    18    11    16    1
    19    11    10    1
    20    33    32    1
    21    33    35    1
    22    26    24    2
    23    27    24    1
    24    27    28    1
    25    24    25    1
    26    10     9    1
    27    10     4    1
    28    36    28    1
    29    36    35    1
    30     9     8    1
    31    35    34    1
    32     3     4    2
    33     3     2    1
    34     4     5    1
    35     8     5    2
    36     2     1    1
    37     5     6    1
    38     1     6    2
    39     6     7    1
