@<TRIPOS>MOLECULE
1ii0_ADP_A_1.pdb
 27 29 0 0 0
SMALL
GASTEIGER

@<TRIPOS>ATOM
      1  PB        19.6120   82.2090   41.3950 P.3   590  ADP590      0.5373
      2  O1B       20.4300   82.7140   40.2560 O.2   590  ADP590     -0.2221
      3  O2B       18.1110   82.5770   41.3520 O.3   590  ADP590     -0.1143
      4  O3B       19.8440   80.7520   41.7610 O.3   590  ADP590     -0.1143
      5  PA        20.6530   83.9100   43.8080 P.3   590  ADP590      0.2231
      6  O1A       22.0510   83.4460   43.6570 O.2   590  ADP590     -0.5169
      7  O2A       20.0040   83.2300   44.9310 O.3   590  ADP590     -0.4370
      8  O3A       20.0270   83.0250   42.6310 O.3   590  ADP590     -0.2261
      9  O5'       20.9320   85.4030   43.3530 O.3   590  ADP590     -0.3111
     10  C5'       20.3210   86.6820   43.1780 C.3   590  ADP590      0.1813
     11  C4'       21.4470   87.4930   43.7780 C.3   590  ADP590      0.1821
     12  O4'       20.6080   88.3030   44.6820 O.3   590  ADP590     -0.3135
     13  C3'       22.4840   87.3330   44.8890 C.3   590  ADP590      0.2184
     14  O3'       23.4410   88.4140   44.7390 O.3   590  ADP590     -0.2174
     15  C2'       21.7160   87.4190   46.2770 C.3   590  ADP590      0.2570
     16  O2'       22.6060   87.3300   47.4260 O.3   590  ADP590     -0.2130
     17  C1'       20.6500   88.5260   46.0930 C.3   590  ADP590      0.3186
     18  N9        19.1820   88.2180   46.3960 N.pl3 590  ADP590     -0.1439
     19  C8        18.3780   87.1720   46.2600 C.3   590  ADP590      0.3377
     20  N7        17.2030   87.2830   46.7340 N.2   590  ADP590     -0.2095
     21  C5        17.2240   88.5550   47.2860 C.2   590  ADP590      0.2526
     22  C6        16.3420   89.4790   47.9750 C.2   590  ADP590      0.4393
     23  N6        15.0320   89.1970   48.2490 N.pl3 590  ADP590      0.2180
     24  N1        16.7680   90.7170   48.3410 N.2   590  ADP590      0.0021
     25  C2        18.0090   91.1520   48.0900 C.3   590  ADP590      0.5254
     26  N3        18.8860   90.3390   47.4730 N.2   590  ADP590     -0.0055
     27  C4        18.4520   89.1070   47.1130 C.2   590  ADP590      0.3518
@<TRIPOS>BOND
     1     2     1    2
     2     3     1    1
     3     1     4    1
     4     1     8    1
     5     8     5    1
     6    10     9    1
     7    10    11    1
     8     9     5    1
     9     6     5    2
    10    11    12    1
    11    11    13    1
    12     5     7    1
    13    12    17    1
    14    14    13    1
    15    13    15    1
    16    17    15    1
    17    17    18    1
    18    19    18    1
    19    19    20    1
    20    15    16    1
    21    18    27    1
    22    20    21    2
    23    27    21    1
    24    27    26    2
    25    21    22    1
    26    26    25    1
    27    22    23    1
    28    22    24    2
    29    25    24    1
