@<TRIPOS>MOLECULE
1ii0_ATP_A_1.pdb
 31 33 0 0 0
SMALL
GASTEIGER

@<TRIPOS>ATOM
      1  PG        12.5180   88.0740   25.9510 P.3   591  ATP591      0.5373
      2  O1G       13.7780   87.3130   26.2890 O.3   591  ATP591     -0.1143
      3  O2G       12.2800   88.3580   24.5060 O.2   591  ATP591     -0.2221
      4  O3G       11.2860   87.7120   26.7390 O.3   591  ATP591     -0.1143
      5  PB        13.9220   90.6730   26.3060 P.3   591  ATP591      0.2277
      6  O1B       13.6440   91.1410   24.9070 O.2   591  ATP591     -0.5168
      7  O2B       15.2540   90.1500   26.7380 O.3   591  ATP591     -0.4368
      8  O3B       12.8220   89.5340   26.5650 O.3   591  ATP591     -0.2258
      9  PA        12.3550   92.9870   27.1770 P.3   591  ATP591      0.2189
     10  O1A       12.9720   94.0760   26.3610 O.2   591  ATP591     -0.5170
     11  O2A       11.0300   92.4870   26.6590 O.3   591  ATP591     -0.4371
     12  O3A       13.3470   91.7410   27.3380 O.3   591  ATP591     -0.2700
     13  O5'       12.3600   93.3580   28.7220 O.3   591  ATP591     -0.3112
     14  C5'       11.5670   92.7220   29.7250 C.3   591  ATP591      0.1813
     15  C4'       10.6110   93.6580   30.4350 C.3   591  ATP591      0.1821
     16  O4'       11.3980   94.5350   31.2830 O.3   591  ATP591     -0.3135
     17  C3'        9.7400   94.5520   29.5520 C.3   591  ATP591      0.2184
     18  O3'        8.3670   94.3920   29.9120 O.3   591  ATP591     -0.2174
     19  C2'       10.3200   95.9580   29.6600 C.3   591  ATP591      0.2570
     20  O2'        9.6180   97.1750   29.4540 O.3   591  ATP591     -0.2130
     21  C1'       11.1130   95.8930   30.9700 C.3   591  ATP591      0.3186
     22  N9        12.3850   96.6280   30.8820 N.pl3 591  ATP591     -0.1439
     23  C8        13.4820   96.3830   30.0730 C.3   591  ATP591      0.3377
     24  N7        14.4750   97.2270   30.1900 N.2   591  ATP591     -0.2095
     25  C5        14.0220   98.1150   31.1580 C.2   591  ATP591      0.2526
     26  C6        14.5110   99.2890   31.8110 C.2   591  ATP591      0.4393
     27  N6        15.7040   99.8380   31.5710 N.pl3 591  ATP591      0.2180
     28  N1        13.7690   99.9570   32.7520 N.2   591  ATP591      0.0021
     29  C2        12.5350   99.5320   33.1180 C.3   591  ATP591      0.5254
     30  N3        12.0200   98.4290   32.5380 N.2   591  ATP591     -0.0055
     31  C4        12.7410   97.7540   31.5960 C.2   591  ATP591      0.3518
@<TRIPOS>BOND
     1     3     1    2
     2     6     5    2
     3     1     2    1
     4     1     8    1
     5     1     4    1
     6     5     8    1
     7     5     7    1
     8     5    12    1
     9    10     9    2
    10    11     9    1
    11     9    12    1
    12     9    13    1
    13    13    14    1
    14    20    19    1
    15    17    19    1
    16    17    18    1
    17    17    15    1
    18    19    21    1
    19    14    15    1
    20    23    24    1
    21    23    22    1
    22    24    25    2
    23    15    16    1
    24    22    21    1
    25    22    31    1
    26    21    16    1
    27    25    31    1
    28    25    26    1
    29    27    26    1
    30    31    30    2
    31    26    28    2
    32    30    29    1
    33    28    29    1
