@<TRIPOS>MOLECULE
1ii5_GLU_A_1.pdb
 10 9 0 0 0
SMALL
GASTEIGER

@<TRIPOS>ATOM
      1  N         88.2610   -7.6600   -9.9900 N.3   999  GLU999     -0.1208
      2  CA        87.7440   -7.2760  -11.3340 C.3   999  GLU999      0.1949
      3  C         88.4740   -6.0300  -11.8110 C.2   999  GLU999      0.3819
      4  O         88.9690   -5.2920  -10.9430 O.co2 999  GLU999     -0.2441
      5  CB        86.2340   -7.0120  -11.2670 C.3   999  GLU999      0.0424
      6  CG        85.4370   -8.1940  -10.7460 C.3   999  GLU999      0.1161
      7  CD        83.9370   -7.9440  -10.7070 C.2   999  GLU999      0.3649
      8  OE1       83.4250   -7.1400  -11.5200 O.co2 999  GLU999     -0.2457
      9  OE2       83.2600   -8.5670   -9.8620 O.co2 999  GLU999     -0.2457
     10  OXT       88.5430   -5.8010  -13.0330 O.co2 999  GLU999     -0.2441
@<TRIPOS>BOND
     1    10     3   ar
     2     3     2    1
     3     3     4   ar
     4     8     7   ar
     5     2     5    1
     6     2     1    1
     7     5     6    1
     8     6     7    1
     9     7     9   ar
