@<TRIPOS>MOLECULE
1ii6_ADP_A_1.pdb
 27 29 0 0 0
SMALL
GASTEIGER

@<TRIPOS>ATOM
      1  PB        44.8190   54.2030  -14.1540 P.3   2601  ADP2601     0.5373
      2  O1B       44.0530   53.0080  -14.5960 O.3   2601  ADP2601    -0.1143
      3  O2B       44.8810   55.3600  -15.1610 O.2   2601  ADP2601    -0.2221
      4  O3B       44.3970   54.6820  -12.7860 O.3   2601  ADP2601    -0.1143
      5  PA        47.8240   54.4640  -13.8450 P.3   2601  ADP2601     0.2231
      6  O1A       47.0470   55.4890  -13.0920 O.3   2601  ADP2601    -0.4370
      7  O2A       48.1250   53.0370  -13.6440 O.2   2601  ADP2601    -0.5169
      8  O3A       46.3310   53.7820  -13.9640 O.3   2601  ADP2601    -0.2261
      9  O5'       47.8490   54.8350  -15.3930 O.3   2601  ADP2601    -0.3111
     10  C5'       48.5970   53.9360  -16.2590 C.3   2601  ADP2601     0.1813
     11  C4'       49.9890   54.4060  -16.6970 C.3   2601  ADP2601     0.1821
     12  O4'       49.8710   55.6750  -17.4010 O.3   2601  ADP2601    -0.3135
     13  C3'       51.0950   54.6240  -15.6440 C.3   2601  ADP2601     0.2184
     14  O3'       52.1220   53.6300  -15.8390 O.3   2601  ADP2601    -0.2174
     15  C2'       51.7490   56.0470  -15.9590 C.3   2601  ADP2601     0.2570
     16  O2'       53.1320   55.9780  -16.4400 O.3   2601  ADP2601    -0.2130
     17  C1'       50.8750   56.6290  -17.0990 C.3   2601  ADP2601     0.3186
     18  N9        50.2810   58.0030  -16.7880 N.pl3 2601  ADP2601    -0.1439
     19  C8        49.0150   58.3090  -16.6130 C.3   2601  ADP2601     0.3377
     20  N7        48.8350   59.5520  -16.3720 N.2   2601  ADP2601    -0.2095
     21  C5        50.1000   60.1080  -16.3900 C.2   2601  ADP2601     0.2526
     22  C6        50.6240   61.4410  -16.2190 C.2   2601  ADP2601     0.4393
     23  N6        49.8260   62.5280  -15.9780 N.pl3 2601  ADP2601     0.2180
     24  N1        51.9670   61.6140  -16.3100 N.2   2601  ADP2601     0.0021
     25  C2        52.7610   60.5660  -16.5500 C.3   2601  ADP2601     0.5254
     26  N3        52.3600   59.2960  -16.7250 N.2   2601  ADP2601    -0.0055
     27  C4        51.0120   59.1390  -16.6330 C.2   2601  ADP2601     0.3518
@<TRIPOS>BOND
     1    12    17    1
     2    12    11    1
     3    17    18    1
     4    17    15    1
     5    18    27    1
     6    18    19    1
     7    26    27    2
     8    26    25    1
     9    11    10    1
    10    11    13    1
    11    27    21    1
    12    19    20    1
    13    25    24    1
    14    16    15    1
    15    21    20    2
    16    21    22    1
    17    24    22    2
    18    10     9    1
    19    22    23    1
    20    15    13    1
    21    14    13    1
    22     9     5    1
    23     3     1    2
    24     2     1    1
    25     1     8    1
    26     1     4    1
    27     8     5    1
    28     5     7    2
    29     5     6    1
