@<TRIPOS>MOLECULE
1ii9_ANP_A_1.pdb
 31 33 0 0 0
SMALL
GASTEIGER

@<TRIPOS>ATOM
      1  PG        12.7020   88.1570   25.7700 P.3   591  ANP591      0.4884
      2  O1G       13.8820   87.4980   26.4430 O.3   591  ANP591     -0.1240
      3  O2G       12.8140   88.3730   24.2950 O.2   591  ANP591     -0.2331
      4  O3G       11.3380   87.7780   26.2650 O.3   591  ANP591     -0.1240
      5  PB        13.8650   90.8090   26.2010 P.3   591  ANP591      0.4669
      6  O1B       13.5210   91.2950   24.8200 O.2   591  ANP591     -0.2351
      7  O2B       15.1170   90.3900   26.8860 O.3   591  ANP591     -0.1253
      8  N3B       12.7890   89.6450   26.3670 N.3   591  ANP591     -0.0163
      9  PA        12.3640   93.1360   27.3310 P.3   591  ANP591      0.2220
     10  O1A       13.0360   94.3130   26.6980 O.2   591  ANP591     -0.5170
     11  O2A       11.0420   92.6430   26.7810 O.3   591  ANP591     -0.4370
     12  O3A       13.1540   91.7570   27.2630 O.3   591  ANP591     -0.2360
     13  O5'       12.4090   93.2720   28.9160 O.3   591  ANP591     -0.3111
     14  C5'       11.3850   92.8320   29.8040 C.3   591  ANP591      0.1813
     15  C4'       10.5480   93.9970   30.3100 C.3   591  ANP591      0.1821
     16  O4'       11.3250   94.8670   31.1680 O.3   591  ANP591     -0.3135
     17  C3'        9.8120   94.9660   29.3930 C.3   591  ANP591      0.2184
     18  O3'        8.4210   94.9210   29.6800 O.3   591  ANP591     -0.2174
     19  C2'       10.3290   96.3710   29.6270 C.3   591  ANP591      0.2570
     20  O2'        9.6180   97.5860   29.4680 O.3   591  ANP591     -0.2130
     21  C1'       11.0960   96.2390   30.9340 C.3   591  ANP591      0.3186
     22  N9        12.4190   96.8530   30.8240 N.pl3 591  ANP591     -0.1439
     23  C8        13.4930   96.5340   30.0080 C.3   591  ANP591      0.3377
     24  N7        14.4900   97.3640   30.1720 N.2   591  ANP591     -0.2095
     25  C5        14.0670   98.2560   31.1430 C.2   591  ANP591      0.2526
     26  C6        14.5810   99.4060   31.8100 C.2   591  ANP591      0.4393
     27  N6        15.7880   99.9040   31.5340 N.pl3 591  ANP591      0.2180
     28  N1        13.8680  100.0750   32.7760 N.2   591  ANP591      0.0021
     29  C2        12.6250   99.6880   33.1490 C.3   591  ANP591      0.5254
     30  N3        12.0820   98.6210   32.5370 N.2   591  ANP591     -0.0055
     31  C4        12.7810   97.9450   31.5810 C.2   591  ANP591      0.3518
@<TRIPOS>BOND
     1     3     1    2
     2     6     5    2
     3     1     4    1
     4     1     8    1
     5     1     2    1
     6     5     8    1
     7     5     7    1
     8     5    12    1
     9    10     9    2
    10    11     9    1
    11    12     9    1
    12     9    13    1
    13    13    14    1
    14    17    19    1
    15    17    18    1
    16    17    15    1
    17    20    19    1
    18    19    21    1
    19    14    15    1
    20    23    24    1
    21    23    22    1
    22    24    25    2
    23    15    16    1
    24    22    21    1
    25    22    31    1
    26    21    16    1
    27    25    31    1
    28    25    26    1
    29    27    26    1
    30    31    30    2
    31    26    28    2
    32    30    29    1
    33    28    29    1
