@<TRIPOS>MOLECULE
1ii9_ADP_A_1.pdb
 27 29 0 0 0
SMALL
GASTEIGER

@<TRIPOS>ATOM
      1  PB        19.7310   82.1670   41.3580 P.3   590  ADP590      0.5373
      2  O1B       20.6640   82.5930   40.2870 O.2   590  ADP590     -0.2221
      3  O2B       18.2680   82.6120   41.1860 O.3   590  ADP590     -0.1143
      4  O3B       19.8550   80.7110   41.7670 O.3   590  ADP590     -0.1143
      5  PA        20.7160   83.9390   43.7290 P.3   590  ADP590      0.2231
      6  O1A       22.1640   83.5730   43.6750 O.2   590  ADP590     -0.5169
      7  O2A       20.0440   83.3320   44.8790 O.3   590  ADP590     -0.4370
      8  O3A       20.1110   82.9580   42.6220 O.3   590  ADP590     -0.2261
      9  O5'       20.9600   85.4430   43.3040 O.3   590  ADP590     -0.3111
     10  C5'       20.5200   86.7740   43.0250 C.3   590  ADP590      0.1813
     11  C4'       21.6700   87.5210   43.6640 C.3   590  ADP590      0.1821
     12  O4'       20.8150   88.3060   44.5810 O.3   590  ADP590     -0.3135
     13  C3'       22.6640   87.3240   44.8070 C.3   590  ADP590      0.2184
     14  O3'       23.7990   88.2130   44.6180 O.3   590  ADP590     -0.2174
     15  C2'       21.8760   87.4700   46.1790 C.3   590  ADP590      0.2570
     16  O2'       22.7020   87.4130   47.3700 O.3   590  ADP590     -0.2130
     17  C1'       20.7920   88.5570   45.9880 C.3   590  ADP590      0.3186
     18  N9        19.3070   88.3160   46.3190 N.pl3 590  ADP590     -0.1439
     19  C8        18.4530   87.3070   46.1750 C.3   590  ADP590      0.3377
     20  N7        17.2620   87.3980   46.6310 N.2   590  ADP590     -0.2095
     21  C5        17.2780   88.6460   47.2250 C.2   590  ADP590      0.2526
     22  C6        16.3950   89.5610   47.9280 C.2   590  ADP590      0.4393
     23  N6        15.0700   89.4150   48.2570 N.pl3 590  ADP590      0.2180
     24  N1        16.8760   90.7590   48.3170 N.2   590  ADP590      0.0021
     25  C2        18.1290   91.1620   48.1030 C.3   590  ADP590      0.5254
     26  N3        18.9890   90.3480   47.4780 N.2   590  ADP590     -0.0055
     27  C4        18.5340   89.1470   47.0680 C.2   590  ADP590      0.3518
@<TRIPOS>BOND
     1     2     1    2
     2     3     1    1
     3     1     4    1
     4     1     8    1
     5     8     5    1
     6    10     9    1
     7    10    11    1
     8     9     5    1
     9    11    12    1
    10    11    13    1
    11     6     5    2
    12     5     7    1
    13    12    17    1
    14    14    13    1
    15    13    15    1
    16    17    15    1
    17    17    18    1
    18    19    18    1
    19    19    20    1
    20    15    16    1
    21    18    27    1
    22    20    21    2
    23    27    21    1
    24    27    26    2
    25    21    22    1
    26    26    25    1
    27    22    23    1
    28    22    24    2
    29    25    24    1
