@<TRIPOS>MOLECULE
1iih_3PG_B_1.pdb
 11 10 0 0 0
SMALL
GASTEIGER

@<TRIPOS>ATOM
      1  C1        46.4510   15.2650   -8.7440 C.2   600  3PG600      0.3972
      2  O1        47.3220   15.8050   -8.0570 O.co2 600  3PG600     -0.2427
      3  O2        45.2700   15.2200   -8.4480 O.co2 600  3PG600     -0.2427
      4  C2        46.8730   14.6890  -10.0830 C.3   600  3PG600      0.2838
      5  O3        47.2570   13.3250  -10.0540 O.3   600  3PG600     -0.2081
      6  C3        48.0670   15.5450  -10.4800 C.3   600  3PG600      0.1983
      7  O1P       47.6780   16.7860  -11.1160 O.3   600  3PG600     -0.2669
      8  P         47.7670   16.9710  -12.7130 P.3   600  3PG600      0.5327
      9  O2P       49.2390   16.7440  -12.9640 O.3   600  3PG600     -0.1145
     10  O3P       46.8860   15.8500  -13.2130 O.2   600  3PG600     -0.2224
     11  O4P       47.3480   18.3830  -12.9890 O.3   600  3PG600     -0.1145
@<TRIPOS>BOND
     1    10     8    2
     2    11     8    1
     3     9     8    1
     4     8     7    1
     5     7     6    1
     6     6     4    1
     7     4     5    1
     8     4     1    1
     9     1     3   ar
    10     1     2   ar
