@<TRIPOS>MOLECULE
1iim_TTP_A_1.pdb
 29 30 0 0 0
SMALL
GASTEIGER

@<TRIPOS>ATOM
      1  PA         1.8030   92.2240   31.4160 P.3   501  TTP501      0.2189
      2  O1A        3.0130   92.1570   30.8880 O.2   501  TTP501     -0.5170
      3  O2A        1.5260   93.7470   31.3730 O.3   501  TTP501     -0.4371
      4  O3A        0.6780   91.3950   30.4690 O.3   501  TTP501     -0.2700
      5  PB         1.0230   91.1500   28.8550 P.3   501  TTP501      0.2277
      6  O1B       -0.3680   90.8780   28.1630 O.2   501  TTP501     -0.5168
      7  O2B        1.9310   89.8660   28.7110 O.3   501  TTP501     -0.4368
      8  O3B        1.8080   92.4230   28.1090 O.3   501  TTP501     -0.2258
      9  PG         1.1310   93.2710   26.8250 P.3   501  TTP501      0.5373
     10  O1G        2.2540   93.4900   25.7380 O.2   501  TTP501     -0.2221
     11  O2G        0.6590   94.6700   27.3930 O.3   501  TTP501     -0.1143
     12  O3G       -0.0810   92.5060   26.1800 O.3   501  TTP501     -0.1143
     13  O5'        1.7740   91.4530   32.5650 O.3   501  TTP501     -0.3112
     14  C5'        3.1600   90.9830   33.2430 C.3   501  TTP501      0.1812
     15  C4'        3.2190   89.5270   33.6940 C.3   501  TTP501      0.1773
     16  O4'        1.9490   89.0850   34.1760 O.3   501  TTP501     -0.3342
     17  C3'        3.5180   88.7100   32.4370 C.3   501  TTP501      0.1857
     18  O3'        4.6420   87.9220   32.8250 O.3   501  TTP501     -0.2203
     19  C2'        2.2970   87.8600   32.2090 C.3   501  TTP501      0.0871
     20  C1'        1.6360   87.8580   33.5530 C.3   501  TTP501      0.2052
     21  N1         0.1320   88.0320   33.0560 N.am  501  TTP501     -0.1977
     22  C2        -0.6370   86.8930   33.2660 C.1   501  TTP501      0.2807
     23  O2        -0.1220   85.7900   33.3610 O.2   501  TTP501     -0.1922
     24  N3        -1.9740   86.8930   33.3570 N.2   501  TTP501     -0.2457
     25  C4        -2.6560   88.0430   33.2350 C.1   501  TTP501      0.2138
     26  O4        -3.9690   87.9660   33.3510 O.2   501  TTP501     -0.2088
     27  C5        -1.9710   89.2590   33.0110 C.2   501  TTP501      0.0940
     28  C5M       -2.4500   90.0920   32.9200 C.2   501  TTP501      0.0105
     29  C6        -0.5740   89.1830   32.9320 C.3   501  TTP501      0.1450
@<TRIPOS>BOND
     1    10     9    2
     2    12     9    1
     3     9    11    1
     4     9     8    1
     5     8     5    1
     6     6     5    2
     7     7     5    1
     8     5     4    1
     9     4     1    1
    10     2     1    2
    11     3     1    1
    12     1    13    1
    13    19    17    1
    14    19    20    1
    15    17    18    1
    16    17    15    1
    17    13    14    1
    18    28    27    2
    19    29    27    1
    20    29    21    1
    21    27    25    1
    22    21    22   am
    23    21    20    1
    24    25    26    2
    25    25    24    2
    26    14    15    1
    27    22    24    2
    28    22    23    2
    29    20    16    1
    30    15    16    1
