@<TRIPOS>MOLECULE
1iin_UPG_A_1.pdb
 36 38 0 0 0
SMALL
GASTEIGER

@<TRIPOS>ATOM
      1  N1         2.2630   55.8950   60.2810 N.am  1501  UPG1501    -0.1766
      2  C2         2.5040   54.9710   61.3230 C.1   1501  UPG1501     0.2845
      3  N3         2.9970   55.5100   62.4970 N.2   1501  UPG1501    -0.2452
      4  C4         3.2770   56.8640   62.7450 C.1   1501  UPG1501     0.2182
      5  C5         3.0050   57.7370   61.6380 C.2   1501  UPG1501     0.1242
      6  C6         2.5280   57.2580   60.4830 C.2   1501  UPG1501     0.0929
      7  O2         2.2840   53.7840   61.1610 O.2   1501  UPG1501    -0.1918
      8  O4         3.7140   57.1740   63.8440 O.2   1501  UPG1501    -0.2085
      9  C1C        1.7490   55.3830   58.9800 C.3   1501  UPG1501     0.2401
     10  C2C        0.3840   55.9370   58.5810 C.3   1501  UPG1501     0.2319
     11  O2C       -0.7450   55.3400   59.2680 O.3   1501  UPG1501    -0.2157
     12  C3C        0.4080   55.7360   57.0460 C.3   1501  UPG1501     0.2158
     13  C4C        1.8650   56.1420   56.7400 C.3   1501  UPG1501     0.1799
     14  O4C        2.6240   55.7900   57.9420 O.3   1501  UPG1501    -0.3320
     15  O3C       -0.1040   54.4860   56.5580 O.3   1501  UPG1501    -0.2175
     16  C5C        2.1070   57.6290   56.5650 C.3   1501  UPG1501     0.1813
     17  O5C        0.8540   58.3220   56.4730 O.3   1501  UPG1501    -0.3112
     18  PA         0.6400   59.8430   56.8990 P.3   1501  UPG1501     0.2189
     19  O1A        0.9280   60.1650   58.3430 O.3   1501  UPG1501    -0.4371
     20  O2A       -0.7610   60.3120   56.7200 O.2   1501  UPG1501    -0.5170
     21  O3A        1.6410   60.6200   55.8410 O.3   1501  UPG1501    -0.2703
     22  PB         2.4450   61.9410   56.3360 P.3   1501  UPG1501     0.2208
     23  O1B        1.5190   63.1670   56.2430 O.2   1501  UPG1501    -0.5170
     24  O2B        3.0290   61.6650   57.6590 O.3   1501  UPG1501    -0.4371
     25  O3B        3.6430   62.0220   55.2520 O.3   1501  UPG1501    -0.2857
     26  C1'        4.7590   61.1400   55.2740 C.3   1501  UPG1501     0.2742
     27  C2'        6.0940   61.9340   55.2630 C.3   1501  UPG1501     0.2409
     28  C3'        6.2060   62.7280   53.9060 C.3   1501  UPG1501     0.2198
     29  C4'        6.1340   61.7430   52.7610 C.3   1501  UPG1501     0.2144
     30  C5'        4.8180   60.8710   52.7880 C.3   1501  UPG1501     0.1835
     31  C6'        4.7910   59.8440   51.6580 C.3   1501  UPG1501     0.2142
     32  O2'        6.1830   62.8720   56.3480 O.3   1501  UPG1501    -0.2149
     33  O3'        7.4440   63.4730   53.8390 O.3   1501  UPG1501    -0.2174
     34  O4'        6.1470   62.5120   51.5890 O.3   1501  UPG1501    -0.2176
     35  O5'        4.7070   60.1950   54.0650 O.3   1501  UPG1501    -0.3254
     36  O6'        3.6770   58.9420   51.7890 O.3   1501  UPG1501    -0.2176
@<TRIPOS>BOND
     1    34    29    1
     2    31    36    1
     3    31    30    1
     4    29    30    1
     5    29    28    1
     6    30    35    1
     7    33    28    1
     8    28    27    1
     9    35    26    1
    10    25    26    1
    11    25    22    1
    12    27    26    1
    13    27    32    1
    14    21    22    1
    15    21    18    1
    16    23    22    2
    17    22    24    1
    18    17    16    1
    19    17    18    1
    20    15    12    1
    21    16    13    1
    22    20    18    2
    23    13    12    1
    24    13    14    1
    25    18    19    1
    26    12    10    1
    27    14     9    1
    28    10     9    1
    29    10    11    1
    30     9     1    1
    31     1     6    1
    32     1     2   am
    33     6     5    2
    34     7     2    2
    35     2     3    2
    36     5     4    1
    37     3     4    2
    38     4     8    2
