@<TRIPOS>MOLECULE
1iiu_RTL_A_1.pdb
 21 21 0 0 0
SMALL
GASTEIGER

@<TRIPOS>ATOM
      1  C1         0.6330    4.8620   -7.8030 C.3   176  RTL176      0.0220
      2  C2         0.8280    6.3200   -8.2840 C.2   176  RTL176     -0.0310
      3  C3         0.0700    7.4600   -7.6000 C.2   176  RTL176     -0.0307
      4  C4        -0.8680    7.1450   -6.4110 C.3   176  RTL176      0.0260
      5  C5        -1.0560    5.6970   -5.8750 C.3   176  RTL176      0.0087
      6  C6        -0.2760    4.6100   -6.5760 C.3   176  RTL176      0.0257
      7  C7        -0.3930    3.1540   -6.1500 C.2   176  RTL176     -0.0304
      8  C8        -1.4410    2.4280   -5.6370 C.2   176  RTL176     -0.0267
      9  C9        -1.3730    1.0560   -5.3620 C.3   176  RTL176      0.0433
     10  C10       -2.6770    0.6430   -4.8720 C.2   176  RTL176     -0.0267
     11  C11       -3.0480   -0.6040   -4.5260 C.2   176  RTL176     -0.0300
     12  C12       -4.3200   -0.8550   -4.1030 C.3   176  RTL176      0.0301
     13  C13       -4.7930   -2.1540   -3.6640 C.3   176  RTL176      0.0297
     14  C14       -5.9650   -2.1980   -2.8150 C.2   176  RTL176      0.0192
     15  C15       -6.5920   -3.4910   -2.3100 C.2   176  RTL176      0.2297
     16  O1        -7.7300   -3.3660   -1.4860 O.2   176  RTL176     -0.2835
     17  C16        2.0500    4.1710   -7.6870 C.3   176  RTL176      0.0047
     18  C17       -0.0170    4.2090   -9.0500 C.3   176  RTL176      0.0047
     19  C18       -0.7360    5.8820   -4.3780 C.3   176  RTL176      0.0007
     20  C19       -0.1200    0.5280   -4.5780 C.3   176  RTL176      0.0094
     21  C20       -4.0770   -3.4840   -4.0710 C.3   176  RTL176      0.0051
@<TRIPOS>BOND
     1    18     1    1
     2     2     1    1
     3     2     3    2
     4     1    17    1
     5     1     6    1
     6     3     4    1
     7     6     7    1
     8     6     5    1
     9     4     5    1
    10     7     8    2
    11     5    19    1
    12     8     9    1
    13     9    10    1
    14     9    20    1
    15    10    11    2
    16    11    12    1
    17    12    13    1
    18    21    13    1
    19    13    14    1
    20    14    15    2
    21    15    16    1
