@<TRIPOS>MOLECULE
1iiy_MAN_A_1.pdb
 23 23 0 0 0
SMALL
GASTEIGER

@<TRIPOS>ATOM
      1  C1         0.8800   16.9690  250.8130 C.3   201  MAN201      0.1887
      2  C2        -0.0250   17.3930  249.6360 C.3   201  MAN201      0.1721
      3  C3        -0.5120   18.8540  249.8220 C.3   201  MAN201      0.1174
      4  C4        -1.1960   19.1000  251.1920 C.3   201  MAN201      0.1120
      5  C5        -0.2780   18.6410  252.3480 C.3   201  MAN201      0.1130
      6  C6        -0.9790   18.5910  253.7040 C.3   201  MAN201      0.0730
      7  O1         2.1550   17.6010  250.7080 O.3   201  MAN201     -0.3648
      8  O2        -1.1850   16.5220  249.5530 O.3   201  MAN201     -0.2231
      9  O3        -1.4360   19.1720  248.7640 O.3   201  MAN201     -0.3863
     10  O4        -1.4860   20.5000  251.3430 O.3   201  MAN201     -0.3865
     11  O5         0.2410   17.3100  252.0740 O.3   201  MAN201     -0.3406
     12  O6        -1.7240   19.7840  253.9460 O.3   201  MAN201     -0.3924
     13  H1         1.0330   15.9010  250.7920 H     201  MAN201      0.0937
     14  H2         0.5380   17.3330  248.7100 H     201  MAN201      0.0706
     15  H3         0.3390   19.5170  249.7310 H     201  MAN201      0.0649
     16  H4        -2.1300   18.5510  251.2260 H     201  MAN201      0.0647
     17  H5         0.5650   19.3120  252.4150 H     201  MAN201      0.0647
     18  H61       -0.2350   18.4570  254.4750 H     201  MAN201      0.0584
     19  H62       -1.6360   17.7340  253.7240 H     201  MAN201      0.0584
     20  HO1        2.8180   17.1970  251.4580 H     201  MAN201      0.2126
     21  HO3       -1.5020   20.1270  248.6560 H     201  MAN201      0.2100
     22  HO4       -2.2630   20.7350  250.8240 H     201  MAN201      0.2100
     23  HO6       -2.1610   19.7190  254.7980 H     201  MAN201      0.2095
@<TRIPOS>BOND
     1    21     9    1
     2    14     2    1
     3     9     3    1
     4     8     2    1
     5     2     3    1
     6     2     1    1
     7    15     3    1
     8     3     4    1
     9     7     1    1
    10     7    20    1
    11    13     1    1
    12     1    11    1
    13    22    10    1
    14     4    16    1
    15     4    10    1
    16     4     5    1
    17    11     5    1
    18     5    17    1
    19     5     6    1
    20     6    19    1
    21     6    12    1
    22     6    18    1
    23    12    23    1
