@<TRIPOS>MOLECULE
1ij8_BNI_A_1.pdb
 25 27 0 0 0
SMALL
GASTEIGER

@<TRIPOS>ATOM
      1  C1        -4.4780   31.3830   28.4560 C.2   501  BNI501      0.2456
      2  C10       -4.9810   29.9830   27.9170 C.3   501  BNI501      0.0872
      3  C9        -3.6320   29.2970   27.6380 C.3   501  BNI501      0.0097
      4  C8        -3.2690   28.5600   26.3840 C.3   501  BNI501      0.0014
      5  C7        -2.5280   29.7180   25.7160 C.3   501  BNI501      0.0129
      6  C2        -1.8260   29.7780   24.3350 C.3   501  BNI501      0.0729
      7  C6        -1.2700   29.8240   21.7780 C.3   501  BNI501      0.0848
      8  C4        -0.6820   28.7220   23.9870 C.3   501  BNI501      0.1500
      9  C5        -0.1970   28.9730   22.5670 C.3   501  BNI501      0.1509
     10  C3        -0.4270   26.7150   22.8850 C.1   501  BNI501      0.2386
     11  O2        -5.3180   32.1920   28.7780 O.2   501  BNI501     -0.2730
     12  O3        -0.4060   25.5210   22.6290 O.2   501  BNI501     -0.2023
     13  N1        -0.0730   27.6560   21.9860 N.2   501  BNI501     -0.1859
     14  N2        -0.8030   27.2640   24.0870 N.2   501  BNI501     -0.1860
     15  S1        -2.8190   29.6480   22.8600 S.3   501  BNI501     -0.1369
     16  N17       -3.1260   31.5850   28.5150 N.am  501  BNI501     -0.1792
     17  C18       -2.3310   32.3620   29.3510 C.ar  501  BNI501      0.0735
     18  C20       -2.5310   33.7680   29.6000 C.ar  501  BNI501      0.0183
     19  C21       -1.6220   34.4710   30.4980 C.ar  501  BNI501      0.0254
     20  C22       -0.5110   33.7560   31.1440 C.ar  501  BNI501      0.1430
     21  C23       -0.3300   32.3570   30.8810 C.ar  501  BNI501      0.0254
     22  C24       -1.2260   31.6760   30.0010 C.ar  501  BNI501      0.0183
     23  N25        0.4650   34.4680   32.0960 N.pl3 501  BNI501      0.0577
     24  O26        0.3630   35.6400   32.3550 O.2   501  BNI501     -0.1261
     25  O27        1.3690   33.8710   32.6160 O.2   501  BNI501     -0.1261
@<TRIPOS>BOND
     1     7     9    1
     2     7    15    1
     3    13     9    1
     4    13    10    2
     5     9     8    1
     6    12    10    2
     7    15     6    1
     8    10    14    2
     9     8    14    1
    10     8     6    1
    11     6     5    1
    12     5     4    1
    13     4     3    1
    14     3     2    1
    15     2     1    1
    16     1    16   am
    17     1    11    2
    18    16    17    1
    19    17    18   ar
    20    17    22   ar
    21    18    19   ar
    22    22    21   ar
    23    19    20   ar
    24    21    20   ar
    25    20    23    1
    26    23    24    2
    27    23    25    2
