@<TRIPOS>MOLECULE
1ije_GDP_A_1.pdb
 24 26 0 0 0
SMALL
GASTEIGER

@<TRIPOS>ATOM
      1  O3A       37.0360   39.3350   36.4840 O.3   507  GDP507     -0.1145
      2  PA        36.0790   40.5080   36.5930 P.3   507  GDP507      0.5327
      3  O1A       34.6060   40.0750   36.8940 O.3   507  GDP507     -0.1145
      4  O2A       36.2360   41.5570   35.5660 O.2   507  GDP507     -0.2224
      5  O5'       36.4960   41.3550   37.9310 O.3   507  GDP507     -0.2675
      6  C5'       37.7810   42.0280   38.0060 C.3   507  GDP507      0.1859
      7  C4'       38.1910   42.8310   39.2380 C.3   507  GDP507      0.1801
      8  O4'       37.7520   42.1270   40.4900 O.3   507  GDP507     -0.3326
      9  C3'       39.6890   43.0200   39.4480 C.3   507  GDP507      0.2158
     10  O3'       40.0480   44.1660   40.2190 O.3   507  GDP507     -0.2175
     11  C2'       40.0920   41.7230   40.1280 C.3   507  GDP507      0.2310
     12  O2'       41.3720   41.8040   40.7730 O.3   507  GDP507     -0.2158
     13  C1'       38.9280   41.5110   41.0870 C.3   507  GDP507      0.2293
     14  N9        38.6310   40.1210   41.5670 N.pl3 507  GDP507     -0.2354
     15  C8        38.0610   39.0260   40.9600 C.3   507  GDP507      0.2246
     16  N7        37.9700   37.9500   41.7240 N.2   507  GDP507     -0.2322
     17  C5        38.5400   38.3990   42.9490 C.2   507  GDP507      0.2182
     18  C6        38.7330   37.6870   44.1880 C.1   507  GDP507      0.2372
     19  O6        38.4520   36.5290   44.4530 O.2   507  GDP507     -0.2069
     20  N1        39.3430   38.5110   45.1770 N.2   507  GDP507     -0.2485
     21  C2        39.7020   39.8380   44.9720 C.1   507  GDP507      0.2531
     22  N2        40.2630   40.4400   46.0420 N.pl3 507  GDP507     -0.0226
     23  N3        39.5230   40.4970   43.8220 N.2   507  GDP507     -0.3074
     24  C4        38.9340   39.7150   42.8560 C.2   507  GDP507      0.2300
@<TRIPOS>BOND
     1     4     2    2
     2     1     2    1
     3     2     3    1
     4     2     5    1
     5     5     6    1
     6     6     7    1
     7     7     9    1
     8     7     8    1
     9     9    11    1
    10     9    10    1
    11    11    12    1
    12    11    13    1
    13     8    13    1
    14    15    14    1
    15    15    16    1
    16    13    14    1
    17    14    24    1
    18    16    17    2
    19    24    17    1
    20    24    23    2
    21    17    18    1
    22    23    21    2
    23    18    19    2
    24    18    20    2
    25    21    20    2
    26    21    22    1
