@<TRIPOS>MOLECULE
1ijf_GDP_A_1.pdb
 24 26 0 0 0
SMALL
GASTEIGER

@<TRIPOS>ATOM
      1  O3A       36.4520   40.4630   37.2320 O.3   507  GDP507     -0.1145
      2  PA        36.1170   41.9310   37.2990 P.3   507  GDP507      0.5327
      3  O1A       34.5900   42.2060   37.3400 O.3   507  GDP507     -0.1145
      4  O2A       36.8810   42.8030   36.3990 O.2   507  GDP507     -0.2224
      5  O5'       36.6520   42.5180   38.8030 O.3   507  GDP507     -0.2675
      6  C5'       38.0340   43.0250   38.9540 C.3   507  GDP507      0.1859
      7  C4'       38.7160   43.6030   40.2370 C.3   507  GDP507      0.1801
      8  O4'       38.4970   42.7530   41.4570 O.3   507  GDP507     -0.3326
      9  C3'       40.2420   43.6560   40.1660 C.3   507  GDP507      0.2158
     10  O3'       40.8820   44.5770   41.0410 O.3   507  GDP507     -0.2175
     11  C2'       40.6160   42.2360   40.4990 C.3   507  GDP507      0.2310
     12  O2'       42.0100   42.0690   40.7250 O.3   507  GDP507     -0.2158
     13  C1'       39.7140   41.9650   41.7210 C.3   507  GDP507      0.2293
     14  N9        39.3610   40.5780   42.2050 N.pl3 507  GDP507     -0.2354
     15  C8        38.8300   39.5270   41.5570 C.3   507  GDP507      0.2246
     16  N7        38.6500   38.4560   42.3040 N.2   507  GDP507     -0.2322
     17  C5        39.1220   38.8760   43.5630 C.2   507  GDP507      0.2182
     18  C6        39.1970   38.1610   44.8030 C.1   507  GDP507      0.2372
     19  O6        38.8860   37.0310   45.0560 O.2   507  GDP507     -0.2069
     20  N1        39.7410   38.9730   45.8460 N.2   507  GDP507     -0.2485
     21  C2        40.1480   40.2910   45.6940 C.1   507  GDP507      0.2531
     22  N2        40.6220   40.8440   46.8040 N.pl3 507  GDP507     -0.0226
     23  N3        40.0860   40.9540   44.5490 N.2   507  GDP507     -0.3074
     24  C4        39.5530   40.1750   43.5240 C.2   507  GDP507      0.2300
@<TRIPOS>BOND
     1     4     2    2
     2     1     2    1
     3     2     3    1
     4     2     5    1
     5     5     6    1
     6     6     7    1
     7     9     7    1
     8     9    11    1
     9     9    10    1
    10     7     8    1
    11    11    12    1
    12    11    13    1
    13     8    13    1
    14    15    14    1
    15    15    16    1
    16    13    14    1
    17    14    24    1
    18    16    17    2
    19    24    17    1
    20    24    23    2
    21    17    18    1
    22    23    21    2
    23    18    19    2
    24    18    20    2
    25    21    20    2
    26    21    22    1
