@<TRIPOS>MOLECULE
1iji_PLP_A_1.pdb
 15 15 0 0 0
SMALL
GASTEIGER

@<TRIPOS>ATOM
      1  N1        50.5780   49.2100   -2.2560 N.ar  500  PLP500     -0.2452
      2  C2        49.7330   49.3310   -3.2800 C.ar  500  PLP500      0.0978
      3  C2A       48.7070   48.2850   -3.3960 C.3   500  PLP500      0.0555
      4  C3        49.9140   50.4840   -4.1270 C.ar  500  PLP500      0.2049
      5  O3        49.1070   50.6420   -5.1430 O.3   500  PLP500     -0.2857
      6  C4        50.9730   51.4120   -3.8410 C.ar  500  PLP500      0.0182
      7  C4A       51.1270   52.5390   -4.7000 C.3   500  PLP500      0.0342
      8  C5        51.7820   51.1690   -2.7430 C.ar  500  PLP500      0.0261
      9  C6        51.5820   50.0570   -1.9490 C.ar  500  PLP500      0.0965
     10  C5A       52.9170   52.0630   -2.2960 C.3   500  PLP500      0.1815
     11  O4P       54.2640   51.7210   -2.3330 O.3   500  PLP500     -0.2653
     12  P         55.4320   52.6550   -1.9080 P.3   500  PLP500      0.5329
     13  O1P       56.6780   51.8140   -1.9760 O.3   500  PLP500     -0.1145
     14  O2P       55.5760   53.8050   -2.9460 O.2   500  PLP500     -0.2224
     15  O3P       55.2550   53.1090   -0.4140 O.3   500  PLP500     -0.1145
@<TRIPOS>BOND
     1     5     4    1
     2     7     6    1
     3     4     6   ar
     4     4     2   ar
     5     6     8   ar
     6     3     2    1
     7     2     1   ar
     8    14    12    2
     9     8    10    1
    10     8     9   ar
    11    11    10    1
    12    11    12    1
    13     1     9   ar
    14    13    12    1
    15    12    15    1
