@<TRIPOS>MOLECULE
1ijj_LAR_A_1.pdb
 29 31 0 0 0
SMALL
GASTEIGER

@<TRIPOS>ATOM
      1  S1         8.2820   36.5010   41.7080 S.3   901  LAR901     -0.0192
      2  N1         7.7940   35.8400   44.0440 N.2   901  LAR901     -0.1932
      3  O1         8.5460   39.3500   47.5900 O.2   901  LAR901     -0.2449
      4  O2        10.6700   38.3910   47.1900 O.3   901  LAR901     -0.4490
      5  O3        11.2510   35.5210   44.9530 O.3   901  LAR901     -0.3329
      6  O4        10.2090   37.4590   44.1910 O.3   901  LAR901     -0.1930
      7  O5         6.1220   37.0040   43.0470 O.2   901  LAR901     -0.2155
      8  C1         9.7770   39.4550   47.3480 C.2   901  LAR901      0.3407
      9  C2        10.4980   40.7460   47.2250 C.2   901  LAR901      0.0734
     10  C3        11.7190   41.0930   46.7620 C.2   901  LAR901     -0.0372
     11  C4        12.7310   40.1180   46.1900 C.3   901  LAR901      0.0269
     12  C5        14.1080   40.3700   46.7520 C.3   901  LAR901      0.0304
     13  C6        15.1570   39.4200   46.2690 C.2   901  LAR901     -0.0258
     14  C7        15.0640   38.3890   45.4430 C.2   901  LAR901     -0.0049
     15  C8        16.1640   37.5710   45.0680 C.2   901  LAR901     -0.0049
     16  C9        16.0140   36.4880   44.2370 C.2   901  LAR901     -0.0265
     17  C10       14.7020   35.9980   43.6210 C.3   901  LAR901      0.0221
     18  C11       13.9570   34.9570   44.4590 C.3   901  LAR901      0.0068
     19  C12       13.5030   35.3810   45.8540 C.3   901  LAR901      0.0301
     20  C13       12.2210   36.1850   45.8830 C.3   901  LAR901      0.1214
     21  C14       11.6400   36.2310   47.2940 C.3   901  LAR901      0.0734
     22  C15       10.2970   36.9660   47.2960 C.3   901  LAR901      0.1766
     23  C16        9.3370   36.5040   46.1830 C.3   901  LAR901      0.1048
     24  C17       10.0060   36.1880   44.8310 C.3   901  LAR901      0.2448
     25  C18        9.1870   35.3120   43.9010 C.3   901  LAR901      0.1810
     26  C19        9.5660   35.4610   42.4840 C.3   901  LAR901      0.1042
     27  C20        7.2000   36.4760   43.0910 C.1   901  LAR901      0.1790
     28  C21       12.0790   42.5970   46.8340 C.3   901  LAR901      0.0266
     29  C22       15.0570   35.4180   42.1810 C.3   901  LAR901      0.0047
@<TRIPOS>BOND
     1     1    26    1
     2     1    27    1
     3    29    17    1
     4    26    25    1
     5     7    27    2
     6    27     2    2
     7    17    16    1
     8    17    18    1
     9    25     2    1
    10    25    24    1
    11     6    24    1
    12    16    15    2
    13    18    19    1
    14    24     5    1
    15    24    23    1
    16     5    20    1
    17    15    14    1
    18    14    13    2
    19    19    20    1
    20    20    21    1
    21    23    22    1
    22    11    12    1
    23    11    10    1
    24    13    12    1
    25    10    28    1
    26    10     9    2
    27     4    22    1
    28     4     8    1
    29     9     8    1
    30    21    22    1
    31     8     3    2
