@<TRIPOS>MOLECULE
1ijj_ATP_A_1.pdb
 31 33 0 0 0
SMALL
GASTEIGER

@<TRIPOS>ATOM
      1  PG         4.1970   32.2900   52.5610 P.3   380  ATP380      0.5373
      2  O1G        4.7540   30.9450   52.8610 O.3   380  ATP380     -0.1143
      3  O2G        3.2330   32.2780   51.4510 O.2   380  ATP380     -0.2221
      4  O3G        3.5350   32.9140   53.8010 O.3   380  ATP380     -0.1143
      5  PB         5.9640   34.5890   52.6400 P.3   380  ATP380      0.2277
      6  O1B        7.3880   34.7170   52.2940 O.2   380  ATP380     -0.5168
      7  O2B        5.6740   34.7160   54.1060 O.3   380  ATP380     -0.4368
      8  O3B        5.4310   33.2140   52.0900 O.3   380  ATP380     -0.2258
      9  PA         4.8630   37.2190   52.3920 P.3   380  ATP380      0.2189
     10  O1A        3.7550   37.2790   53.4040 O.3   380  ATP380     -0.4371
     11  O2A        6.1580   37.7540   52.9340 O.2   380  ATP380     -0.5170
     12  O3A        5.1210   35.7190   51.9040 O.3   380  ATP380     -0.2700
     13  O5'        4.4200   37.9830   51.0780 O.3   380  ATP380     -0.3112
     14  C5'        5.3880   38.2820   49.9880 C.3   380  ATP380      0.1813
     15  C4'        4.5100   38.2480   48.6330 C.3   380  ATP380      0.1821
     16  O4'        3.5650   39.3890   48.7440 O.3   380  ATP380     -0.3135
     17  C3'        5.2410   38.4820   47.3080 C.3   380  ATP380      0.2184
     18  O3'        4.5610   37.5890   46.4090 O.3   380  ATP380     -0.2174
     19  C2'        5.0330   39.9040   46.9940 C.3   380  ATP380      0.2570
     20  O2'        5.0260   40.2370   45.5260 O.3   380  ATP380     -0.2130
     21  C1'        3.6820   40.1970   47.5740 C.3   380  ATP380      0.3186
     22  N9         3.4850   41.6270   47.8500 N.pl3 380  ATP380     -0.1439
     23  C8         4.1900   42.5260   48.5900 C.3   380  ATP380      0.3377
     24  N7         3.6560   43.7400   48.5710 N.2   380  ATP380     -0.2095
     25  C5         2.5100   43.6490   47.7550 C.2   380  ATP380      0.2526
     26  C6         1.4810   44.5740   47.3280 C.2   380  ATP380      0.4393
     27  N6         1.4150   45.8560   47.6510 N.pl3 380  ATP380      0.2180
     28  N1         0.5030   44.1000   46.5210 N.2   380  ATP380      0.0021
     29  C2         0.5250   42.7690   46.1550 C.3   380  ATP380      0.5254
     30  N3         1.4180   41.8120   46.4900 N.2   380  ATP380     -0.0055
     31  C4         2.3800   42.3380   47.3010 C.2   380  ATP380      0.3518
@<TRIPOS>BOND
     1    20    19    1
     2    29    30    1
     3    29    28    1
     4    18    17    1
     5    30    31    2
     6    28    26    2
     7    19    17    1
     8    19    21    1
     9    31    25    1
    10    31    22    1
    11    17    15    1
    12    26    27    1
    13    26    25    1
    14    21    22    1
    15    21    16    1
    16    25    24    2
    17    22    23    1
    18    24    23    1
    19    15    16    1
    20    15    14    1
    21    14    13    1
    22    13     9    1
    23     3     1    2
    24    12     9    1
    25    12     5    1
    26     8     1    1
    27     8     5    1
    28     6     5    2
    29     9    11    2
    30     9    10    1
    31     1     2    1
    32     1     4    1
    33     5     7    1
