@<TRIPOS>MOLECULE
1ijr_CC0_A_1.pdb
 43 45 0 0 0
SMALL
GASTEIGER

@<TRIPOS>ATOM
      1  P1        69.0730   26.5080   34.2270 P.3   150  CC0150      0.1424
      2  OR1       68.7380   27.4620   35.3400 O.3   150  CC0150     -0.3541
      3  OR2       69.8460   27.2460   33.1800 O.2   150  CC0150     -0.4556
      4  O10       69.8900   25.3630   34.7600 O.3   150  CC0150     -0.3541
      5  C1        59.6350   27.6920   33.5900 C.3   150  CC0150      0.1176
      6  N1        60.9750   27.6510   33.0400 N.am  150  CC0150     -0.2012
      7  C0        63.3860   27.4740   33.2620 C.3   150  CC0150      0.1770
      8  C3        62.0580   27.9400   33.7790 C.2   150  CC0150      0.2618
      9  O2        62.0300   28.5790   34.8280 O.2   150  CC0150     -0.2715
     10  N2        64.3720   28.5450   33.3860 N.am  150  CC0150     -0.1974
     11  C4        63.7640   26.2010   34.0420 C.3   150  CC0150      0.0574
     12  C5        65.1140   25.7390   33.4800 C.ar  150  CC0150     -0.0196
     13  C6        66.3100   26.2430   34.0160 C.ar  150  CC0150      0.0016
     14  C7        65.1570   24.8140   32.4250 C.ar  150  CC0150     -0.0011
     15  C8        67.5610   25.8410   33.5080 C.ar  150  CC0150      0.0625
     16  C9        66.3980   24.4060   31.9130 C.ar  150  CC0150      0.0367
     17  C10       67.6000   24.9100   32.4390 C.ar  150  CC0150      0.1419
     18  O3        68.8590   24.5050   31.9220 O.3   150  CC0150     -0.4636
     19  C11       58.5880   27.7530   32.4190 C.3   150  CC0150      0.0283
     20  C12       64.7360   29.2730   32.3040 C.2   150  CC0150      0.2423
     21  C13       65.7590   30.3510   32.4900 C.3   150  CC0150      0.0964
     22  O4        64.2780   29.0970   31.1900 O.2   150  CC0150     -0.2733
     23  O5        57.8780   23.7910   37.4620 O.3   150  CC0150     -0.4753
     24  C14       59.3150   26.4940   34.5070 C.ar  150  CC0150     -0.0022
     25  C15       59.9890   25.2960   34.7590 C.ar  150  CC0150      0.0051
     26  C16       59.5490   24.4050   35.7560 C.ar  150  CC0150      0.0903
     27  C17       58.3900   24.7090   36.5180 C.ar  150  CC0150      0.1429
     28  C18       57.7910   25.9790   36.3170 C.ar  150  CC0150      0.0368
     29  C19       58.1620   26.7780   35.2500 C.ar  150  CC0150      0.0005
     30  C20       56.5890   24.0310   38.0720 C.3   150  CC0150      0.2053
     31  C21       55.5950   22.9110   37.7080 C.3   150  CC0150      0.0438
     32  C22       54.1410   23.4810   37.8030 C.3   150  CC0150      0.0037
     33  C23       53.1280   22.3830   37.4490 C.3   150  CC0150      0.0001
     34  C24       53.4250   21.8200   36.0260 C.3   150  CC0150      0.0000
     35  C25       54.8760   21.2970   35.8900 C.3   150  CC0150      0.0001
     36  C26       55.8650   22.4220   36.2520 C.3   150  CC0150      0.0037
     37  C27       60.3970   23.1620   36.0040 C.2   150  CC0150      0.2871
     38  N3        59.9180   22.0260   36.5690 N.am  150  CC0150     -0.0836
     39  O6        61.5730   23.1920   35.6510 O.2   150  CC0150     -0.2666
     40  C28       68.7890   23.3300   31.0960 C.3   150  CC0150      0.3186
     41  C29       68.8420   23.7080   29.6400 C.2   150  CC0150      0.4084
     42  O7        69.4850   22.8610   28.8250 O.co2 150  CC0150     -0.2415
     43  O8        68.3060   24.7440   29.2510 O.co2 150  CC0150     -0.2415
@<TRIPOS>BOND
     1    42    41   ar
     2    43    41   ar
     3    41    40    1
     4    40    18    1
     5    22    20    2
     6    16    14   ar
     7    16    17   ar
     8    18    17    1
     9    20    21    1
    10    20    10   am
    11    19     5    1
    12    14    12   ar
    13    17    15   ar
    14     6     5    1
    15     6     8   am
    16     3     1    2
    17     7    10    1
    18     7     8    1
    19     7    11    1
    20    12    13   ar
    21    12    11    1
    22    15    13   ar
    23    15     1    1
    24     5    24    1
    25     8     9    2
    26     1     4    1
    27     1     2    1
    28    24    25   ar
    29    24    29   ar
    30    25    26   ar
    31    29    28   ar
    32    39    37    2
    33    26    37    1
    34    26    27   ar
    35    35    34    1
    36    35    36    1
    37    37    38   am
    38    34    33    1
    39    36    31    1
    40    28    27   ar
    41    27    23    1
    42    33    32    1
    43    23    30    1
    44    31    32    1
    45    31    30    1
