@<TRIPOS>MOLECULE
1ik3_13R_A_1.pdb
 22 21 0 0 0
SMALL
GASTEIGER

@<TRIPOS>ATOM
      1  C1        19.7410   -5.5310   22.7470 C.2   1860  13R1860     0.3649
      2  C2        19.6490   -3.9950   22.8560 C.3   1860  13R1860     0.1141
      3  C3        19.8380   -3.3360   21.4740 C.3   1860  13R1860     0.0118
      4  C4        20.2170   -1.8480   21.5340 C.3   1860  13R1860     0.0006
      5  C5        19.0060   -0.9430   21.2380 C.3   1860  13R1860     0.0000
      6  C6        19.4350    0.4500   20.7880 C.3   1860  13R1860     0.0003
      7  C7        19.7910    1.3890   21.9540 C.3   1860  13R1860     0.0047
      8  C8        21.0530    2.1930   21.6100 C.3   1860  13R1860     0.0260
      9  C9        21.0320    3.6740   22.0160 C.2   1860  13R1860    -0.0261
     10  C10       20.9940    4.6850   21.0760 C.2   1860  13R1860    -0.0048
     11  C11       20.9640    4.4130   19.7520 C.2   1860  13R1860    -0.0024
     12  C12       20.9360    5.3910   18.8350 C.2   1860  13R1860     0.0062
     13  C13       20.8910    5.0300   17.3600 C.3   1860  13R1860     0.1771
     14  C14       20.2190    6.1580   16.5630 C.3   1860  13R1860     0.0376
     15  C15       19.0730    5.5960   15.7010 C.3   1860  13R1860     0.0030
     16  C16       19.3970    5.8130   14.2150 C.3   1860  13R1860     0.0001
     17  C17       18.2600    5.4350   13.2640 C.3   1860  13R1860     0.0000
     18  C18       18.0410    6.5890   12.2710 C.3   1860  13R1860     0.0000
     19  O19       18.7120   -6.2070   22.5400 O.co2 1860  13R1860    -0.2457
     20  O20       20.8200   -6.1030   22.8690 O.co2 1860  13R1860    -0.2457
     21  O21       22.2350    4.8020   16.8750 O.3   1860  13R1860    -0.1872
     22  O22       22.4260    4.3060   15.7780 O.3   1860  13R1860    -0.0344
@<TRIPOS>BOND
     1    18    17    1
     2    17    16    1
     3    16    15    1
     4    15    14    1
     5    22    21    1
     6    14    13    1
     7    21    13    1
     8    13    12    1
     9    12    11    2
    10    11    10    1
    11     6     5    1
    12     6     7    1
    13    10     9    2
    14     5     4    1
    15     3     4    1
    16     3     2    1
    17     8     7    1
    18     8     9    1
    19    19     1   ar
    20     1     2    1
    21     1    20   ar
