@<TRIPOS>MOLECULE
1ik3_9OH_A_1.pdb
 22 22 0 0 0
SMALL
GASTEIGER

@<TRIPOS>ATOM
      1  C1        20.1310   -5.5210   22.6180 C.2   1861  9OH1861     0.3649
      2  C2        19.3570   -4.2300   22.8560 C.3   1861  9OH1861     0.1141
      3  C3        20.1460   -2.9510   22.5040 C.3   1861  9OH1861     0.0118
      4  C4        19.3930   -2.0670   21.4930 C.3   1861  9OH1861     0.0006
      5  C5        19.3540   -0.5900   21.9290 C.3   1861  9OH1861     0.0000
      6  C6        20.7140    0.1090   21.7430 C.3   1861  9OH1861     0.0001
      7  C7        20.6920    1.5640   22.2460 C.3   1861  9OH1861     0.0030
      8  C8        20.7370    2.5860   21.0860 C.3   1861  9OH1861     0.0375
      9  C9        21.7710    3.7330   21.2410 C.3   1861  9OH1861     0.1738
     10  C10       22.1030    4.3070   19.8680 C.2   1861  9OH1861     0.0040
     11  C11       21.2190    4.8980   19.0540 C.2   1861  9OH1861     0.0032
     12  C12       21.5950    5.4520   17.7040 C.3   1861  9OH1861     0.1639
     13  C13       20.9640    4.8410   16.4880 C.3   1861  9OH1861     0.1468
     14  C14       20.1330    5.7540   15.5730 C.3   1861  9OH1861     0.0324
     15  C15       18.7230    5.1870   15.3160 C.3   1861  9OH1861     0.0026
     16  C16       17.8780    6.1190   14.4280 C.3   1861  9OH1861     0.0001
     17  C17       17.4110    5.4250   13.1360 C.3   1861  9OH1861     0.0000
     18  C18       16.9690    6.4370   12.0710 C.3   1861  9OH1861     0.0000
     19  O19       21.1780   -5.8100   23.1850 O.co2 1861  9OH1861    -0.2457
     20  O20       19.5270   -6.3290   21.7060 O.co2 1861  9OH1861    -0.2457
     21  O21       20.9910    4.6740   22.0290 O.3   1861  9OH1861    -0.2183
     22  O22       22.4170    4.8250   16.6240 O.3   1861  9OH1861    -0.3490
@<TRIPOS>BOND
     1    18    17    1
     2    17    16    1
     3    16    15    1
     4    15    14    1
     5    14    13    1
     6    13    22    1
     7    13    12    1
     8    22    12    1
     9    12    11    1
    10    11    10    2
    11    10     9    1
    12     8     9    1
    13     8     7    1
    14     9    21    1
    15     4     5    1
    16     4     3    1
    17    20     1   ar
    18     6     5    1
    19     6     7    1
    20     3     2    1
    21     1     2    1
    22     1    19   ar
