@<TRIPOS>MOLECULE
1ik3_13S_A_1.pdb
 22 21 0 0 0
SMALL
GASTEIGER

@<TRIPOS>ATOM
      1  C1        19.6670   -5.6850   22.5790 C.2   1859  13S1859     0.3649
      2  C2        19.8750   -4.4610   21.6830 C.3   1859  13S1859     0.1141
      3  C3        19.8580   -3.1290   22.4320 C.3   1859  13S1859     0.0118
      4  C4        19.1350   -2.0910   21.5530 C.3   1859  13S1859     0.0006
      5  C5        19.9480   -0.8140   21.2720 C.3   1859  13S1859     0.0000
      6  C6        19.1480    0.4480   21.6590 C.3   1859  13S1859     0.0003
      7  C7        19.6110    1.7400   20.9550 C.3   1859  13S1859     0.0047
      8  C8        20.9930    2.2550   21.4310 C.3   1859  13S1859     0.0260
      9  C9        21.0290    3.7180   21.9040 C.2   1859  13S1859    -0.0261
     10  C10       21.0880    4.8110   21.0200 C.2   1859  13S1859    -0.0048
     11  C11       21.1050    4.6540   19.6530 C.2   1859  13S1859    -0.0024
     12  C12       21.1650    5.7220   18.8010 C.2   1859  13S1859     0.0062
     13  C13       21.1710    5.5010   17.2860 C.3   1859  13S1859     0.1771
     14  C14       19.8060    4.9090   16.7910 C.3   1859  13S1859     0.0376
     15  C15       19.1450    5.8910   15.7860 C.3   1859  13S1859     0.0030
     16  C16       19.1080    5.3490   14.3350 C.3   1859  13S1859     0.0001
     17  C17       18.6430    6.4220   13.3110 C.3   1859  13S1859     0.0000
     18  C18       17.8020    5.7730   12.1880 C.3   1859  13S1859     0.0000
     19  O19       18.5220   -6.1620   22.7290 O.co2 1859  13S1859    -0.2457
     20  O20       20.6470   -6.2350   23.0860 O.co2 1859  13S1859    -0.2457
     21  O21       22.2460    4.5900   16.9570 O.3   1859  13S1859    -0.1872
     22  O22       22.2570    3.9560   15.9160 O.3   1859  13S1859    -0.0344
@<TRIPOS>BOND
     1    18    17    1
     2    17    16    1
     3    16    15    1
     4    15    14    1
     5    22    21    1
     6    14    13    1
     7    21    13    1
     8    13    12    1
     9    12    11    2
    10    11    10    1
    11     7     8    1
    12     7     6    1
    13    10     9    2
    14     5     4    1
    15     5     6    1
    16     8     9    1
    17     4     3    1
    18     2     3    1
    19     2     1    1
    20     1    19   ar
    21     1    20   ar
