@<TRIPOS>MOLECULE
1ik3_11O_A_1.pdb
 22 22 0 0 0
SMALL
GASTEIGER

@<TRIPOS>ATOM
      1  C1        19.2450   -6.6380   22.3950 C.2   1862  11O1862     0.3649
      2  C2        19.4980   -5.3130   23.1110 C.3   1862  11O1862     0.1141
      3  C3        20.1850   -4.2460   22.2310 C.3   1862  11O1862     0.0118
      4  C4        19.3080   -2.9940   22.0500 C.3   1862  11O1862     0.0006
      5  C5        20.1260   -1.6930   22.1570 C.3   1862  11O1862     0.0000
      6  C6        19.5010   -0.5440   21.3430 C.3   1862  11O1862     0.0003
      7  C7        19.7710    0.8320   21.9790 C.3   1862  11O1862     0.0047
      8  C8        20.0610    1.9190   20.9250 C.3   1862  11O1862     0.0258
      9  C9        20.4870    3.2330   21.5520 C.2   1862  11O1862    -0.0281
     10  C10       21.1100    4.2430   20.9290 C.2   1862  11O1862     0.0041
     11  C11       21.7140    4.2550   19.5360 C.3   1862  11O1862     0.2030
     12  C12       21.0730    5.3870   18.7060 C.3   1862  11O1862     0.1765
     13  C13       20.9600    5.0840   17.2410 C.3   1862  11O1862     0.1452
     14  C14       20.0430    5.9410   16.3530 C.3   1862  11O1862     0.0322
     15  C15       19.5540    5.1770   15.1090 C.3   1862  11O1862     0.0026
     16  C16       18.9660    6.1190   14.0420 C.3   1862  11O1862     0.0001
     17  C17       18.0520    5.3760   13.0520 C.3   1862  11O1862     0.0000
     18  C18       17.3920    6.3370   12.0530 C.3   1862  11O1862     0.0000
     19  O19       19.7130   -7.7110   22.7550 O.co2 1862  11O1862    -0.2457
     20  O20       18.4360   -6.4970   21.3140 O.co2 1862  11O1862    -0.2457
     21  O21       23.1310    4.4910   19.6600 O.3   1862  11O1862    -0.2156
     22  O22       22.0800    5.8390   17.7580 O.3   1862  11O1862    -0.3507
@<TRIPOS>BOND
     1    18    17    1
     2    17    16    1
     3    16    15    1
     4    15    14    1
     5    14    13    1
     6    13    22    1
     7    13    12    1
     8    22    12    1
     9    12    11    1
    10    11    21    1
    11    11    10    1
    12     8     9    1
    13     8     7    1
    14    10     9    2
    15    20     1   ar
    16     6     7    1
    17     6     5    1
    18     4     5    1
    19     4     3    1
    20     3     2    1
    21     1    19   ar
    22     1     2    1
