@<TRIPOS>MOLECULE
1ik4_PGH_A_1.pdb
 10 9 0 0 0
SMALL
GASTEIGER

@<TRIPOS>ATOM
      1  C1        86.1180  -15.6070   65.3720 C.2   153  PGH153      0.1177
      2  C2        85.7010  -14.6110   66.4400 C.3   153  PGH153      0.2044
      3  N2        87.2920  -16.1290   65.5670 N.am  153  PGH153     -0.2004
      4  O2        87.7330  -17.0480   64.6530 O.3   153  PGH153     -0.4026
      5  O1        85.2920  -15.8030   64.4670 O.2   153  PGH153     -0.5374
      6  O1P       84.9090  -13.6700   65.7870 O.3   153  PGH153     -0.2633
      7  O2P       82.6140  -12.9430   66.6190 O.3   153  PGH153     -0.1145
      8  O3P       84.7290  -12.3590   68.3190 O.3   153  PGH153     -0.1145
      9  O4P       84.1870  -11.0950   65.8320 O.2   153  PGH153     -0.2224
     10  P         84.2080  -12.4360   66.7460 P.3   153  PGH153      0.5330
@<TRIPOS>BOND
     1     5     1    2
     2     4     3    1
     3     1     3   am
     4     1     2    1
     5     6     2    1
     6     6    10    1
     7     9    10    2
     8     7    10    1
     9    10     8    1
