@<TRIPOS>MOLECULE
1ika_AKG_A_1.pdb
 10 9 0 0 0
SMALL
GASTEIGER

@<TRIPOS>ATOM
      1  C1        85.6780   69.1450    2.4400 C.2   418  AKG418      0.4219
      2  O1        85.4960   68.0020    2.9120 O.co2 418  AKG418     -0.2373
      3  O2        85.5190   70.1960    3.0640 O.co2 418  AKG418     -0.2373
      4  C2        86.0610   69.2380    0.9940 C.2   418  AKG418      0.2526
      5  O5        86.1970   70.2780    0.6660 O.2   418  AKG418     -0.2843
      6  C3        86.2640   68.1260    0.1620 C.3   418  AKG418      0.0881
      7  C4        85.0410   67.1860    0.1260 C.3   418  AKG418      0.1224
      8  C5        85.5970   65.7890    0.2060 C.2   418  AKG418      0.3653
      9  O3        84.8910   64.8320   -0.1480 O.co2 418  AKG418     -0.2456
     10  O4        86.7430   65.6070    0.5650 O.co2 418  AKG418     -0.2456
@<TRIPOS>BOND
     1     9     8   ar
     2     7     6    1
     3     7     8    1
     4     6     4    1
     5     8    10   ar
     6     5     4    2
     7     4     1    1
     8     1     2   ar
     9     1     3   ar
