@<TRIPOS>MOLECULE
1ike_HEM_A_1.pdb
 43 50 0 0 0
SMALL
GASTEIGER

@<TRIPOS>ATOM
      1 FE         11.0210   20.2240   36.3920 Fe    185  HEM185      0.0000
      2  CHA       11.4510   23.1720   34.8850 C.2   185  HEM185      0.0000
      3  CHB        7.6680   20.3850   35.8950 C.2   185  HEM185      0.0000
      4  CHC       10.6070   17.3710   38.2850 C.2   185  HEM185      0.0000
      5  CHD       14.4360   19.7860   36.5910 C.2   185  HEM185      0.0000
      6  NA         9.7900   21.4890   35.5370 N.2   185  HEM185      0.0000
      7  C1A       10.1620   22.7550   35.0990 C.2   185  HEM185      0.0000
      8  C2A        8.9820   23.4490   34.6350 C.2   185  HEM185      0.0000
      9  C3A        7.9230   22.7200   34.9610 C.2   185  HEM185      0.0000
     10  C4A        8.4100   21.4610   35.4990 C.2   185  HEM185      0.0000
     11  CMA        6.4090   23.0290   34.9150 C.3   185  HEM185      0.0000
     12  CAA        9.0420   24.8970   34.0690 C.3   185  HEM185      0.0000
     13  CBA        8.7150   25.9040   35.1920 C.3   185  HEM185      0.0000
     14  CGA        8.7340   27.3540   34.7850 C.2   185  HEM185      0.0000
     15  O1A        9.4820   27.6610   33.8110 O.co2 185  HEM185      0.0000
     16  O2A        7.9450   28.1460   35.3660 O.co2 185  HEM185      0.0000
     17  NB         9.4480   19.1520   37.0220 N.ar  185  HEM185      0.0000
     18  C1B        8.1160   19.3950   36.7620 C.ar  185  HEM185      0.0000
     19  C2B        7.3180   18.3050   37.2870 C.ar  185  HEM185      0.0000
     20  C3B        8.1380   17.5430   38.0110 C.ar  185  HEM185      0.0000
     21  C4B        9.4790   18.0380   37.8430 C.ar  185  HEM185      0.0000
     22  CMB        5.7820   18.3290   37.1730 C.3   185  HEM185      0.0000
     23  CAB        7.8580   16.3500   38.9490 C.2   185  HEM185      0.0000
     24  CBB        6.7330   16.1810   39.6200 C.2   185  HEM185      0.0000
     25  NC        12.2700   18.8520   37.2720 N.2   185  HEM185      0.0000
     26  C1C       11.9000   17.7330   37.9990 C.2   185  HEM185      0.0000
     27  C2C       13.0940   17.0490   38.4080 C.2   185  HEM185      0.0000
     28  C3C       14.1490   17.7290   37.9640 C.2   185  HEM185      0.0000
     29  C4C       13.6480   18.7960   37.1200 C.2   185  HEM185      0.0000
     30  CMC       13.0310   15.8110   39.3370 C.3   185  HEM185      0.0000
     31  CAC       15.6050   17.1990   37.8670 C.2   185  HEM185      0.0000
     32  CBC       15.9430   16.3750   36.8730 C.2   185  HEM185      0.0000
     33  ND        12.6300   21.2490   35.7650 N.ar  185  HEM185      0.0000
     34  C1D       13.9580   20.9340   35.9720 C.ar  185  HEM185      0.0000
     35  C2D       14.7710   21.8340   35.1760 C.ar  185  HEM185      0.0000
     36  C3D       13.9710   22.8500   34.8580 C.ar  185  HEM185      0.0000
     37  C4D       12.6040   22.4540   35.0990 C.ar  185  HEM185      0.0000
     38  CMD       16.3210   21.7910   35.1850 C.3   185  HEM185      0.0000
     39  CAD       14.3800   24.1110   34.0390 C.3   185  HEM185      0.0000
     40  CBD       13.9020   23.8930   32.5870 C.3   185  HEM185      0.0000
     41  CGD       14.2480   24.9920   31.6250 C.2   185  HEM185      0.0000
     42  O1D       13.6300   26.0760   31.7540 O.co2 185  HEM185      0.0000
     43  O2D       14.9970   24.6250   30.6870 O.co2 185  HEM185      0.0000
@<TRIPOS>BOND
     1    43    41   ar
     2    41    42   ar
     3    41    40    1
     4    40    39    1
     5    15    14   ar
     6    39    36    1
     7    12     8    1
     8    12    13    1
     9     8     9    2
    10     8     7    1
    11    14    13    1
    12    14    16   ar
    13    36    37   ar
    14    36    35   ar
    15     2    37    2
    16     2     7    1
    17    11     9    1
    18     9    10    1
    19    37    33   ar
    20     7     6    2
    21    35    38    1
    22    35    34   ar
    23    10     6    1
    24    10     3    2
    25     6     1    1
    26    33    34   ar
    27    33     1    1
    28     3    18    1
    29    34     5    2
    30     1    17    1
    31     1    25    1
    32     5    29    1
    33    18    17   ar
    34    18    19   ar
    35    32    31    2
    36    17    21   ar
    37    29    25    2
    38    29    28    1
    39    22    19    1
    40    25    26    1
    41    19    20   ar
    42    21    20   ar
    43    21     4    1
    44    31    28    1
    45    28    27    2
    46    26     4    2
    47    26    27    1
    48    20    23    1
    49    27    30    1
    50    23    24    2
