@<TRIPOS>MOLECULE
1ikg_REX_A_1.pdb
 26 25 0 0 0
SMALL
GASTEIGER

@<TRIPOS>ATOM
      1  C1        19.6400  -15.8610   37.7820 C.3   400  REX400      0.0097
      2  C2        21.1050  -16.3750   37.8060 C.3   400  REX400      0.0029
      3  C3        19.5550  -14.4690   38.4250 C.3   400  REX400      0.0868
      4  C4        21.9990  -15.4960   36.9030 C.3   400  REX400      0.0333
      5  C5        18.1170  -14.0650   38.7300 C.2   400  REX400      0.2418
      6  N1        17.5710  -13.2470   37.7530 N.am  400  REX400     -0.1978
      7  O1        17.5310  -14.4050   39.7350 O.2   400  REX400     -0.2733
      8  C6        16.3690  -12.4750   37.9800 C.3   400  REX400      0.1728
      9  C7        16.7640  -11.0270   38.1580 C.2   400  REX400      0.2617
     10  C8        15.4210  -12.6620   36.7960 C.3   400  REX400      0.0334
     11  O2        16.8870  -10.2610   37.2340 O.2   400  REX400     -0.2715
     12  N2        16.9890  -10.6550   39.4850 N.am  400  REX400     -0.1942
     13  C9        17.4090   -9.2710   39.7970 C.3   400  REX400      0.1979
     14  C10       23.5090  -15.9370   36.8500 C.3   400  REX400      0.1978
     15  C11       18.9000   -9.2650   40.1230 C.3   400  REX400      0.0356
     16  C12       16.6390   -8.7020   40.9830 C.2   400  REX400      0.3842
     17  O3        16.2440   -9.4990   41.8580 O.co2 400  REX400     -0.2437
     18  O4        16.4730   -7.4520   40.9970 O.co2 400  REX400     -0.2437
     19  N3        24.1290  -16.2320   38.1470 N.am  400  REX400     -0.1943
     20  C13       24.2650  -14.8070   36.0980 C.2   400  REX400      0.3842
     21  C14       24.6700  -17.5280   38.3270 C.2   400  REX400      0.2612
     22  C15       25.3070  -17.7400   39.6760 C.3   400  REX400      0.1956
     23  O5        24.6490  -18.4060   37.4890 O.2   400  REX400     -0.2717
     24  N4        25.8650  -19.0970   39.7770 N.3   400  REX400     -0.1210
     25  O6        24.0870  -14.7650   34.8510 O.co2 400  REX400     -0.2437
     26  O7        24.9840  -13.9950   36.7860 O.co2 400  REX400     -0.2437
@<TRIPOS>BOND
     1    25    20   ar
     2    20    26   ar
     3    20    14    1
     4    10     8    1
     5    14     4    1
     6    14    19    1
     7     4     2    1
     8    11     9    2
     9    23    21    2
    10     6     8    1
    11     6     5   am
    12     1     2    1
    13     1     3    1
    14     8     9    1
    15    19    21   am
    16     9    12   am
    17    21    22    1
    18     3     5    1
    19     5     7    2
    20    12    13    1
    21    22    24    1
    22    13    15    1
    23    13    16    1
    24    16    18   ar
    25    16    17   ar
