@<TRIPOS>MOLECULE
1iki_REY_A_1.pdb
 21 20 0 0 0
SMALL
GASTEIGER

@<TRIPOS>ATOM
      1  C1        20.2040  -16.1840   38.4200 C.3   400  REY400      0.0097
      2  C2        21.3270  -16.8820   37.6600 C.3   400  REY400      0.0029
      3  C3        19.5590  -15.1140   37.5760 C.3   400  REY400      0.0868
      4  C4        22.2530  -15.7680   37.1380 C.3   400  REY400      0.0333
      5  C5        18.1810  -14.7260   38.1420 C.2   400  REY400      0.2418
      6  N1        17.6640  -13.6920   37.4560 N.am  400  REY400     -0.1956
      7  O1        17.6660  -15.2610   39.0930 O.2   400  REY400     -0.2733
      8  C6        16.5270  -12.8390   37.7460 C.3   400  REY400      0.1978
      9  C7        15.5610  -13.1020   36.6150 C.2   400  REY400      0.3842
     10  C8        15.9470  -13.0860   39.1150 C.3   400  REY400      0.0356
     11  O2        15.3830  -12.2100   35.7540 O.co2 400  REY400     -0.2437
     12  C9        23.7130  -16.2400   36.8610 C.3   400  REY400      0.1978
     13  N3        24.4860  -16.5640   38.0170 N.am  400  REY400     -0.1943
     14  C10       24.3910  -15.0540   36.1460 C.2   400  REY400      0.3842
     15  C11       24.8340  -17.8330   38.3220 C.2   400  REY400      0.2612
     16  C12       25.4460  -18.0100   39.6840 C.3   400  REY400      0.1956
     17  O3        24.6180  -18.7470   37.5610 O.2   400  REY400     -0.2717
     18  N4        26.0650  -19.3480   39.7440 N.3   400  REY400     -0.1210
     19  O4        24.1860  -14.9750   34.9530 O.co2 400  REY400     -0.2437
     20  O5        25.0720  -14.2630   36.7800 O.co2 400  REY400     -0.2437
     21  O6        14.9990  -14.2150   36.5590 O.co2 400  REY400     -0.2437
@<TRIPOS>BOND
     1    19    14   ar
     2    11     9   ar
     3    14    20   ar
     4    14    12    1
     5    21     9   ar
     6     9     8    1
     7    12     4    1
     8    12    13    1
     9     4     2    1
    10     6     8    1
    11     6     5   am
    12    17    15    2
    13     3     5    1
    14     3     1    1
    15     2     1    1
    16     8    10    1
    17    13    15   am
    18     5     7    2
    19    15    16    1
    20    16    18    1
