@<TRIPOS>MOLECULE
1ikj_HEM_A_1.pdb
 43 50 0 0 0
SMALL
GASTEIGER

@<TRIPOS>ATOM
      1 FE         10.9060   20.2780   36.4850 Fe    185  HEM185      0.0000
      2  CHA       11.3780   23.2060   34.9100 C.2   185  HEM185      0.0000
      3  CHB        7.5440   20.5940   36.0900 C.2   185  HEM185      0.0000
      4  CHC       10.4360   17.5520   38.4020 C.2   185  HEM185      0.0000
      5  CHD       14.2800   19.8730   36.7070 C.2   185  HEM185      0.0000
      6  NA         9.7070   21.6390   35.6840 N.ar  185  HEM185      0.0000
      7  C1A       10.0860   22.8390   35.1510 C.ar  185  HEM185      0.0000
      8  C2A        8.8780   23.6100   34.7970 C.ar  185  HEM185      0.0000
      9  C3A        7.7950   22.8370   35.1110 C.ar  185  HEM185      0.0000
     10  C4A        8.3230   21.6430   35.6850 C.ar  185  HEM185      0.0000
     11  CMA        6.3270   23.2520   35.0270 C.3   185  HEM185      0.0000
     12  CAA        8.8740   25.0170   34.2100 C.3   185  HEM185      0.0000
     13  CBA        8.7030   26.0430   35.3490 C.3   185  HEM185      0.0000
     14  CGA        8.6000   27.4470   34.8230 C.2   185  HEM185      0.0000
     15  O1A        9.3800   27.8120   33.9090 O.co2 185  HEM185      0.0000
     16  O2A        7.8180   28.2390   35.3710 O.co2 185  HEM185      0.0000
     17  NB         9.3000   19.1930   37.0720 N.2   185  HEM185      0.0000
     18  C1B        7.9540   19.4560   36.7890 C.2   185  HEM185      0.0000
     19  C2B        7.1310   18.4130   37.3520 C.2   185  HEM185      0.0000
     20  C3B        7.9630   17.5590   38.1010 C.2   185  HEM185      0.0000
     21  C4B        9.3070   18.0860   37.8760 C.2   185  HEM185      0.0000
     22  CMB        5.6540   18.3400   37.2140 C.3   185  HEM185      0.0000
     23  CAB        7.5880   16.4350   38.8790 C.2   185  HEM185      0.0000
     24  CBB        7.7500   15.9070   40.0820 C.2   185  HEM185      0.0000
     25  NC        12.1070   18.9730   37.4030 N.ar  185  HEM185      0.0000
     26  C1C       11.7350   17.9090   38.0900 C.ar  185  HEM185      0.0000
     27  C2C       12.9270   17.1600   38.5890 C.ar  185  HEM185      0.0000
     28  C3C       13.9900   17.7170   38.0310 C.ar  185  HEM185      0.0000
     29  C4C       13.4560   18.9140   37.2690 C.ar  185  HEM185      0.0000
     30  CMC       12.9400   15.9370   39.5010 C.3   185  HEM185      0.0000
     31  CAC       15.2530   17.2150   38.0450 C.2   185  HEM185      0.0000
     32  CBC       16.3050   17.9950   37.9080 C.2   185  HEM185      0.0000
     33  ND        12.4640   21.3040   35.9050 N.2   185  HEM185      0.0000
     34  C1D       13.8470   21.0060   36.0710 C.2   185  HEM185      0.0000
     35  C2D       14.6750   22.0120   35.4530 C.2   185  HEM185      0.0000
     36  C3D       13.8540   22.9690   34.9240 C.2   185  HEM185      0.0000
     37  C4D       12.4890   22.5320   35.2550 C.2   185  HEM185      0.0000
     38  CMD       16.1780   21.9660   35.4560 C.3   185  HEM185      0.0000
     39  CAD       14.1710   24.1690   34.0920 C.3   185  HEM185      0.0000
     40  CBD       14.0460   23.9120   32.6390 C.3   185  HEM185      0.0000
     41  CGD       14.3600   25.0860   31.7860 C.2   185  HEM185      0.0000
     42  O1D       13.5810   26.0490   31.9430 O.co2 185  HEM185      0.0000
     43  O2D       15.4970   25.2030   31.3060 O.co2 185  HEM185      0.0000
@<TRIPOS>BOND
     1    43    41   ar
     2    41    42   ar
     3    41    40    1
     4    40    39    1
     5    15    14   ar
     6    39    36    1
     7    12     8    1
     8    12    13    1
     9     8     9   ar
    10     8     7   ar
    11    14    13    1
    12    14    16   ar
    13     2     7    2
    14     2    37    1
    15    36    37    1
    16    36    35    2
    17    11     9    1
    18     9    10   ar
    19     7     6   ar
    20    37    33    2
    21    35    38    1
    22    35    34    1
    23     6    10   ar
    24     6     1    1
    25    10     3    2
    26    33    34    1
    27    33     1    1
    28    34     5    2
    29     3    18    1
    30     1    17    1
    31     1    25    1
    32     5    29    1
    33    18    17    2
    34    18    19    1
    35    17    21    1
    36    22    19    1
    37    29    25   ar
    38    29    28   ar
    39    19    20    2
    40    25    26   ar
    41    21    20    1
    42    21     4    2
    43    32    31    2
    44    28    31    1
    45    28    27   ar
    46    26     4    1
    47    26    27   ar
    48    20    23    1
    49    27    30    1
    50    23    24    2
