@<TRIPOS>MOLECULE
1ikt_OXN_A_1.pdb
 25 25 0 0 0
SMALL
GASTEIGER

@<TRIPOS>ATOM
      1  C5        29.5530   28.8300   15.9440 C.3   123  OXN123      0.0040
      2  C1        30.2890   28.7900   17.2730 C.3   123  OXN123      0.0003
      3  C3        29.3270   28.4350   18.4150 C.3   123  OXN123      0.0000
      4  C4        31.3090   27.6510   17.1890 C.3   123  OXN123      0.0000
      5  C2        31.0540   30.0570   17.7100 C.3   123  OXN123      0.0000
      6  C6        29.8430   29.2540   14.4720 C.3   123  OXN123      0.0189
      7  C9        30.4160   30.6950   14.3880 C.ar  123  OXN123     -0.0226
      8  C8        30.7990   28.2770   13.7980 C.3   123  OXN123      0.0044
      9  C7        28.5370   29.2090   13.6820 C.3   123  OXN123      0.0044
     10  C10       29.5790   31.8340   14.6420 C.ar  123  OXN123     -0.0012
     11  C11       30.1000   33.1770   14.5860 C.ar  123  OXN123      0.0366
     12  C12       31.4620   33.3240   14.2710 C.ar  123  OXN123      0.1387
     13  C13       32.3410   32.2670   14.0150 C.ar  123  OXN123      0.0366
     14  C14       31.7970   30.9260   14.0760 C.ar  123  OXN123     -0.0012
     15  O15       31.9870   34.6660   14.1200 O.3   123  OXN123     -0.4727
     16  C16       31.7630   35.5090   15.2590 C.3   123  OXN123      0.2373
     17  C17       31.5560   36.9420   14.8090 C.3   123  OXN123      0.1894
     18  O18       32.8010   37.6480   14.7910 O.3   123  OXN123     -0.3471
     19  C19       32.6720   38.9270   14.1580 C.3   123  OXN123      0.1743
     20  C20       33.6100   39.9300   14.8010 C.3   123  OXN123      0.1742
     21  O21       32.9430   40.6310   15.8510 O.3   123  OXN123     -0.3484
     22  C22       33.5260   41.9120   16.1060 C.3   123  OXN123      0.1742
     23  C23       32.8960   42.5390   17.3490 C.3   123  OXN123      0.1742
     24  O24       33.5580   42.0700   18.5240 O.3   123  OXN123     -0.3484
     25  C25       33.3050   42.9050   19.6530 C.3   123  OXN123      0.1742
@<TRIPOS>BOND
     1     9     6    1
     2     8     6    1
     3    13    14   ar
     4    13    12   ar
     5    14     7   ar
     6    15    12    1
     7    15    16    1
     8    19    18    1
     9    19    20    1
    10    12    11   ar
    11     7     6    1
    12     7    10   ar
    13     6     1    1
    14    11    10   ar
    15    18    17    1
    16    20    21    1
    17    17    16    1
    18    21    22    1
    19     1     2    1
    20    22    23    1
    21     4     2    1
    22     2     5    1
    23     2     3    1
    24    23    24    1
    25    24    25    1
