@<TRIPOS>MOLECULE
1ikv_EFZ_A_1.pdb
 21 23 0 0 0
SMALL
GASTEIGER

@<TRIPOS>ATOM
      1 CL         -7.0660  145.9570  174.8140 Cl    2000  EFZ2000    -0.0826
      2  F1       -12.2330  145.0560  174.0300 F     2000  EFZ2000    -0.1656
      3  F2       -12.0380  144.7650  171.7930 F     2000  EFZ2000    -0.1656
      4  F3       -13.3770  143.3890  172.9930 F     2000  EFZ2000    -0.1656
      5  O1       -11.1220  141.2380  170.3250 O.2   2000  EFZ2000    -0.1694
      6  O2       -11.1360  141.8690  172.4590 O.3   2000  EFZ2000    -0.3792
      7  N         -9.5190  142.7610  170.8650 N.2   2000  EFZ2000    -0.3083
      8  C1        -8.8860  143.5780  171.8390 C.2   2000  EFZ2000     0.1332
      9  C2        -7.6080  144.1720  171.5940 C.2   2000  EFZ2000     0.0300
     10  C3        -6.9810  144.9840  172.5970 C.2   2000  EFZ2000     0.0134
     11  C4        -7.6330  145.2050  173.8470 C.2   2000  EFZ2000     0.0540
     12  C5        -8.9110  144.6110  174.0770 C.2   2000  EFZ2000    -0.0031
     13  C6        -9.5710  143.7890  173.0850 C.3   2000  EFZ2000     0.1341
     14  C7       -10.9740  143.0950  173.2600 C.3   2000  EFZ2000     0.2966
     15  C8       -11.0730  142.5760  174.6330 C.1   2000  EFZ2000    -0.0429
     16  C9       -11.2490  142.1770  175.9090 C.1   2000  EFZ2000    -0.0885
     17  C10      -11.4190  141.6750  177.2610 C.3   2000  EFZ2000     0.0643
     18  C11      -11.0230  140.3290  177.7300 C.3   2000  EFZ2000     0.0140
     19  C12      -10.0370  141.5250  177.9300 C.3   2000  EFZ2000     0.0140
     20  C13      -12.1820  144.1100  173.0170 C.3   2000  EFZ2000     0.4437
     21  C14      -10.6150  141.9250  171.1980 C.1   2000  EFZ2000     0.3736
@<TRIPOS>BOND
     1     5    21    2
     2     7    21    2
     3     7     8    2
     4    21     6    1
     5     9     8    1
     6     9    10    2
     7     3    20    1
     8     8    13    1
     9     6    14    1
    10    10    11    1
    11     4    20    1
    12    20    14    1
    13    20     2    1
    14    13    14    1
    15    13    12    1
    16    14    15    1
    17    11    12    2
    18    11     1    1
    19    15    16    3
    20    16    17    1
    21    17    18    1
    22    17    19    1
    23    18    19    1
