@<TRIPOS>MOLECULE
1ikw_EFZ_A_1.pdb
 21 23 0 0 0
SMALL
GASTEIGER

@<TRIPOS>ATOM
      1 CL         -7.0580  146.0360  175.8400 Cl    2000  EFZ2000    -0.0826
      2  F1       -13.2680  143.4330  173.9990 F     2000  EFZ2000    -0.1656
      3  F2       -11.9300  144.5790  172.6110 F     2000  EFZ2000    -0.1656
      4  F3       -12.0580  145.1600  174.8030 F     2000  EFZ2000    -0.1656
      5  O1       -10.8650  141.1570  171.3080 O.2   2000  EFZ2000    -0.1694
      6  O2       -10.9920  141.8560  173.4180 O.3   2000  EFZ2000    -0.3792
      7  N         -9.3010  142.7160  171.8850 N.2   2000  EFZ2000    -0.3083
      8  C1        -8.7220  143.5640  172.8590 C.2   2000  EFZ2000     0.1332
      9  C2        -7.4330  144.1570  172.6480 C.2   2000  EFZ2000     0.0300
     10  C3        -6.8570  145.0020  173.6550 C.2   2000  EFZ2000     0.0134
     11  C4        -7.5710  145.2540  174.8720 C.2   2000  EFZ2000     0.0540
     12  C5        -8.8540  144.6570  175.0620 C.2   2000  EFZ2000    -0.0031
     13  C6        -9.4650  143.8010  174.0690 C.3   2000  EFZ2000     0.1341
     14  C7       -10.8690  143.0970  174.2060 C.3   2000  EFZ2000     0.2966
     15  C8       -10.9970  142.5760  175.5730 C.1   2000  EFZ2000    -0.0429
     16  C9       -11.2010  142.0780  176.8030 C.1   2000  EFZ2000    -0.0885
     17  C10      -11.3910  141.4730  178.1030 C.3   2000  EFZ2000     0.0643
     18  C11      -10.7410  140.2320  178.5780 C.3   2000  EFZ2000     0.0140
     19  C12      -10.1040  141.6150  178.9340 C.3   2000  EFZ2000     0.0140
     20  C13      -12.0590  144.1020  173.9050 C.3   2000  EFZ2000     0.4437
     21  C14      -10.4100  141.8780  172.1860 C.1   2000  EFZ2000     0.3736
@<TRIPOS>BOND
     1     5    21    2
     2     7    21    2
     3     7     8    2
     4    21     6    1
     5     3    20    1
     6     9     8    1
     7     9    10    2
     8     8    13    1
     9     6    14    1
    10    10    11    1
    11    20     2    1
    12    20    14    1
    13    20     4    1
    14    13    14    1
    15    13    12    1
    16    14    15    1
    17    11    12    2
    18    11     1    1
    19    15    16    3
    20    16    17    1
    21    17    18    1
    22    17    19    1
    23    18    19    1
