@<TRIPOS>MOLECULE
1ikx_PNU_A_1.pdb
 20 22 0 0 0
SMALL
GASTEIGER

@<TRIPOS>ATOM
      1  C1        -9.8980  142.8870  172.6230 C.1   2000  PNU2000     0.1700
      2  N2        -8.9790  142.6990  171.6160 N.2   2000  PNU2000    -0.3205
      3  C3        -7.6580  143.0290  171.8440 C.2   2000  PNU2000     0.2174
      4  C4        -7.2730  143.5580  173.1240 C.3   2000  PNU2000     0.1509
      5  C5        -8.2380  143.7390  174.1410 C.2   2000  PNU2000     0.1874
      6  N6        -9.5790  143.3720  173.8190 N.2   2000  PNU2000    -0.3272
      7  C7       -11.6200  139.7180  176.7090 C.ar  2000  PNU2000     0.1438
      8  C8       -12.2700  139.3770  175.4940 C.3   2000  PNU2000     0.1883
      9  N9       -12.4940  140.3980  174.6020 N.2   2000  PNU2000    -0.2696
     10  C10      -12.1170  141.7040  174.8430 C.2   2000  PNU2000     0.0472
     11  C11      -11.4550  142.0780  176.0500 C.3   2000  PNU2000     0.0710
     12  C12      -11.2230  141.0410  176.9760 C.ar  2000  PNU2000     0.0189
     13  C13      -10.5920  140.9460  178.3440 C.ar  2000  PNU2000     0.0395
     14  O14      -11.3020  138.8280  177.7580 O.2   2000  PNU2000    -0.4530
     15  C15      -10.6960  139.6410  178.6880 C.ar  2000  PNU2000     0.1789
     16  C16      -12.4030  142.8710  173.9000 C.3   2000  PNU2000     0.0992
     17  S17      -11.6010  142.4600  172.2990 S.3   2000  PNU2000    -0.0133
     18  N18       -6.6820  142.8480  170.8110 N.pl3 2000  PNU2000    -0.0965
     19 CL19       -7.9040  144.3060  175.5650 Cl    2000  PNU2000    -0.0511
     20  C21      -13.9480  143.0030  173.7150 C.3   2000  PNU2000     0.0188
@<TRIPOS>BOND
     1    18     3    1
     2     2     3    2
     3     2     1    2
     4     3     4    1
     5    17     1    1
     6    17    16    1
     7     1     6    2
     8     4     5    1
     9    20    16    1
    10     6     5    2
    11    16    10    1
    12     5    19    1
    13     9    10    2
    14     9     8    1
    15    10    11    1
    16     8     7    1
    17    11    12    1
    18     7    12   ar
    19     7    14   ar
    20    12    13   ar
    21    14    15   ar
    22    13    15   ar
