@<TRIPOS>MOLECULE
1iky_MSD_A_1.pdb
 27 29 0 0 0
SMALL
GASTEIGER

@<TRIPOS>ATOM
      1  C2        -6.7450  144.9320  173.0870 C.ar  2000  MSD2000     0.0877
      2  C3        -8.0380  144.4230  173.4340 C.ar  2000  MSD2000     0.1106
      3  N4        -8.6910  143.5870  172.5340 N.ar  2000  MSD2000    -0.2266
      4  C5        -8.1540  143.2040  171.2900 C.ar  2000  MSD2000     0.1536
      5  C6        -6.8630  143.6820  170.9020 C.ar  2000  MSD2000     0.0369
      6  C7        -6.1610  144.5490  171.8060 C.ar  2000  MSD2000     0.0148
      7  N8        -8.9220  142.3440  170.4380 N.am  2000  MSD2000    -0.1717
      8  C9       -10.2420  142.0310  170.5760 C.2   2000  MSD2000     0.1758
      9  S10      -10.8040  141.2360  169.7250 S.2   2000  MSD2000    -0.0151
     10  N11      -10.9120  142.5950  171.6400 N.am  2000  MSD2000    -0.2179
     11  C12      -12.2980  142.3220  171.8730 C.3   2000  MSD2000     0.0990
     12  C13      -13.0660  143.3560  172.7010 C.3   2000  MSD2000     0.0282
     13  C14      -13.0230  141.8170  173.0670 C.3   2000  MSD2000     0.0501
     14  C15      -12.2260  141.4410  174.3570 C.ar  2000  MSD2000     0.0521
     15  C16      -12.4060  140.1020  174.8280 C.ar  2000  MSD2000     0.1378
     16  C18      -11.7190  139.6550  176.0280 C.ar  2000  MSD2000     0.0369
     17  C19      -10.8620  140.5310  176.7570 C.ar  2000  MSD2000     0.0091
     18  C20      -10.6430  141.8860  176.3210 C.ar  2000  MSD2000     0.0735
     19  C21      -11.3270  142.3570  175.1080 C.ar  2000  MSD2000     0.1973
     20  O22      -11.1430  143.6500  174.6600 O.3   2000  MSD2000    -0.2867
     21  C23       -9.7100  142.8040  177.1290 C.2   2000  MSD2000     0.1766
     22  O24       -9.5340  143.9540  176.7340 O.2   2000  MSD2000    -0.2912
     23  C25       -8.9920  142.3540  178.3970 C.3   2000  MSD2000     0.0774
     24  O41      -13.2240  139.2690  174.1470 O.3   2000  MSD2000    -0.4716
     25  C42       -5.9200  145.8590  173.9610 C.1   2000  MSD2000     0.1020
     26  N43       -5.4110  146.6420  174.6890 N.1   2000  MSD2000    -0.1908
     27  C44      -12.9980  138.0490  173.9420 C.3   2000  MSD2000     0.2525
@<TRIPOS>BOND
     1     9     8    2
     2     7     8    1
     3     7     4    1
     4     8    10    1
     5     5     4   ar
     6     5     6   ar
     7     4     3   ar
     8    10    11    1
     9     6     1   ar
    10    11    12    1
    11    11    13    1
    12     3     2   ar
    13    12    13    1
    14    13    14    1
    15     1     2   ar
    16     1    25    1
    17    27    24    1
    18    25    26    3
    19    24    15    1
    20    14    15   ar
    21    14    19   ar
    22    20    19    1
    23    15    16   ar
    24    19    18   ar
    25    16    17   ar
    26    18    17   ar
    27    18    21    1
    28    22    21    2
    29    21    23    1
