@<TRIPOS>MOLECULE
1il0_NAD_A_1.pdb
 44 48 0 0 0
SMALL
GASTEIGER

@<TRIPOS>ATOM
      1  PA         5.1100   -9.8530  -10.3340 P.3   350  NAD350      0.2189
      2  O1A        4.8630  -11.3090  -10.3800 O.3   350  NAD350     -0.4371
      3  O2A        6.5150   -9.4180  -10.5150 O.2   350  NAD350     -0.5170
      4  O5B        4.5650   -9.1990   -8.9740 O.3   350  NAD350     -0.3112
      5  C5B        3.3190   -9.5530   -8.3310 C.3   350  NAD350      0.1813
      6  C4B        3.4290   -9.5030   -6.9180 C.3   350  NAD350      0.1821
      7  O4B        2.1180   -9.7580   -6.3710 O.3   350  NAD350     -0.3135
      8  C3B        4.3170  -10.5750   -6.2850 C.3   350  NAD350      0.2184
      9  O3B        5.3390   -9.8660   -5.5740 O.3   350  NAD350     -0.2174
     10  C2B        3.3350  -11.4210   -5.4450 C.3   350  NAD350      0.2570
     11  O2B        3.9260  -12.0320   -4.2740 O.3   350  NAD350     -0.2130
     12  C1B        2.2370  -10.4110   -5.1510 C.3   350  NAD350      0.3186
     13  N9A        0.8940  -10.8910   -4.8000 N.pl3 350  NAD350     -0.1439
     14  C8A        0.1690  -11.8920   -5.3760 C.3   350  NAD350      0.3377
     15  N7A       -1.0250  -12.1040   -4.8320 N.2   350  NAD350     -0.2095
     16  C5A       -1.0770  -11.1610   -3.8280 C.2   350  NAD350      0.2526
     17  C6A       -2.0580  -10.8400   -2.8630 C.2   350  NAD350      0.4393
     18  N6A       -3.2140  -11.4600   -2.7350 N.pl3 350  NAD350      0.2180
     19  N1A       -1.8290   -9.8160   -1.9770 N.2   350  NAD350      0.0021
     20  C2A       -0.6350   -9.1370   -2.0540 C.3   350  NAD350      0.5254
     21  N3A        0.3410   -9.3750   -2.9080 N.2   350  NAD350     -0.0055
     22  C4A        0.0820  -10.3910   -3.7790 C.2   350  NAD350      0.3518
     23  O3         4.2380   -9.2230  -11.4300 O.3   350  NAD350     -0.2703
     24  PN         4.0500   -7.7030  -12.0040 P.3   350  NAD350      0.2189
     25  O1N        4.7980   -7.7000  -13.2600 O.2   350  NAD350     -0.5170
     26  O2N        4.6900   -6.7080  -11.1240 O.3   350  NAD350     -0.4371
     27  O5D        2.5200   -7.5370  -12.3440 O.3   350  NAD350     -0.3112
     28  C5D        1.7940   -6.4750  -11.7310 C.3   350  NAD350      0.1813
     29  C4D        0.4260   -6.3410  -12.3300 C.3   350  NAD350      0.1799
     30  O4D        0.7220   -5.2890  -13.2710 O.3   350  NAD350     -0.3327
     31  C3D       -0.1960   -7.4470  -13.1740 C.3   350  NAD350      0.2158
     32  O3D       -1.6120   -7.2960  -13.1000 O.3   350  NAD350     -0.2175
     33  C2D        0.2820   -7.1710  -14.6040 C.3   350  NAD350      0.2309
     34  O2D       -0.6440   -7.6130  -15.6090 O.3   350  NAD350     -0.2158
     35  C1D        0.4770   -5.6690  -14.5960 C.3   350  NAD350      0.2263
     36  N1N        1.6380   -5.1720  -15.3150 N.pl3 350  NAD350     -0.2787
     37  C2N        2.7930   -5.9390  -15.5710 C.3   350  NAD350      0.1244
     38  C3N        3.9560   -5.3350  -16.2840 C.2   350  NAD350      0.0544
     39  C7N        5.1580   -6.1550  -16.5180 C.2   350  NAD350      0.2818
     40  O7N        6.1020   -5.6800  -17.1780 O.2   350  NAD350     -0.2670
     41  N7N        5.2480   -7.4250  -16.1190 N.am  350  NAD350     -0.0839
     42  C4N        3.8060   -3.8850  -16.6910 C.2   350  NAD350      0.0033
     43  C5N        2.5160   -3.1910  -16.3560 C.2   350  NAD350      0.0157
     44  C6N        1.5390   -3.8070  -15.7220 C.2   350  NAD350      0.0633
@<TRIPOS>BOND
     1    40    39    2
     2    42    43    1
     3    42    38    2
     4    39    38    1
     5    39    41   am
     6    43    44    2
     7    38    37    1
     8    44    36    1
     9    34    33    1
    10    37    36    1
    11    36    35    1
    12    33    35    1
    13    33    31    1
    14    35    30    1
    15    30    29    1
    16    25    24    2
    17    31    32    1
    18    31    29    1
    19    27    24    1
    20    27    28    1
    21    29    28    1
    22    24    23    1
    23    24    26    1
    24    23     1    1
    25     3     1    2
    26     2     1    1
    27     1     4    1
    28     4     5    1
    29     5     6    1
    30     6     7    1
    31     6     8    1
    32     7    12    1
    33     8     9    1
    34     8    10    1
    35    10    12    1
    36    10    11    1
    37    14    15    1
    38    14    13    1
    39    12    13    1
    40    15    16    2
    41    13    22    1
    42    16    22    1
    43    16    17    1
    44    22    21    2
    45    21    20    1
    46    17    18    1
    47    17    19    2
    48    20    19    1
