@<TRIPOS>MOLECULE
1il2_AMO_A_1.pdb
 31 33 0 0 0
SMALL
GASTEIGER

@<TRIPOS>ATOM
      1  P          3.2410    0.3740   -5.6560 P.3   831  AMO831      0.2723
      2  O1P        4.6100    0.8170   -6.0690 O.3   831  AMO831     -0.4273
      3  O2P        2.1010    0.5610   -6.5910 O.2   831  AMO831     -0.5082
      4  O3P        3.3010   -1.2770   -5.7400 O.3   831  AMO831     -0.4091
      5  O5'        2.8600    1.1810   -4.3330 O.3   831  AMO831     -0.3024
      6  C5'        1.4950    1.2850   -3.8920 C.3   831  AMO831      0.1823
      7  C4'        1.0810    2.7340   -3.8030 C.3   831  AMO831      0.1822
      8  O4'        1.9260    3.4150   -2.8400 O.3   831  AMO831     -0.3135
      9  C1'        2.0980    4.7620   -3.2360 C.3   831  AMO831      0.3186
     10  N9         3.5260    5.0470   -3.3410 N.pl3 831  AMO831     -0.1439
     11  C4         4.1770    6.0620   -2.6860 C.2   831  AMO831      0.3518
     12  N3         3.6380    6.9750   -1.8630 N.2   831  AMO831     -0.0055
     13  C2         4.5680    7.7970   -1.4040 C.3   831  AMO831      0.5254
     14  N1         5.8770    7.8140   -1.6650 N.2   831  AMO831      0.0021
     15  C6         6.3890    6.8810   -2.4960 C.2   831  AMO831      0.4393
     16  N6         7.6910    6.9030   -2.7490 N.pl3 831  AMO831      0.2180
     17  C5         5.4980    5.9590   -3.0570 C.2   831  AMO831      0.2526
     18  N7         5.6860    4.8970   -3.9330 N.2   831  AMO831     -0.2095
     19  C8         4.4820    4.3930   -4.0690 C.3   831  AMO831      0.3377
     20  C2'        1.3320    4.9800   -4.5460 C.3   831  AMO831      0.2570
     21  C3'        1.2270    3.5520   -5.0760 C.3   831  AMO831      0.2184
     22  O3'        0.0880    3.3900   -5.9130 O.3   831  AMO831     -0.2174
     23  N          3.7650   -4.3700   -4.1430 N.3   831  AMO831     -0.1204
     24  CA         3.0860   -3.4330   -5.0800 C.3   831  AMO831      0.2015
     25  CB         1.5670   -3.4580   -4.8740 C.3   831  AMO831      0.1444
     26  CG         0.9270   -4.7320   -5.3910 C.2   831  AMO831      0.3669
     27  OD1        0.0300   -5.2690   -4.7100 O.co2 831  AMO831     -0.2456
     28  OD2        1.4180   -5.2770   -6.3940 O.co2 831  AMO831     -0.2456
     29  C          3.6080   -2.0270   -4.8580 C.2   831  AMO831      0.3391
     30  O          4.2380   -1.7450   -3.8410 O.2   831  AMO831     -0.2482
     31  O2'        0.0920    5.5940   -4.2500 O.3   831  AMO831     -0.2130
@<TRIPOS>BOND
     1     3     1    2
     2    28    26   ar
     3     2     1    1
     4    22    21    1
     5     4     1    1
     6     4    29    1
     7     1     5    1
     8    26    25    1
     9    26    27   ar
    10    24    25    1
    11    24    29    1
    12    24    23    1
    13    21    20    1
    14    21     7    1
    15    29    30    2
    16    20    31    1
    17    20     9    1
    18     5     6    1
    19    19    18    1
    20    19    10    1
    21    18    17    2
    22     6     7    1
    23     7     8    1
    24    10     9    1
    25    10    11    1
    26     9     8    1
    27    17    11    1
    28    17    15    1
    29    16    15    1
    30    11    12    2
    31    15    14    2
    32    12    13    1
    33    14    13    1
