@<TRIPOS>MOLECULE
1il3_7DG_A_1.pdb
 11 12 0 0 0
SMALL
GASTEIGER

@<TRIPOS>ATOM
      1  N9        -1.0790    0.5580    7.8420 N.2   301  7DG301     -0.1844
      2  C8        -1.6900    0.9590    6.7110 C.2   301  7DG301      0.1079
      3  C7        -0.7530    1.4910    5.8210 C.2   301  7DG301      0.0286
      4  C5         0.4780    1.3890    6.4690 C.3   301  7DG301      0.2395
      5  C6         1.7920    1.7360    6.1280 C.1   301  7DG301      0.2104
      6  O6         2.0990    2.2520    5.0770 O.2   301  7DG301     -0.2120
      7  N1         2.7650    1.4720    7.0390 N.2   301  7DG301     -0.2525
      8  C2         2.4990    0.8970    8.2450 C.1   301  7DG301      0.2602
      9  N2         3.4650    0.6360    9.1430 N.pl3 301  7DG301     -0.0221
     10  N3         1.2360    0.5640    8.5950 N.2   301  7DG301     -0.2733
     11  C4         0.2360    0.8060    7.7150 C.1   301  7DG301      0.0976
@<TRIPOS>BOND
     1     6     5    2
     2     3     4    1
     3     3     2    2
     4     5     4    1
     5     5     7    2
     6     4    11    1
     7     2     1    1
     8     7     8    2
     9    11     1    2
    10    11    10    2
    11     8    10    2
    12     8     9    1
