@<TRIPOS>MOLECULE
1il4_9DG_A_1.pdb
 11 12 0 0 0
SMALL
GASTEIGER

@<TRIPOS>ATOM
      1  C9        -1.3140    0.7870    7.8100 C.2   301  9DG301      0.0561
      2  C8        -1.8760    1.0240    6.6050 C.2   301  9DG301      0.1025
      3  N7        -0.9080    1.3330    5.6620 N.2   301  9DG301     -0.2289
      4  C5         0.2690    1.2600    6.3670 C.2   301  9DG301      0.2068
      5  C6         1.6980    1.4600    6.0050 C.1   301  9DG301      0.2362
      6  O6         2.0390    1.7600    4.8880 O.2   301  9DG301     -0.2069
      7  N1         2.5960    1.2830    7.0050 N.2   301  9DG301     -0.2486
      8  C2         2.2960    0.9720    8.1850 C.1   301  9DG301      0.2519
      9  N2         3.3260    0.8100    9.1260 N.pl3 301  9DG301     -0.0226
     10  N3         1.0070    0.7790    8.5930 N.2   301  9DG301     -0.3229
     11  C4         0.0080    0.9240    7.6810 C.2   301  9DG301      0.1764
@<TRIPOS>BOND
     1     6     5    2
     2     3     4    2
     3     3     2    1
     4     5     4    1
     5     5     7    2
     6     4    11    1
     7     2     1    2
     8     7     8    2
     9    11     1    1
    10    11    10    2
    11     8    10    2
    12     8     9    1
