@<TRIPOS>MOLECULE
1il5_DDP_A_1.pdb
 10 10 0 0 0
SMALL
GASTEIGER

@<TRIPOS>ATOM
      1  C5       -15.3050   36.1340   39.5680 C.3   301  DDP301      0.3266
      2  N7       -14.8540   36.4110   38.2670 N.3   301  DDP301     -0.0950
      3  C4       -14.4380   35.8540   40.6410 C.1   301  DDP301      0.2264
      4  N3       -14.9550   35.5940   41.8670 N.2   301  DDP301     -0.2513
      5  C2       -16.2850   35.5970   42.0880 C.1   301  DDP301      0.2617
      6  N2       -16.7830   35.3220   43.3700 N.pl3 301  DDP301     -0.0220
      7  N1       -17.1340   35.8660   41.0640 N.2   301  DDP301     -0.2513
      8  C6       -16.6840   36.1350   39.8150 C.1   301  DDP301      0.2264
      9  O6       -17.5110   36.3600   38.9720 O.2   301  DDP301     -0.2107
     10  O9       -13.0580   35.8410   40.4570 O.2   301  DDP301     -0.2107
@<TRIPOS>BOND
     1     2     1    1
     2     9     8    2
     3     1     8    1
     4     1     3    1
     5     8     7    2
     6    10     3    2
     7     3     4    2
     8     7     5    2
     9     4     5    2
    10     5     6    1
