@<TRIPOS>MOLECULE
1il9_MOG_A_1.pdb
 12 13 0 0 0
SMALL
GASTEIGER

@<TRIPOS>ATOM
      1  N1         3.6780    1.6530    7.4100 N.2   301  MOG301     -0.2474
      2  C2         3.6120    1.2400    8.7030 C.1   301  MOG301      0.2548
      3  N3         2.4190    0.9320    9.2570 N.2   301  MOG301     -0.2838
      4  C4         1.2970    1.0380    8.5140 C.2   301  MOG301      0.3383
      5  C5         1.3470    1.4570    7.1900 C.2   301  MOG301      0.2952
      6  C6         2.5860    1.7770    6.6220 C.1   301  MOG301      0.2519
      7  O6         2.7220    2.1460    5.5060 O.2   301  MOG301     -0.2057
      8  N7         0.0800    1.4390    6.7860 N.2   301  MOG301     -0.3521
      9  C8        -0.6110    1.0220    7.8690 C.2   301  MOG301      0.2608
     10  O9         0.0960    0.7640    8.9570 O.2   301  MOG301     -0.3998
     11  C10       -2.1250    0.8560    7.8090 C.3   301  MOG301      0.1104
     12  N2         4.6870    1.1130    9.5010 N.pl3 301  MOG301     -0.0225
@<TRIPOS>BOND
     1     7     6    2
     2     6     5    1
     3     6     1    2
     4     8     5    2
     5     8     9    2
     6     5     4    1
     7     1     2    2
     8    11     9    1
     9     9    10    1
    10     4    10    1
    11     4     3    2
    12     2     3    2
    13     2    12    1
