@<TRIPOS>MOLECULE
1ilh_SRL_A_1.pdb
 33 33 0 0 0
SMALL
GASTEIGER

@<TRIPOS>ATOM
      1  C1         7.2600   75.3910    0.2230 C.ar    1  SRL1        0.0155
      2  C2         7.6440   76.7690   -0.0530 C.ar    1  SRL1        0.1876
      3  C3         8.9400   77.2330   -0.5420 C.ar    1  SRL1        0.0155
      4  C4         9.8790   76.1520   -0.7420 C.ar    1  SRL1       -0.0054
      5  C5         9.5780   74.8060   -0.4970 C.ar    1  SRL1       -0.0214
      6  C6         8.3010   74.4530   -0.0230 C.ar    1  SRL1       -0.0054
      7  C7        10.5460   73.7720   -0.7420 C.3     1  SRL1        0.0509
      8  C8        10.5930   73.1740   -1.9050 C.3     1  SRL1        0.2123
      9  P9        12.2960   72.8200   -2.5890 P.3     1  SRL1        0.3547
     10  P10        9.1700   72.8040   -2.9840 P.3     1  SRL1        0.3547
     11  O11        6.7340   77.6970    0.1470 O.3     1  SRL1       -0.2872
     12  C12        5.8780   74.9090    0.7400 C.3     1  SRL1        0.0220
     13  C13        9.4650   78.6780   -0.8700 C.3     1  SRL1        0.0220
     14  C14        4.7920   75.2300   -0.3350 C.3     1  SRL1        0.0045
     15  C15        5.5420   75.5990    2.0900 C.3     1  SRL1        0.0045
     16  C16        5.7640   73.3440    0.9770 C.3     1  SRL1        0.0045
     17  C17        9.8840   78.7470   -2.3880 C.3     1  SRL1        0.0045
     18  C18        8.4450   79.8630   -0.6570 C.3     1  SRL1        0.0045
     19  C19       10.7410   78.9920    0.0170 C.3     1  SRL1        0.0045
     20  O20       12.4250   71.3090   -2.6570 O.2     1  SRL1       -0.2571
     21  O21       13.3850   73.2560   -1.5050 O.3     1  SRL1       -0.2937
     22  C22       14.6900   73.4530   -2.0410 C.3     1  SRL1        0.1515
     23  C23       15.6620   73.8660   -0.9290 C.3     1  SRL1        0.0352
     24  O24       12.5910   73.2800   -4.0510 O.3     1  SRL1       -0.2937
     25  C25       12.2080   74.5900   -4.3710 C.3     1  SRL1        0.1515
     26  C26       12.5710   74.8790   -5.8240 C.3     1  SRL1        0.0352
     27  O27        7.8380   72.9420   -2.4490 O.2     1  SRL1       -0.2571
     28  O28        9.3040   73.7240   -4.2940 O.3     1  SRL1       -0.2937
     29  C29        8.0990   74.5040   -4.4970 C.3     1  SRL1        0.1515
     30  C30        8.2030   75.3670   -5.7280 C.3     1  SRL1        0.0352
     31  O31        9.3960   71.3430   -3.6100 O.3     1  SRL1       -0.2937
     32  C32        9.3360   70.3490   -2.6500 C.3     1  SRL1        0.1515
     33  C33        9.5650   69.0360   -3.3140 C.3     1  SRL1        0.0352
@<TRIPOS>BOND
     1    26    25    1
     2    30    29    1
     3    29    28    1
     4    25    24    1
     5    28    10    1
     6    24     9    1
     7    31    10    1
     8    31    32    1
     9    33    32    1
    10    10    27    2
    11    10     8    1
    12    20     9    2
    13     9     8    1
    14     9    21    1
    15    17    13    1
    16    22    21    1
    17    22    23    1
    18     8     7    1
    19    13    18    1
    20    13     3    1
    21    13    19    1
    22     4     3   ar
    23     4     5   ar
    24     7     5    1
    25     3     2   ar
    26     5     6   ar
    27    14    12    1
    28     2    11    1
    29     2     1   ar
    30     6     1   ar
    31     1    12    1
    32    12    16    1
    33    12    15    1
