@<TRIPOS>MOLECULE
1im2_ADP_A_1.pdb
 27 29 0 0 0
SMALL
GASTEIGER

@<TRIPOS>ATOM
      1  PB        24.7400   22.4620   17.5810 P.3   450  ADP450      0.5373
      2  O1B       24.4300   23.6450   16.7300 O.2   450  ADP450     -0.2221
      3  O2B       23.4790   21.7740   18.1870 O.3   450  ADP450     -0.1143
      4  O3B       25.6070   21.4260   16.9090 O.3   450  ADP450     -0.1143
      5  PA        26.1070   22.2680   20.1690 P.3   450  ADP450      0.2231
      6  O1A       24.9440   21.4900   20.6860 O.2   450  ADP450     -0.5169
      7  O2A       26.7470   23.2950   21.0200 O.3   450  ADP450     -0.4370
      8  O3A       25.5290   22.9820   18.8120 O.3   450  ADP450     -0.2261
      9  O5'       27.1890   21.1920   19.6880 O.3   450  ADP450     -0.3111
     10  C5'       28.4220   21.6690   19.1680 C.3   450  ADP450      0.1813
     11  C4'       29.6570   21.0640   19.8210 C.3   450  ADP450      0.1821
     12  O4'       30.7550   21.8790   19.2750 O.3   450  ADP450     -0.3135
     13  C3'       29.8230   21.2030   21.3410 C.3   450  ADP450      0.2184
     14  O3'       30.7350   20.1960   21.8500 O.3   450  ADP450     -0.2174
     15  C2'       30.5120   22.6120   21.5390 C.3   450  ADP450      0.2570
     16  O2'       31.4800   22.6320   22.6320 O.3   450  ADP450     -0.2130
     17  C1'       31.2890   22.8170   20.2140 C.3   450  ADP450      0.3186
     18  N9        31.0190   24.2300   19.6500 N.pl3 450  ADP450     -0.1439
     19  C8        30.2840   24.5430   18.5850 C.3   450  ADP450      0.3377
     20  N7        30.2200   25.8010   18.3600 N.2   450  ADP450     -0.2095
     21  C5        30.9730   26.3800   19.3660 C.2   450  ADP450      0.2526
     22  C6        31.3210   27.7420   19.7100 C.2   450  ADP450      0.4393
     23  N6        30.8980   28.8160   18.9850 N.pl3 450  ADP450      0.2180
     24  N1        32.1080   27.9440   20.8100 N.2   450  ADP450      0.0021
     25  C2        32.5310   26.8870   21.5260 C.3   450  ADP450      0.5254
     26  N3        32.2570   25.5820   21.2780 N.2   450  ADP450     -0.0055
     27  C4        31.4740   25.3990   20.1850 C.2   450  ADP450      0.3518
@<TRIPOS>BOND
     1     2     1    2
     2     4     1    1
     3     1     3    1
     4     1     8    1
     5    20    19    1
     6    20    21    2
     7    19    18    1
     8     8     5    1
     9    23    22    1
    10    10     9    1
    11    10    11    1
    12    12    11    1
    13    12    17    1
    14    21    22    1
    15    21    27    1
    16    18    27    1
    17    18    17    1
    18     9     5    1
    19    22    24    2
    20    11    13    1
    21     5     6    2
    22     5     7    1
    23    27    26    2
    24    17    15    1
    25    24    25    1
    26    26    25    1
    27    13    15    1
    28    13    14    1
    29    15    16    1
