@<TRIPOS>MOLECULE
1im8_SAI_A_1.pdb
 26 28 0 0 0
SMALL
GASTEIGER

@<TRIPOS>ATOM
      1  N          5.8370   16.6790    5.5610 N.3   302  SAI302      0.0000
      2  CA         4.7030   16.7040    4.6180 C.3   302  SAI302      0.0000
      3  CB         5.2740   16.6480    3.1680 C.3   302  SAI302      0.0000
      4  CG         6.2580   17.8020    2.9820 C.3   302  SAI302      0.0000
      5 SE          6.1510   18.8120    1.3100 Se    302  SAI302      0.0000
      6  C          3.6910   15.5130    4.8730 C.2   302  SAI302      0.0000
      7  O          4.0070   14.6280    5.7070 O.co2 302  SAI302      0.0000
      8  OXT        2.6530   15.4350    4.1920 O.co2 302  SAI302      0.0000
      9  C5'        7.6040   20.0560    1.7820 C.3   302  SAI302      0.0000
     10  C4'        7.2590   21.0900    2.8480 C.3   302  SAI302      0.0000
     11  O4'        8.4780   21.8130    3.0890 O.3   302  SAI302      0.0000
     12  C3'        6.1660   22.2420    2.4390 C.3   302  SAI302      0.0000
     13  O3'        4.8850   22.2980    3.1400 O.3   302  SAI302      0.0000
     14  C2'        7.0470   23.5270    2.6020 C.3   302  SAI302      0.0000
     15  O2'        6.3820   24.7630    2.9110 O.3   302  SAI302      0.0000
     16  C1'        8.0750   23.0700    3.6310 C.3   302  SAI302      0.0000
     17  N9         9.3990   23.7420    3.7400 N.pl3 302  SAI302      0.5000
     18  C8        10.4180   23.8370    2.7150 C.3   302  SAI302      0.0000
     19  N7        11.4700   24.4670    3.1590 N.2   302  SAI302      0.0000
     20  C5        11.1910   24.8160    4.4900 C.2   302  SAI302      0.0000
     21  C6        11.9260   25.4860    5.4770 C.2   302  SAI302      0.0000
     22  N6        13.1490   25.9190    5.2150 N.pl3 302  SAI302      0.5000
     23  N1        11.4070   25.6930    6.7430 N.2   302  SAI302      0.5000
     24  C2        10.1670   25.2360    6.9750 C.3   302  SAI302      0.0000
     25  N3         9.3640   24.5950    6.1390 N.2   302  SAI302      0.5000
     26  C4         9.9250   24.4010    4.8830 C.2   302  SAI302      0.0000
@<TRIPOS>BOND
     1     5     9    1
     2     5     4    1
     3     9    10    1
     4    12    14    1
     5    12    10    1
     6    12    13    1
     7    14    15    1
     8    14    16    1
     9    18    19    1
    10    18    17    1
    11    10    11    1
    12     4     3    1
    13    11    16    1
    14    19    20    2
    15     3     2    1
    16    16    17    1
    17    17    26    1
    18     8     6   ar
    19    20    26    1
    20    20    21    1
    21     2     6    1
    22     2     1    1
    23     6     7   ar
    24    26    25    2
    25    22    21    1
    26    21    23    2
    27    25    24    1
    28    23    24    1
