@<TRIPOS>MOLECULE
1ima_IPD_A_1.pdb
 16 16 0 0 0
SMALL
GASTEIGER

@<TRIPOS>ATOM
      1  C1         5.6160   52.8830   12.7710 C.3   279  IPD279      0.1919
      2  C2         4.9570   53.3380   14.0940 C.3   279  IPD279      0.2148
      3  C3         4.3630   52.1330   14.8630 C.3   279  IPD279      0.2174
      4  C4         5.3960   51.0080   15.0780 C.3   279  IPD279      0.2175
      5  C5         6.0960   50.6020   13.7620 C.3   279  IPD279      0.2174
      6  C6         6.6960   51.8240   13.0550 C.3   279  IPD279      0.2148
      7  P1         5.5130   54.5640   10.7660 P.3   279  IPD279      0.5327
      8  O1         6.1940   54.0350   12.0620 O.3   279  IPD279     -0.2673
      9  O2         5.8980   54.0210   14.9280 O.3   279  IPD279     -0.2176
     10  O3         3.8970   52.5790   16.1320 O.3   279  IPD279     -0.2175
     11  O4         4.7470   49.8690   15.6530 O.3   279  IPD279     -0.2175
     12  O5         7.1300   49.6590   14.0410 O.3   279  IPD279     -0.2175
     13  O6         7.3160   51.4140   11.8250 O.3   279  IPD279     -0.2176
     14  O7         6.2340   55.7370   10.2170 O.3   279  IPD279     -0.1145
     15  O8         5.4760   53.3940    9.7810 O.2   279  IPD279     -0.2224
     16  O9         4.0740   54.9000   11.0900 O.3   279  IPD279     -0.1145
@<TRIPOS>BOND
     1    15     7    2
     2    14     7    1
     3     7    16    1
     4     7     8    1
     5    13     6    1
     6     8     1    1
     7     1     6    1
     8     1     2    1
     9     6     5    1
    10     5    12    1
    11     5     4    1
    12     2     3    1
    13     2     9    1
    14     3     4    1
    15     3    10    1
    16     4    11    1
