@<TRIPOS>MOLECULE
1imb_LIP_A_1.pdb
 16 16 0 0 0
SMALL
GASTEIGER

@<TRIPOS>ATOM
      1  C1         5.1470   52.8980   13.0920 C.3   279  LIP279      0.1919
      2  C2         5.8670   52.8100   14.4680 C.3   279  LIP279      0.2148
      3  C3         5.2050   51.8040   15.4280 C.3   279  LIP279      0.2174
      4  C4         5.1130   50.4220   14.8000 C.3   279  LIP279      0.2175
      5  C5         4.3680   50.4830   13.4640 C.3   279  LIP279      0.2174
      6  C6         5.0910   51.4540   12.4840 C.3   279  LIP279      0.2148
      7  P1         5.2330   54.3830   10.9070 P.3   279  LIP279      0.5327
      8  O1         5.8910   53.7990   12.2140 O.3   279  LIP279     -0.2673
      9  O2         5.9070   54.0840   15.0880 O.3   279  LIP279     -0.2176
     10  O3         5.9780   51.7320   16.6350 O.3   279  LIP279     -0.2175
     11  O4         4.4390   49.5310   15.6830 O.3   279  LIP279     -0.2175
     12  O5         4.3020   49.1680   12.8990 O.3   279  LIP279     -0.2175
     13  O6         6.4270   50.9850   12.2420 O.3   279  LIP279     -0.2176
     14  O7         3.9410   54.9830   11.1610 O.3   279  LIP279     -0.1145
     15  O8         6.2430   55.3780   10.3400 O.3   279  LIP279     -0.1145
     16  O9         5.1650   53.2710    9.8540 O.2   279  LIP279     -0.2224
@<TRIPOS>BOND
     1    16     7    2
     2    15     7    1
     3     7    14    1
     4     7     8    1
     5     8     1    1
     6    13     6    1
     7     6     1    1
     8     6     5    1
     9    12     5    1
    10     1     2    1
    11     5     4    1
    12     2     9    1
    13     2     3    1
    14     4     3    1
    15     4    11    1
    16     3    10    1
