@<TRIPOS>MOLECULE
1in4_ADP_A_1.pdb
 27 29 0 0 0
SMALL
GASTEIGER

@<TRIPOS>ATOM
      1  PB        66.0090  -19.4610  -26.3280 P.3   700  ADP700      0.5373
      2  O1B       65.5710  -19.2330  -24.9430 O.3   700  ADP700     -0.1143
      3  O2B       65.5310  -18.3760  -27.3330 O.2   700  ADP700     -0.2221
      4  O3B       67.5300  -19.6510  -26.4820 O.3   700  ADP700     -0.1143
      5  PA        64.5670  -21.4300  -27.9710 P.3   700  ADP700      0.2231
      6  O1A       63.1970  -20.8240  -27.9990 O.3   700  ADP700     -0.4370
      7  O2A       65.3300  -21.2210  -29.2250 O.2   700  ADP700     -0.5169
      8  O3A       65.4760  -20.8460  -26.7480 O.3   700  ADP700     -0.2261
      9  O5'       64.4940  -22.9640  -27.6430 O.3   700  ADP700     -0.3111
     10  C5'       65.3280  -24.0920  -27.6930 C.3   700  ADP700      0.1813
     11  C4'       64.8980  -25.2920  -28.2340 C.3   700  ADP700      0.1821
     12  O4'       64.2220  -25.8570  -27.1670 O.3   700  ADP700     -0.3135
     13  C3'       63.7090  -25.1570  -29.2120 C.3   700  ADP700      0.2184
     14  O3'       64.1150  -26.1860  -30.1100 O.3   700  ADP700     -0.2174
     15  C2'       62.4670  -25.6060  -28.6850 C.3   700  ADP700      0.2570
     16  O2'       61.6290  -26.0580  -29.7610 O.3   700  ADP700     -0.2130
     17  C1'       62.9160  -26.0990  -27.2390 C.3   700  ADP700      0.3186
     18  N9        62.0570  -25.6920  -26.2390 N.pl3 700  ADP700     -0.1439
     19  C8        62.0990  -24.5940  -25.4430 C.3   700  ADP700      0.3377
     20  N7        61.1790  -24.5220  -24.6110 N.2   700  ADP700     -0.2095
     21  C5        60.4450  -25.6390  -24.8280 C.2   700  ADP700      0.2526
     22  C6        59.2360  -26.1880  -24.1980 C.2   700  ADP700      0.4393
     23  N6        58.6450  -25.5310  -23.1670 N.pl3 700  ADP700      0.2180
     24  N1        58.6970  -27.4140  -24.6770 N.2   700  ADP700      0.0021
     25  C2        59.3290  -28.0790  -25.7360 C.3   700  ADP700      0.5254
     26  N3        60.4720  -27.6320  -26.3730 N.2   700  ADP700     -0.0055
     27  C4        60.9730  -26.4090  -25.8730 C.2   700  ADP700      0.3518
@<TRIPOS>BOND
     1    14    13    1
     2    16    15    1
     3     7     5    2
     4    13    15    1
     5    13    11    1
     6    15    17    1
     7    11    10    1
     8    11    12    1
     9     6     5    1
    10     5     9    1
    11     5     8    1
    12    10     9    1
    13     3     1    2
    14    17    12    1
    15    17    18    1
    16     8     1    1
    17     4     1    1
    18    26    27    2
    19    26    25    1
    20     1     2    1
    21    18    27    1
    22    18    19    1
    23    27    21    1
    24    25    24    1
    25    19    20    1
    26    21    20    2
    27    21    22    1
    28    24    22    2
    29    22    23    1
