@<TRIPOS>MOLECULE
1in5_ADP_A_1.pdb
 27 29 0 0 0
SMALL
GASTEIGER

@<TRIPOS>ATOM
      1  PB        65.9050  -19.4100  -25.7360 P.3   600  ADP600      0.5373
      2  O1B       65.4660  -19.1620  -24.3510 O.3   600  ADP600     -0.1143
      3  O2B       65.4720  -18.3330  -26.7530 O.2   600  ADP600     -0.2221
      4  O3B       67.4440  -19.5920  -25.8300 O.3   600  ADP600     -0.1143
      5  PA        64.5030  -21.3590  -27.4350 P.3   600  ADP600      0.2231
      6  O1A       63.1200  -20.8090  -27.4680 O.3   600  ADP600     -0.4370
      7  O2A       65.2710  -21.0810  -28.6470 O.2   600  ADP600     -0.5169
      8  O3A       65.3890  -20.7870  -26.1740 O.3   600  ADP600     -0.2261
      9  O5'       64.4950  -22.9140  -27.1690 O.3   600  ADP600     -0.3111
     10  C5'       65.3150  -24.0200  -27.3580 C.3   600  ADP600      0.1813
     11  C4'       64.8610  -25.1800  -27.9200 C.3   600  ADP600      0.1821
     12  O4'       64.2120  -25.7770  -26.8720 O.3   600  ADP600     -0.3135
     13  C3'       63.6700  -25.0440  -28.8990 C.3   600  ADP600      0.2184
     14  O3'       64.0600  -26.0460  -29.7850 O.3   600  ADP600     -0.2174
     15  C2'       62.4420  -25.5010  -28.3600 C.3   600  ADP600      0.2570
     16  O2'       61.6030  -25.9350  -29.4610 O.3   600  ADP600     -0.2130
     17  C1'       62.9230  -26.0250  -26.9250 C.3   600  ADP600      0.3186
     18  N9        62.1080  -25.6180  -25.8850 N.pl3 600  ADP600     -0.1439
     19  C8        62.1840  -24.5250  -25.0700 C.3   600  ADP600      0.3377
     20  N7        61.2750  -24.4480  -24.2130 N.2   600  ADP600     -0.2095
     21  C5        60.5110  -25.5600  -24.4420 C.2   600  ADP600      0.2526
     22  C6        59.2940  -26.0990  -23.8260 C.2   600  ADP600      0.4393
     23  N6        58.7060  -25.4630  -22.7830 N.pl3 600  ADP600      0.2180
     24  N1        58.7340  -27.3060  -24.3180 N.2   600  ADP600      0.0021
     25  C2        59.3350  -27.9650  -25.3930 C.3   600  ADP600      0.5254
     26  N3        60.4810  -27.5240  -26.0280 N.2   600  ADP600     -0.0055
     27  C4        61.0090  -26.3080  -25.5230 C.2   600  ADP600      0.3518
@<TRIPOS>BOND
     1    14    13    1
     2    16    15    1
     3    13    15    1
     4    13    11    1
     5     7     5    2
     6    15    17    1
     7    11    10    1
     8    11    12    1
     9     6     5    1
    10     5     9    1
    11     5     8    1
    12    10     9    1
    13    17    12    1
    14    17    18    1
    15     3     1    2
    16     8     1    1
    17    26    27    2
    18    26    25    1
    19    18    27    1
    20    18    19    1
    21     4     1    1
    22     1     2    1
    23    27    21    1
    24    25    24    1
    25    19    20    1
    26    21    20    2
    27    21    22    1
    28    24    22    2
    29    22    23    1
