@<TRIPOS>MOLECULE
1in6_ADP_A_1.pdb
 27 29 0 0 0
SMALL
GASTEIGER

@<TRIPOS>ATOM
      1  PB        65.8360  -19.5180  -26.1900 P.3   700  ADP700      0.5373
      2  O1B       65.3640  -19.2640  -24.8170 O.3   700  ADP700     -0.1143
      3  O2B       65.3860  -18.4390  -27.1970 O.2   700  ADP700     -0.2221
      4  O3B       67.3730  -19.6550  -26.2410 O.3   700  ADP700     -0.1143
      5  PA        64.3700  -21.4910  -27.8110 P.3   700  ADP700      0.2231
      6  O1A       63.0260  -20.8730  -27.7800 O.3   700  ADP700     -0.4370
      7  O2A       65.0630  -21.3400  -29.1030 O.2   700  ADP700     -0.5169
      8  O3A       65.3000  -20.8940  -26.6080 O.3   700  ADP700     -0.2261
      9  O5'       64.3040  -23.0270  -27.4380 O.3   700  ADP700     -0.3111
     10  C5'       65.0830  -24.1720  -27.4950 C.3   700  ADP700      0.1813
     11  C4'       64.6070  -25.3340  -28.0500 C.3   700  ADP700      0.1821
     12  O4'       63.9130  -25.9160  -27.0070 O.3   700  ADP700     -0.3135
     13  C3'       63.4490  -25.1600  -29.0570 C.3   700  ADP700      0.2184
     14  O3'       63.8280  -26.1880  -29.9200 O.3   700  ADP700     -0.2174
     15  C2'       62.1880  -25.5750  -28.5460 C.3   700  ADP700      0.2570
     16  O2'       61.3650  -25.9720  -29.6660 O.3   700  ADP700     -0.2130
     17  C1'       62.6070  -26.1230  -27.0960 C.3   700  ADP700      0.3186
     18  N9        61.7710  -25.6790  -26.0880 N.pl3 700  ADP700     -0.1439
     19  C8        61.8590  -24.5630  -25.3200 C.3   700  ADP700      0.3377
     20  N7        60.9550  -24.4370  -24.4760 N.2   700  ADP700     -0.2095
     21  C5        60.1640  -25.5390  -24.6630 C.2   700  ADP700      0.2526
     22  C6        58.9470  -26.0310  -24.0150 C.2   700  ADP700      0.4393
     23  N6        58.3920  -25.3200  -23.0020 N.pl3 700  ADP700      0.2180
     24  N1        58.3430  -27.2450  -24.4480 N.2   700  ADP700      0.0021
     25  C2        58.9300  -27.9640  -25.4890 C.3   700  ADP700      0.5254
     26  N3        60.0910  -27.5700  -26.1500 N.2   700  ADP700     -0.0055
     27  C4        60.6600  -26.3500  -25.6920 C.2   700  ADP700      0.3518
@<TRIPOS>BOND
     1    14    13    1
     2    16    15    1
     3     7     5    2
     4    13    15    1
     5    13    11    1
     6    15    17    1
     7    11    10    1
     8    11    12    1
     9     5     6    1
    10     5     9    1
    11     5     8    1
    12    10     9    1
    13     3     1    2
    14    17    12    1
    15    17    18    1
    16     8     1    1
    17     4     1    1
    18     1     2    1
    19    26    27    2
    20    26    25    1
    21    18    27    1
    22    18    19    1
    23    27    21    1
    24    25    24    1
    25    19    20    1
    26    21    20    2
    27    21    22    1
    28    24    22    2
    29    22    23    1
