@<TRIPOS>MOLECULE
1in7_ADP_A_1.pdb
 27 29 0 0 0
SMALL
GASTEIGER

@<TRIPOS>ATOM
      1  PB        65.9070  -19.4010  -26.1720 P.3   600  ADP600      0.5373
      2  O1B       65.5430  -19.1550  -24.7790 O.3   600  ADP600     -0.1143
      3  O2B       65.3710  -18.3310  -27.1460 O.2   600  ADP600     -0.2221
      4  O3B       67.4450  -19.5700  -26.3710 O.3   600  ADP600     -0.1143
      5  PA        64.4280  -21.3750  -27.7850 P.3   600  ADP600      0.2231
      6  O1A       63.0570  -20.7850  -27.7680 O.3   600  ADP600     -0.4370
      7  O2A       65.1360  -21.1160  -29.0420 O.2   600  ADP600     -0.5169
      8  O3A       65.3910  -20.7840  -26.5810 O.3   600  ADP600     -0.2261
      9  O5'       64.4160  -22.9240  -27.5010 O.3   600  ADP600     -0.3111
     10  C5'       65.1980  -24.0380  -27.7060 C.3   600  ADP600      0.1813
     11  C4'       64.7240  -25.2060  -28.2380 C.3   600  ADP600      0.1821
     12  O4'       64.0880  -25.8030  -27.1730 O.3   600  ADP600     -0.3135
     13  C3'       63.5220  -25.0930  -29.2010 C.3   600  ADP600      0.2184
     14  O3'       63.9010  -26.1240  -30.0440 O.3   600  ADP600     -0.2174
     15  C2'       62.2990  -25.5470  -28.6360 C.3   600  ADP600      0.2570
     16  O2'       61.4290  -25.9990  -29.7070 O.3   600  ADP600     -0.2130
     17  C1'       62.8020  -26.0630  -27.2110 C.3   600  ADP600      0.3186
     18  N9        61.9900  -25.6530  -26.1920 N.pl3 600  ADP600     -0.1439
     19  C8        62.0760  -24.5610  -25.3830 C.3   600  ADP600      0.3377
     20  N7        61.1740  -24.4740  -24.5250 N.2   600  ADP600     -0.2095
     21  C5        60.4030  -25.5860  -24.7380 C.2   600  ADP600      0.2526
     22  C6        59.1990  -26.1040  -24.1010 C.2   600  ADP600      0.4393
     23  N6        58.6470  -25.4320  -23.0630 N.pl3 600  ADP600      0.2180
     24  N1        58.6190  -27.3170  -24.5670 N.2   600  ADP600      0.0021
     25  C2        59.2040  -27.9950  -25.6340 C.3   600  ADP600      0.5254
     26  N3        60.3450  -27.5660  -26.2930 N.2   600  ADP600     -0.0055
     27  C4        60.8990  -26.3570  -25.8000 C.2   600  ADP600      0.3518
@<TRIPOS>BOND
     1    14    13    1
     2    16    15    1
     3    13    15    1
     4    13    11    1
     5     7     5    2
     6    15    17    1
     7    11    10    1
     8    11    12    1
     9     5     6    1
    10     5     9    1
    11     5     8    1
    12    10     9    1
    13    17    12    1
    14    17    18    1
    15     3     1    2
    16     8     1    1
    17     4     1    1
    18    26    27    2
    19    26    25    1
    20    18    27    1
    21    18    19    1
    22     1     2    1
    23    27    21    1
    24    25    24    1
    25    19    20    1
    26    21    20    2
    27    21    22    1
    28    24    22    2
    29    22    23    1
