@<TRIPOS>MOLECULE
1in8_ADP_A_1.pdb
 27 29 0 0 0
SMALL
GASTEIGER

@<TRIPOS>ATOM
      1  PB        65.9920  -19.3850  -26.1700 P.3   700  ADP700      0.5373
      2  O1B       65.5680  -19.1450  -24.7810 O.3   700  ADP700     -0.1143
      3  O2B       65.5400  -18.2860  -27.1710 O.2   700  ADP700     -0.2221
      4  O3B       67.5060  -19.5520  -26.3000 O.3   700  ADP700     -0.1143
      5  PA        64.5450  -21.3500  -27.8660 P.3   700  ADP700      0.2231
      6  O1A       63.1810  -20.7700  -27.8800 O.3   700  ADP700     -0.4370
      7  O2A       65.3050  -21.1400  -29.0980 O.2   700  ADP700     -0.5169
      8  O3A       65.4530  -20.7710  -26.6210 O.3   700  ADP700     -0.2261
      9  O5'       64.4930  -22.8950  -27.5320 O.3   700  ADP700     -0.3111
     10  C5'       65.3210  -24.0050  -27.5930 C.3   700  ADP700      0.1813
     11  C4'       64.8870  -25.1850  -28.1580 C.3   700  ADP700      0.1821
     12  O4'       64.1860  -25.7720  -27.1330 O.3   700  ADP700     -0.3135
     13  C3'       63.7540  -25.0510  -29.1740 C.3   700  ADP700      0.2184
     14  O3'       64.1550  -26.1360  -29.9780 O.3   700  ADP700     -0.2174
     15  C2'       62.4910  -25.4390  -28.6720 C.3   700  ADP700      0.2570
     16  O2'       61.6710  -25.8000  -29.7980 O.3   700  ADP700     -0.2130
     17  C1'       62.8920  -25.9940  -27.2250 C.3   700  ADP700      0.3186
     18  N9        62.0510  -25.5690  -26.2080 N.pl3 700  ADP700     -0.1439
     19  C8        62.1400  -24.4750  -25.4020 C.3   700  ADP700      0.3377
     20  N7        61.2200  -24.3790  -24.5480 N.2   700  ADP700     -0.2095
     21  C5        60.4430  -25.4740  -24.7700 C.2   700  ADP700      0.2526
     22  C6        59.2250  -25.9990  -24.1380 C.2   700  ADP700      0.4393
     23  N6        58.6510  -25.3360  -23.1060 N.pl3 700  ADP700      0.2180
     24  N1        58.6470  -27.2020  -24.6150 N.2   700  ADP700      0.0021
     25  C2        59.2430  -27.8830  -25.6740 C.3   700  ADP700      0.5254
     26  N3        60.3880  -27.4600  -26.3170 N.2   700  ADP700     -0.0055
     27  C4        60.9520  -26.2560  -25.8210 C.2   700  ADP700      0.3518
@<TRIPOS>BOND
     1    14    13    1
     2    16    15    1
     3    13    15    1
     4    13    11    1
     5     7     5    2
     6    15    17    1
     7    11    10    1
     8    11    12    1
     9     6     5    1
    10     5     9    1
    11     5     8    1
    12    10     9    1
    13    17    12    1
    14    17    18    1
    15     3     1    2
    16     8     1    1
    17    26    27    2
    18    26    25    1
    19     4     1    1
    20    18    27    1
    21    18    19    1
    22     1     2    1
    23    27    21    1
    24    25    24    1
    25    19    20    1
    26    21    20    2
    27    21    22    1
    28    24    22    2
    29    22    23    1
