@<TRIPOS>MOLECULE
1inc_ICL_A_1.pdb
 24 24 0 0 0
SMALL
GASTEIGER

@<TRIPOS>ATOM
      1  C1        -8.9960   23.0670   37.9320 C.2   260  ICL260      0.2363
      2  O1        -8.3630   22.0120   38.0610 O.2   260  ICL260     -0.2831
      3  C2       -10.1330   23.2110   37.1540 C.ar  260  ICL260      0.0681
      4  C3       -11.1320   24.0910   37.6090 C.ar  260  ICL260      0.0621
      5 CL        -10.8240   25.0840   38.8990 Cl    260  ICL260     -0.0821
      6  C4       -12.3700   24.0940   36.9590 C.ar  260  ICL260      0.0116
      7  C5       -12.5750   23.2980   35.8160 C.ar  260  ICL260      0.0022
      8  C6       -11.5620   22.4680   35.3270 C.ar  260  ICL260      0.0168
      9  C7       -10.3410   22.4040   35.9910 C.ar  260  ICL260      0.0774
     10  N1        -9.3560   21.7460   35.2840 N.am  260  ICL260     -0.1776
     11  C8        -8.1010   22.2410   35.1240 C.2   260  ICL260      0.2655
     12  O2        -7.7730   23.4010   35.4460 O.2   260  ICL260     -0.2711
     13  C9        -7.1340   21.5450   34.1840 C.3   260  ICL260      0.1764
     14  C10       -6.2000   20.7240   35.1080 C.3   260  ICL260      0.0291
     15  C11       -4.7220   20.9070   34.7410 C.3   260  ICL260      0.0023
     16  C12       -6.6380   19.2570   35.1590 C.3   260  ICL260      0.0023
     17  N2        -6.3520   22.6080   33.4580 N.am  260  ICL260     -0.1611
     18  C13       -6.6410   23.0840   32.2170 C.2   260  ICL260      0.4213
     19  O3        -7.5490   22.6600   31.4700 O.2   260  ICL260     -0.2246
     20  O4        -5.8010   24.0860   31.9550 O.3   260  ICL260     -0.4408
     21  C14       -5.9300   24.8150   30.6550 C.3   260  ICL260      0.1379
     22  C15       -7.3650   25.3830   30.4960 C.3   260  ICL260      0.0437
     23  C16       -5.5730   23.9320   29.4390 C.3   260  ICL260      0.0437
     24  C17       -4.9110   25.9710   30.7100 C.3   260  ICL260      0.0437
@<TRIPOS>BOND
     1    23    21    1
     2    22    21    1
     3    21    24    1
     4    21    20    1
     5    19    18    2
     6    20    18    1
     7    18    17   am
     8    17    13    1
     9    13    14    1
    10    13    11    1
    11    15    14    1
    12    14    16    1
    13    11    10   am
    14    11    12    2
    15    10     9    1
    16     8     7   ar
    17     8     9   ar
    18     7     6   ar
    19     9     3   ar
    20     6     4   ar
    21     3     4   ar
    22     3     1    1
    23     4     5    1
    24     1     2    2
