@<TRIPOS>MOLECULE
1ind_EOT_H_1.pdb
 34 34 0 0 0
SMALL
GASTEIGER

@<TRIPOS>ATOM
      1  C15       61.6180    1.3390   37.4210 C.ar  801  EOT801      0.0724
      2  C16       60.9970    2.4350   38.0310 C.ar  801  EOT801      0.0162
      3  C17       59.9180    2.2660   38.8940 C.ar  801  EOT801     -0.0029
      4  C12       59.4470    0.9830   39.1620 C.ar  801  EOT801     -0.0207
      5  C13       60.0610   -0.1080   38.5600 C.ar  801  EOT801     -0.0029
      6  C14       61.1320    0.0680   37.6960 C.ar  801  EOT801      0.0162
      7  N3        62.6520    1.4380   36.5750 N.am  801  EOT801     -0.1906
      8  C18       63.8050    2.0520   36.8620 C.2   801  EOT801      0.1745
      9  S1        64.1550    2.6720   38.3770 S.2   801  EOT801     -0.0152
     10  N4        64.6880    2.1430   35.8780 N.am  801  EOT801     -0.2137
     11  C19       65.9650    2.8440   36.0550 C.3   801  EOT801      0.1496
     12  C20       66.3530    3.5290   34.7390 C.3   801  EOT801      0.2054
     13  O9        67.6080    4.1680   34.9190 O.3   801  EOT801     -0.2184
     14  C11       58.3030    0.7790   40.0730 C.3   801  EOT801      0.0437
     15  C1        56.9020    1.0440   39.4940 C.3   801  EOT801      0.0788
     16  C2        56.4870   -0.1220   38.5490 C.3   801  EOT801      0.0894
     17  N1        55.8850    1.1730   40.5680 N.3   801  EOT801     -0.2533
     18  C9        55.9110    2.4720   41.2660 C.3   801  EOT801      0.1882
     19  C10       55.4600    3.6140   40.3650 C.2   801  EOT801      0.3809
     20  O7        54.5060    3.2880   39.4710 O.co2 801  EOT801     -0.2441
     21  O8        55.9870    4.7200   40.4260 O.co2 801  EOT801     -0.2441
     22  C7        55.9170    0.0200   41.4600 C.3   801  EOT801      0.1882
     23  C8        54.6780    0.0350   42.3430 C.2   801  EOT801      0.3809
     24  O5        53.6000    0.6140   41.7730 O.co2 801  EOT801     -0.2441
     25  O6        54.7110   -0.3880   43.4970 O.co2 801  EOT801     -0.2441
     26  N2        55.1520    0.0110   37.9400 N.3   801  EOT801     -0.2524
     27  C5        54.6750   -1.3530   37.6030 C.3   801  EOT801      0.1882
     28  C6        53.3180   -1.7070   38.2250 C.2   801  EOT801      0.3809
     29  O3        52.9780   -1.0160   39.3240 O.co2 801  EOT801     -0.2441
     30  O4        52.6100   -2.5970   37.7540 O.co2 801  EOT801     -0.2441
     31  C3        55.1460    0.8730   36.7330 C.3   801  EOT801      0.1882
     32  C4        53.7340    1.3060   36.3600 C.2   801  EOT801      0.3809
     33  O1        52.8470    1.2220   37.3740 O.co2 801  EOT801     -0.2441
     34  O2        53.4350    1.6620   35.2190 O.co2 801  EOT801     -0.2441
@<TRIPOS>BOND
     1    12    13    1
     2    12    11    1
     3    34    32   ar
     4    10    11    1
     5    10     8    1
     6    32    31    1
     7    32    33   ar
     8     7     8    1
     9     7     1    1
    10    31    26    1
    11     8     9    2
    12     1     6   ar
    13     1     2   ar
    14    27    26    1
    15    27    28    1
    16     6     5   ar
    17    30    28   ar
    18    26    16    1
    19     2     3   ar
    20    28    29   ar
    21    16    15    1
    22     5     4   ar
    23     3     4   ar
    24     4    14    1
    25    20    19   ar
    26    15    14    1
    27    15    17    1
    28    19    21   ar
    29    19    18    1
    30    17    18    1
    31    17    22    1
    32    22    23    1
    33    24    23   ar
    34    23    25   ar
