@<TRIPOS>MOLECULE
1ine_EOT_H_1.pdb
 34 34 0 0 0
SMALL
GASTEIGER

@<TRIPOS>ATOM
      1  C15       61.6020    1.4810   37.7130 C.ar  801  EOT801      0.0724
      2  C16       61.1040    2.5130   38.5310 C.ar  801  EOT801      0.0162
      3  C17       60.0430    2.2800   39.4170 C.ar  801  EOT801     -0.0029
      4  C12       59.4670    1.0070   39.4960 C.ar  801  EOT801     -0.0207
      5  C13       59.9530   -0.0330   38.6920 C.ar  801  EOT801     -0.0029
      6  C14       61.0200    0.1970   37.8100 C.ar  801  EOT801      0.0162
      7  N3        62.6940    1.7830   36.9500 N.am  801  EOT801     -0.1906
      8  C18       63.8070    2.5280   37.1350 C.2   801  EOT801      0.1745
      9  S1        64.2320    3.2610   38.5880 S.2   801  EOT801     -0.0152
     10  N4        64.6370    2.5750   36.0800 N.am  801  EOT801     -0.2137
     11  C19       65.8650    3.3220   36.0840 C.3   801  EOT801      0.1496
     12  C20       66.3240    3.4050   34.6370 C.3   801  EOT801      0.2054
     13  O9        67.6330    3.9520   34.5840 O.3   801  EOT801     -0.2184
     14  C11       58.3390    0.6830   40.3310 C.3   801  EOT801      0.0437
     15  C1        57.0240    1.0070   39.5200 C.3   801  EOT801      0.0788
     16  C2        56.6150   -0.2880   38.8820 C.3   801  EOT801      0.0894
     17  N1        56.0120    1.4550   40.5150 N.3   801  EOT801     -0.2533
     18  C9        56.1340    2.8590   40.8700 C.3   801  EOT801      0.1882
     19  C10       54.8260    3.6190   40.8680 C.2   801  EOT801      0.3809
     20  O7        53.8060    2.9360   40.4720 O.co2 801  EOT801     -0.2441
     21  O8        54.7660    4.7960   41.1970 O.co2 801  EOT801     -0.2441
     22  C7        56.0110    0.5570   41.7920 C.3   801  EOT801      0.1882
     23  C8        54.6860    0.1890   42.2910 C.2   801  EOT801      0.3809
     24  O5        53.6400    0.4980   41.5430 O.co2 801  EOT801     -0.2441
     25  O6        54.5190   -0.3130   43.3780 O.co2 801  EOT801     -0.2441
     26  N2        55.2330   -0.2120   38.3740 N.3   801  EOT801     -0.2524
     27  C5        54.6020   -1.5740   38.3210 C.3   801  EOT801      0.1882
     28  C6        53.1300   -1.5740   38.6030 C.2   801  EOT801      0.3809
     29  O3        52.7100   -0.5740   39.2980 O.co2 801  EOT801     -0.2441
     30  O4        52.3920   -2.5060   38.2450 O.co2 801  EOT801     -0.2441
     31  C3        55.1300    0.4730   37.0940 C.3   801  EOT801      0.1882
     32  C4        53.9400    1.2870   36.7870 C.2   801  EOT801      0.3809
     33  O1        53.2520    1.5930   37.8390 O.co2 801  EOT801     -0.2441
     34  O2        53.6290    1.6280   35.6650 O.co2 801  EOT801     -0.2441
@<TRIPOS>BOND
     1    13    12    1
     2    12    11    1
     3    34    32   ar
     4    10    11    1
     5    10     8    1
     6    32    31    1
     7    32    33   ar
     8     7     8    1
     9     7     1    1
    10    31    26    1
    11     8     9    2
    12     1     6   ar
    13     1     2   ar
    14     6     5   ar
    15    30    28   ar
    16    27    26    1
    17    27    28    1
    18    26    16    1
    19     2     3   ar
    20    28    29   ar
    21     5     4   ar
    22    16    15    1
    23     3     4   ar
    24     4    14    1
    25    15    14    1
    26    15    17    1
    27    20    19   ar
    28    17    18    1
    29    17    22    1
    30    19    18    1
    31    19    21   ar
    32    24    23   ar
    33    22    23    1
    34    23    25   ar
