@<TRIPOS>MOLECULE
1inf_NAG_A_1.pdb
 28 28 0 0 0
SMALL
GASTEIGER

@<TRIPOS>ATOM
      1  C1        40.4800  -18.2120   32.5200 C.3   467  NAG467      0.1078
      2  C2        41.0240  -19.6120   32.6180 C.3   467  NAG467      0.0801
      3  C3        42.5620  -19.7250   32.4750 C.3   467  NAG467      0.1043
      4  C4        43.2430  -18.3430   32.2040 C.3   467  NAG467      0.1110
      5  C5        42.4490  -17.3180   31.3370 C.3   467  NAG467      0.1104
      6  C6        42.8800  -17.4720   29.9030 C.3   467  NAG467      0.0729
      7  C7        40.8270  -21.3950   34.1870 C.2   467  NAG467      0.2103
      8  C8        40.5330  -21.8290   35.6050 C.3   467  NAG467      0.0122
      9  N2        40.7430  -20.0930   33.9470 N.am  467  NAG467     -0.3075
     10  O3        42.8810  -20.5920   31.4540 O.3   467  NAG467     -0.3872
     11  O4        43.4190  -17.6880   33.4590 O.3   467  NAG467     -0.3865
     12  O5        40.9920  -17.5390   31.3810 O.3   467  NAG467     -0.3639
     13  O6        42.0300  -16.6340   29.1330 O.3   467  NAG467     -0.3924
     14  O7        41.0990  -22.2060   33.3060 O.2   467  NAG467     -0.2761
     15  H1        40.8230  -17.5700   33.3500 H     467  NAG467      0.0642
     16  H2        40.5130  -20.2270   31.8550 H     467  NAG467      0.0551
     17  H3        43.0650  -20.1320   33.3640 H     467  NAG467      0.0639
     18  H4        44.2490  -18.5200   31.7830 H     467  NAG467      0.0646
     19  H5        42.6450  -16.2820   31.6620 H     467  NAG467      0.0646
     20  H61       42.7950  -18.5230   29.5820 H     467  NAG467      0.0584
     21  H62       43.9280  -17.1520   29.7800 H     467  NAG467      0.0584
     22  H81       40.3210  -20.9690   36.2590 H     467  NAG467      0.0322
     23  H82       41.3910  -22.3580   36.0310 H     467  NAG467      0.0322
     24  H83       39.6750  -22.5150   35.6280 H     467  NAG467      0.0322
     25  HN2       40.5160  -19.4540   34.6550 H     467  NAG467      0.1491
     26  HO3       42.4630  -21.4430   31.6710 H     467  NAG467      0.2100
     27  HO4       42.6010  -17.7650   33.9460 H     467  NAG467      0.2100
     28  HO6       41.1310  -16.7760   29.4570 H     467  NAG467      0.2095
@<TRIPOS>BOND
     1    13    28    1
     2    13     6    1
     3    20     6    1
     4    21     6    1
     5     6     5    1
     6     5    12    1
     7     5    19    1
     8     5     4    1
     9    12     1    1
    10    10    26    1
    11    10     3    1
    12    18     4    1
    13    16     2    1
    14     4     3    1
    15     4    11    1
    16     3     2    1
    17     3    17    1
    18     1     2    1
    19     1    15    1
    20     2     9    1
    21    14     7    2
    22    11    27    1
    23     9     7   am
    24     9    25    1
    25     7     8    1
    26     8    24    1
    27     8    23    1
    28     8    22    1
