@<TRIPOS>MOLECULE
1inf_ST4_A_1.pdb
 23 23 0 0 0
SMALL
GASTEIGER

@<TRIPOS>ATOM
      1  C'        33.1050  -12.4580   65.9980 C.2   471  ST4471      0.3878
      2  O1'       34.0300  -12.5250   66.8260 O.co2 471  ST4471     -0.2406
      3  O2'       32.3620  -13.4370   65.7300 O.co2 471  ST4471     -0.2406
      4  C1        32.8880  -11.2680   65.3080 C.ar  471  ST4471      0.0827
      5  C2        31.6060  -10.9310   64.8860 C.ar  471  ST4471      0.0413
      6  C3        31.3880   -9.8400   64.0720 C.ar  471  ST4471      0.1303
      7  N3        30.1070   -9.5670   63.6370 N.pl3 471  ST4471     -0.2441
      8  C3'       29.3990  -10.4570   62.9490 C.cat 471  ST4471      0.3459
      9  N1        28.1950  -10.1450   62.4930 N.pl3 471  ST4471     -0.2915
     10  N2        29.9080  -11.6440   62.6720 N.pl3 471  ST4471     -0.2915
     11  C4        32.4760   -9.0450   63.6690 C.ar  471  ST4471      0.0814
     12  N4        32.2970   -7.9780   62.7840 N.am  471  ST4471     -0.2817
     13  C4'       31.4600   -6.9730   63.0050 C.2   471  ST4471      0.2267
     14  O4        30.8700   -6.8440   64.0770 O.2   471  ST4471     -0.2748
     15  CM4       31.3110   -5.8990   61.9640 C.3   471  ST4471      0.0949
     16  C5        33.7490   -9.3650   64.1120 C.ar  471  ST4471      0.0177
     17  C6        33.9470  -10.4570   64.9240 C.ar  471  ST4471      0.0080
     18  HN3       29.6830   -8.7040   63.8270 H     471  ST4471      0.2648
     19 HN11       27.6700  -10.8230   61.9850 H     471  ST4471      0.2546
     20 HN12       27.8050   -9.2390   62.6610 H     471  ST4471      0.2546
     21 HN21       30.8260  -11.8940   62.9700 H     471  ST4471      0.2546
     22 HN22       29.3690  -12.3020   62.1480 H     471  ST4471      0.2546
     23  HN4       32.8030   -7.9310   61.9550 H     471  ST4471      0.1549
@<TRIPOS>BOND
     1    23    12    1
     2    15    13    1
     3    19     9    1
     4    22    10    1
     5     9    20    1
     6     9     8    2
     7    10     8    1
     8    10    21    1
     9    12    13   am
    10    12    11    1
    11     8     7    1
    12    13    14    2
    13     7    18    1
    14     7     6    1
    15    11     6   ar
    16    11    16   ar
    17     6     5   ar
    18    16    17   ar
    19     5     4   ar
    20    17     4   ar
    21     4     1    1
    22     3     1   ar
    23     1     2   ar
