@<TRIPOS>MOLECULE
1ing_ST5_A_1.pdb
 23 23 0 0 0
SMALL
GASTEIGER

@<TRIPOS>ATOM
      1  C'        49.1170   23.6840  -20.5200 C.2   471  ST5471      0.3878
      2  O1'       49.0720   23.8560  -19.2830 O.co2 471  ST5471     -0.2406
      3  O2'       49.9160   24.3120  -21.2490 O.co2 471  ST5471     -0.2406
      4  C1        48.2720   22.7390  -21.1080 C.ar  471  ST5471      0.0811
      5  C2        48.0070   22.7710  -22.4760 C.ar  471  ST5471      0.0225
      6  C3        47.1870   21.8180  -23.0800 C.ar  471  ST5471      0.0642
      7  N3        46.8880   21.9360  -24.4280 N.am  471  ST5471     -0.2816
      8  C3'       46.2500   23.0170  -24.8760 C.2   471  ST5471      0.2428
      9  O3        45.3990   23.6120  -24.2160 O.2   471  ST5471     -0.2730
     10  CM3       46.5820   23.4910  -26.2740 C.3   471  ST5471      0.1205
     11  O3'       45.8390   24.6660  -26.5730 O.3   471  ST5471     -0.3858
     12  C4        46.6210   20.8020  -22.2960 C.ar  471  ST5471      0.0640
     13  N4        45.8390   19.8040  -22.8530 N.am  471  ST5471     -0.2829
     14  C4'       46.3160   18.9890  -23.7950 C.2   471  ST5471      0.2266
     15  O4        47.4860   19.0580  -24.1850 O.2   471  ST5471     -0.2748
     16  CM4       45.4180   17.9120  -24.3710 C.3   471  ST5471      0.0949
     17  C5        46.8820   20.7720  -20.9330 C.ar  471  ST5471      0.0161
     18  C6        47.6990   21.7270  -20.3470 C.ar  471  ST5471      0.0079
     19  HN3       47.0080   21.1610  -25.0160 H     471  ST5471      0.1549
     20 HM31       47.5400   23.6880  -26.3330 H     471  ST5471      0.0654
     21 HM32       46.3550   22.7920  -26.9160 H     471  ST5471      0.0654
     22  HO3       46.0300   24.9760  -27.4610 H     471  ST5471      0.2100
     23  HN4       44.9160   19.6990  -22.5440 H     471  ST5471      0.1549
@<TRIPOS>BOND
     1    22    11    1
     2    21    10    1
     3    11    10    1
     4    20    10    1
     5    10     8    1
     6    19     7    1
     7     8     7   am
     8     8     9    2
     9     7     6    1
    10    16    14    1
    11    15    14    2
    12    14    13   am
    13     6     5   ar
    14     6    12   ar
    15    13    23    1
    16    13    12    1
    17     5     4   ar
    18    12    17   ar
    19     3     1   ar
    20     4     1    1
    21     4    18   ar
    22    17    18   ar
    23     1     2   ar
