@<TRIPOS>MOLECULE
1ing_NAG_A_1.pdb
 27 27 0 0 0
SMALL
GASTEIGER

@<TRIPOS>ATOM
      1  C1        12.7730   21.6300  -10.4840 C.3   472  NAG472      0.1078
      2  C2        11.4040   21.4980  -11.0130 C.3   472  NAG472      0.0802
      3  C3        10.4430   21.8030   -9.8590 C.3   472  NAG472      0.1076
      4  C4        10.5470   20.6570   -8.8290 C.3   472  NAG472      0.1493
      5  C5        12.0510   20.4980   -8.4730 C.3   472  NAG472      0.1137
      6  C6        12.3390   19.1410   -7.8530 C.3   472  NAG472      0.0730
      7  C7        11.2890   23.6000  -12.2310 C.2   472  NAG472      0.2103
      8  C8        10.9100   24.2220  -13.5510 C.3   472  NAG472      0.0122
      9  N2        11.1130   22.2880  -12.1650 N.am  472  NAG472     -0.3075
     10  O3         9.1110   21.9330  -10.3430 O.3   472  NAG472     -0.3871
     11  O4         9.7530   20.9320   -7.6410 O.3   472  NAG472     -0.2256
     12  O5        12.8940   20.5390   -9.6390 O.3   472  NAG472     -0.3638
     13  O6        11.9230   18.1750   -8.7990 O.3   472  NAG472     -0.3924
     14  O7        11.7480   24.2560  -11.3010 O.2   472  NAG472     -0.2761
     15  H1        13.0180   22.5320   -9.8920 H     472  NAG472      0.0642
     16  H2        11.2390   20.4580  -11.3490 H     472  NAG472      0.0551
     17  H3        10.7120   22.7560   -9.3660 H     472  NAG472      0.0641
     18  H4        10.1480   19.7390   -9.3050 H     472  NAG472      0.0682
     19  H5        12.3640   21.3020   -7.7840 H     472  NAG472      0.0647
     20  H61       11.9340   19.0140   -6.8450 H     472  NAG472      0.0584
     21  H62       13.4290   19.0520   -7.7050 H     472  NAG472      0.0584
     22  H81       11.1020   25.3050  -13.5410 H     472  NAG472      0.0322
     23  H82        9.8390   24.0750  -13.7430 H     472  NAG472      0.0322
     24  H83       11.5010   23.7840  -14.3640 H     472  NAG472      0.0322
     25  HN2       10.7580   21.8290  -12.9470 H     472  NAG472      0.1491
     26  HO3        8.5280   22.2080   -9.6160 H     472  NAG472      0.2100
     27  HO6       12.4990   18.2760   -9.5690 H     472  NAG472      0.2095
@<TRIPOS>BOND
     1    24     8    1
     2    23     8    1
     3     8    22    1
     4     8     7    1
     5    25     9    1
     6     7     9   am
     7     7    14    2
     8     9     2    1
     9    16     2    1
    10     2     1    1
    11     2     3    1
    12     1    15    1
    13     1    12    1
    14    10     3    1
    15    10    26    1
    16     3    17    1
    17     3     4    1
    18    12     5    1
    19    27    13    1
    20    18     4    1
    21     4     5    1
    22     4    11    1
    23    13     6    1
    24     5     6    1
    25     5    19    1
    26     6    21    1
    27     6    20    1
