@<TRIPOS>MOLECULE
1ing_MAN_A_1.pdb
 22 22 0 0 0
SMALL
GASTEIGER

@<TRIPOS>ATOM
      1  C1        46.5570    4.5630  -36.6470 C.3   483  MAN483      0.1161
      2  C2        46.2300    4.5390  -35.1090 C.3   483  MAN483      0.1121
      3  C3        47.4190    4.0280  -34.2730 C.3   483  MAN483      0.1118
      4  C4        48.5690    3.5620  -35.2100 C.3   483  MAN483      0.1117
      5  C5        48.9680    4.8640  -36.0310 C.3   483  MAN483      0.1105
      6  C6        50.3070    4.7660  -36.8740 C.3   483  MAN483      0.0729
      7  O2        45.0990    3.7230  -34.8310 O.3   483  MAN483     -0.3865
      8  O3        47.0230    2.9780  -33.4180 O.3   483  MAN483     -0.3865
      9  O4        49.6330    2.9630  -34.4710 O.3   483  MAN483     -0.3865
     10  O5        47.8370    5.2030  -36.9290 O.3   483  MAN483     -0.3631
     11  O6        50.2080    3.9290  -38.0330 O.3   483  MAN483     -0.3924
     12  H1        46.5510    3.5440  -37.0710 H     483  MAN483      0.0650
     13  H2        46.0130    5.5470  -34.7640 H     483  MAN483      0.0647
     14  H3        47.7890    4.8400  -33.6230 H     483  MAN483      0.0647
     15  H4        48.2180    2.7630  -35.8780 H     483  MAN483      0.0647
     16  H5        49.1070    5.6960  -35.3210 H     483  MAN483      0.0646
     17  H61       51.1000    4.3790  -36.2150 H     483  MAN483      0.0584
     18  H62       50.6260    5.7760  -37.1440 H     483  MAN483      0.0584
     19  HO2       44.6360    3.5990  -35.6780 H     483  MAN483      0.2100
     20  HO3       46.0600    2.9130  -33.4720 H     483  MAN483      0.2100
     21  HO4       49.2060    2.4190  -33.7940 H     483  MAN483      0.2100
     22  HO6       51.0190    3.9920  -38.5450 H     483  MAN483      0.2095
@<TRIPOS>BOND
     1    22    11    1
     2    11     6    1
     3    18     6    1
     4    12     1    1
     5    10     1    1
     6    10     5    1
     7     6    17    1
     8     6     5    1
     9     1     2    1
    10     5    16    1
    11     5     4    1
    12    15     4    1
    13    19     7    1
    14     4     9    1
    15     4     3    1
    16     2     7    1
    17     2    13    1
    18     2     3    1
    19     9    21    1
    20     3    14    1
    21     3     8    1
    22    20     8    1
