@<TRIPOS>MOLECULE
1inh_FUC_B_1.pdb
 21 21 0 0 0
SMALL
GASTEIGER

@<TRIPOS>ATOM
      1  C1        64.3910  -21.2230  -10.4150 C.3   477  FUC477      0.1160
      2  C2        62.8390  -20.7840  -10.0720 C.3   477  FUC477      0.1121
      3  C3        62.5010  -20.4690   -8.5180 C.3   477  FUC477      0.1117
      4  C4        63.7660  -20.2400   -7.6260 C.3   477  FUC477      0.1093
      5  C5        64.8460  -21.3690   -7.9680 C.3   477  FUC477      0.0848
      6  C6        66.0500  -21.7720   -7.0340 C.3   477  FUC477     -0.0361
      7  O2        61.9120  -21.8070  -10.4570 O.3   477  FUC477     -0.3865
      8  O3        61.7180  -19.2670   -8.4130 O.3   477  FUC477     -0.3865
      9  O4        64.2260  -18.9340   -7.9000 O.3   477  FUC477     -0.3866
     10  O5        65.3560  -20.9870   -9.3010 O.3   477  FUC477     -0.3657
     11  H1        64.4560  -22.3090  -10.6230 H     477  FUC477      0.0650
     12  H2        62.5880  -19.8940  -10.6540 H     477  FUC477      0.0647
     13  H3        61.9110  -21.2900   -8.0500 H     477  FUC477      0.0647
     14  H4        63.5220  -20.2730   -6.5520 H     477  FUC477      0.0646
     15  H5        64.2710  -22.3050   -8.0630 H     477  FUC477      0.0620
     16  H61       66.6700  -20.8820   -6.8790 H     477  FUC477      0.0255
     17  H62       66.6920  -22.5390   -7.4830 H     477  FUC477      0.0255
     18  H63       65.7340  -22.1250   -6.0470 H     477  FUC477      0.0255
     19  HO2       62.0690  -21.9850  -11.3890 H     477  FUC477      0.2100
     20  HO3       60.8550  -19.3690   -8.8540 H     477  FUC477      0.2100
     21  HO4       63.4650  -18.3430   -7.9400 H     477  FUC477      0.2100
@<TRIPOS>BOND
     1    19     7    1
     2    12     2    1
     3    11     1    1
     4     7     2    1
     5     1     2    1
     6     1    10    1
     7     2     3    1
     8    10     5    1
     9    20     8    1
    10     3     8    1
    11     3    13    1
    12     3     4    1
    13    15     5    1
    14     5     4    1
    15     5     6    1
    16    21     9    1
    17     9     4    1
    18     4    14    1
    19    17     6    1
    20     6    16    1
    21     6    18    1
