@<TRIPOS>MOLECULE
1inh_NAG_A_1.pdb
 27 27 0 0 0
SMALL
GASTEIGER

@<TRIPOS>ATOM
      1  C1        13.8230   21.2340  -10.6690 C.3   472  NAG472      0.1078
      2  C2        12.4490   21.5420  -11.3110 C.3   472  NAG472      0.0802
      3  C3        11.4360   21.6710  -10.1960 C.3   472  NAG472      0.1076
      4  C4        11.4500   20.4870   -9.1980 C.3   472  NAG472      0.1493
      5  C5        12.8490   19.8610   -8.7880 C.3   472  NAG472      0.1137
      6  C6        12.8730   18.3310   -8.3930 C.3   472  NAG472      0.0730
      7  C7        11.7610   23.1680  -13.0660 C.2   472  NAG472      0.2103
      8  C8        12.1460   24.5200  -13.6200 C.3   472  NAG472      0.0122
      9  N2        12.5400   22.7850  -12.0600 N.am  472  NAG472     -0.3075
     10  O3        10.1020   21.7850  -10.6230 O.3   472  NAG472     -0.3871
     11  O4        10.9600   21.1570   -8.0390 O.3   472  NAG472     -0.2256
     12  O5        13.7560   20.0210   -9.8800 O.3   472  NAG472     -0.3638
     13  O6        11.5640   17.8230   -8.6120 O.3   472  NAG472     -0.3924
     14  O7        10.8390   22.4850  -13.5140 O.2   472  NAG472     -0.2761
     15  H1        14.1660   22.0410  -10.0190 H     472  NAG472      0.0642
     16  H2        12.1780   20.7030  -11.9460 H     472  NAG472      0.0551
     17  H3        11.6770   22.6120   -9.6980 H     472  NAG472      0.0641
     18  H4        10.7990   19.7010   -9.6260 H     472  NAG472      0.0682
     19  H5        13.3870   20.4170   -8.0160 H     472  NAG472      0.0647
     20  H61       13.2310   18.1410   -7.3630 H     472  NAG472      0.0584
     21  H62       13.5960   17.7300   -8.9820 H     472  NAG472      0.0584
     22  H81       11.8330   25.3220  -12.9240 H     472  NAG472      0.0322
     23  H82       11.6390   24.7010  -14.5750 H     472  NAG472      0.0322
     24  H83       13.2230   24.5400  -13.7700 H     472  NAG472      0.0322
     25  HN2       13.2640   23.3880  -11.8070 H     472  NAG472      0.1491
     26  HO3        9.5320   22.0160   -9.8730 H     472  NAG472      0.2100
     27  HO6       11.0330   17.9610   -7.8180 H     472  NAG472      0.2095
@<TRIPOS>BOND
     1    23     8    1
     2    24     8    1
     3     8     7    1
     4     8    22    1
     5    14     7    2
     6     7     9   am
     7     9    25    1
     8     9     2    1
     9    16     2    1
    10     2     1    1
    11     2     3    1
    12     1    15    1
    13     1    12    1
    14    10     3    1
    15    10    26    1
    16     3    17    1
    17     3     4    1
    18    12     5    1
    19    18     4    1
    20     4     5    1
    21     4    11    1
    22    21     6    1
    23     5     6    1
    24     5    19    1
    25    13     6    1
    26    13    27    1
    27     6    20    1
