@<TRIPOS>MOLECULE
1inh_FUL_A_1.pdb
 21 21 0 0 0
SMALL
GASTEIGER

@<TRIPOS>ATOM
      1  C1        64.3910   10.4150  -21.2230 C.3   477  FUL477      0.1160
      2  C2        62.8390   10.0720  -20.7840 C.3   477  FUL477      0.1121
      3  O2        61.9120   10.4570  -21.8070 O.3   477  FUL477     -0.3865
      4  C3        62.5010    8.5180  -20.4690 C.3   477  FUL477      0.1117
      5  O3        61.7180    8.4130  -19.2670 O.3   477  FUL477     -0.3865
      6  C4        63.7660    7.6260  -20.2400 C.3   477  FUL477      0.1093
      7  O4        64.2260    7.9000  -18.9340 O.3   477  FUL477     -0.3866
      8  C5        64.8460    7.9680  -21.3690 C.3   477  FUL477      0.0848
      9  C6        66.0500    7.0340  -21.7720 C.3   477  FUL477     -0.0361
     10  O5        65.3560    9.3010  -20.9870 O.3   477  FUL477     -0.3657
     11  H1        64.4560   10.6230  -22.3090 H     477  FUL477      0.0650
     12  H2        62.5880   10.6540  -19.8940 H     477  FUL477      0.0647
     13  HO2       62.0690   11.3890  -21.9850 H     477  FUL477      0.2100
     14  H3        61.9110    8.0500  -21.2900 H     477  FUL477      0.0647
     15  HO3       60.8550    8.8540  -19.3690 H     477  FUL477      0.2100
     16  H4        63.5220    6.5520  -20.2730 H     477  FUL477      0.0646
     17  HO4       63.4650    7.9400  -18.3430 H     477  FUL477      0.2100
     18  H5        64.2710    8.0630  -22.3050 H     477  FUL477      0.0620
     19  H61       65.7340    6.0470  -22.1250 H     477  FUL477      0.0255
     20  H62       66.6920    7.4830  -22.5390 H     477  FUL477      0.0255
     21  H63       66.6700    6.8790  -20.8820 H     477  FUL477      0.0255
@<TRIPOS>BOND
     1    20     9    1
     2    11     1    1
     3    18     8    1
     4    19     9    1
     5    13     3    1
     6     3     2    1
     7     9     8    1
     8     9    21    1
     9     8    10    1
    10     8     6    1
    11    14     4    1
    12     1    10    1
    13     1     2    1
    14     2     4    1
    15     2    12    1
    16     4     6    1
    17     4     5    1
    18    16     6    1
    19     6     7    1
    20    15     5    1
    21     7    17    1
