@<TRIPOS>MOLECULE
1inh_MAN_B_1.pdb
 21 21 0 0 0
SMALL
GASTEIGER

@<TRIPOS>ATOM
      1  C1        39.7680   -2.2780  -43.6490 C.3   481  MAN481      0.1195
      2  C2        40.1460   -2.6790  -42.1020 C.3   481  MAN481      0.1504
      3  C3        39.6410   -4.1460  -41.9440 C.3   481  MAN481      0.1151
      4  C4        40.5470   -5.0610  -42.8230 C.3   481  MAN481      0.1118
      5  C5        40.2490   -4.7730  -44.3130 C.3   481  MAN481      0.1105
      6  C6        39.4590   -5.9230  -45.0400 C.3   481  MAN481      0.0729
      7  O2        39.8300   -1.8850  -40.8670 O.3   481  MAN481     -0.2256
      8  O3        38.2700   -4.2400  -42.3000 O.3   481  MAN481     -0.3864
      9  O4        41.9140   -4.8140  -42.5000 O.3   481  MAN481     -0.3865
     10  O5        39.4650   -3.4820  -44.4190 O.3   481  MAN481     -0.3630
     11  O6        38.4570   -6.3280  -44.2090 O.3   481  MAN481     -0.3924
     12  H1        38.8610   -1.6950  -43.7780 H     481  MAN481      0.0651
     13  H2        41.2300   -2.5960  -41.9480 H     481  MAN481      0.0682
     14  H3        39.7500   -4.4610  -40.9130 H     481  MAN481      0.0648
     15  H4        40.3300   -6.1160  -42.5740 H     481  MAN481      0.0647
     16  H5        41.1600   -4.6700  -44.9150 H     481  MAN481      0.0646
     17  H61       40.0800   -6.7880  -45.3120 H     481  MAN481      0.0584
     18  H62       39.0420   -5.5870  -46.0050 H     481  MAN481      0.0584
     19  HO3       38.0140   -3.4080  -42.7250 H     481  MAN481      0.2100
     20  HO4       42.3190   -5.6640  -42.2840 H     481  MAN481      0.2100
     21  HO6       38.0790   -5.5600  -43.7540 H     481  MAN481      0.2095
@<TRIPOS>BOND
     1    18     6    1
     2    17     6    1
     3     6     5    1
     4     6    11    1
     5    16     5    1
     6    10     5    1
     7    10     1    1
     8     5     4    1
     9    11    21    1
    10    12     1    1
    11     1     2    1
    12     4    15    1
    13     4     9    1
    14     4     3    1
    15    19     8    1
    16     9    20    1
    17     8     3    1
    18     2    13    1
    19     2     3    1
    20     2     7    1
    21     3    14    1
