@<TRIPOS>MOLECULE
1inh_BMA_B_1.pdb
 21 21 0 0 0
SMALL
GASTEIGER

@<TRIPOS>ATOM
      1  C1        43.9920   -0.1640  -44.4030 C.3   480  BMA480      0.1162
      2  C2        43.1760   -0.9720  -43.3700 C.3   480  BMA480      0.1154
      3  C3        42.0720   -1.8740  -44.2960 C.3   480  BMA480      0.1501
      4  C4        42.5130   -2.0490  -45.8560 C.3   480  BMA480      0.1150
      5  C5        44.0460   -2.4590  -45.6530 C.3   480  BMA480      0.1106
      6  C6        44.5880   -3.2560  -46.7580 C.3   480  BMA480      0.0729
      7  O2        42.6550   -0.0110  -42.4300 O.3   480  BMA480     -0.3864
      8  O3        40.7090   -1.3970  -44.3330 O.3   480  BMA480     -0.2256
      9  O4        41.6980   -2.8670  -46.6970 O.3   480  BMA480     -0.3864
     10  O5        44.7310   -1.1310  -45.4140 O.3   480  BMA480     -0.3631
     11  O6        43.9760   -4.4960  -46.6500 O.3   480  BMA480     -0.3924
     12  H1        44.8460    0.3710  -43.9620 H     480  BMA480      0.0650
     13  H2        43.8610   -1.6390  -42.8160 H     480  BMA480      0.0648
     14  H3        42.1170   -2.8850  -43.8910 H     480  BMA480      0.0682
     15  H4        42.4890   -1.0810  -46.3960 H     480  BMA480      0.0648
     16  H5        44.2900   -3.0380  -44.7540 H     480  BMA480      0.0646
     17  H61       45.6780   -3.3740  -46.7530 H     480  BMA480      0.0584
     18  H62       44.3790   -2.7830  -47.7300 H     480  BMA480      0.0584
     19  HO2       41.7020   -0.1550  -42.4390 H     480  BMA480      0.2100
     20  HO4       40.8780   -2.3910  -46.8520 H     480  BMA480      0.2100
     21  HO6       43.0330   -4.3490  -46.8200 H     480  BMA480      0.2095
@<TRIPOS>BOND
     1    18     6    1
     2    20     9    1
     3    21    11    1
     4     6    17    1
     5     6    11    1
     6     6     5    1
     7     9     4    1
     8    15     4    1
     9     4     5    1
    10     4     3    1
    11     5    10    1
    12     5    16    1
    13    10     1    1
    14     1    12    1
    15     1     2    1
    16     8     3    1
    17     3    14    1
    18     3     2    1
    19     2    13    1
    20     2     7    1
    21    19     7    1
