@<TRIPOS>MOLECULE
1inh_ST6_A_1.pdb
 25 25 0 0 0
SMALL
GASTEIGER

@<TRIPOS>ATOM
      1  C'        49.1590   22.8940  -20.3130 C.2   471  ST6471      0.3878
      2  O1'       48.8090   24.0970  -20.3000 O.co2 471  ST6471     -0.2406
      3  O2'       50.1610   22.4630  -19.7150 O.co2 471  ST6471     -0.2406
      4  C1        48.4220   22.0010  -21.0640 C.ar  471  ST6471      0.0811
      5  C2        48.0050   22.3500  -22.3260 C.ar  471  ST6471      0.0225
      6  C3        47.1900   21.5240  -23.0560 C.ar  471  ST6471      0.0641
      7  N3        46.7040   21.9540  -24.2500 N.am  471  ST6471     -0.2851
      8  C3'       45.4800   22.4630  -24.2410 C.2   471  ST6471      0.1997
      9  O3        44.6760   22.2600  -23.3220 O.2   471  ST6471     -0.2776
     10  CM3       45.0710   23.3040  -25.3850 C.3   471  ST6471     -0.0171
     11  N3'       43.9630   24.1370  -24.8820 N.4   471  ST6471      0.3838
     12  C4        46.7520   20.3250  -22.5170 C.ar  471  ST6471      0.0640
     13  N4        45.8800   19.5340  -23.2300 N.am  471  ST6471     -0.2829
     14  C4'       46.3100   18.6060  -24.0750 C.2   471  ST6471      0.2266
     15  O4        47.5120   18.3860  -24.2480 O.2   471  ST6471     -0.2748
     16  CM4       45.2900   17.7760  -24.8320 C.3   471  ST6471      0.0949
     17  C5        47.1760   19.9470  -21.2600 C.ar  471  ST6471      0.0161
     18  C6        47.9950   20.7870  -20.5260 C.ar  471  ST6471      0.0079
     19  HN3       47.1970   21.8350  -25.0990 H     471  ST6471      0.1548
     20 HM31       44.7600   22.7360  -26.1110 H     471  ST6471      0.0142
     21 HM32       45.8180   23.8630  -25.6790 H     471  ST6471      0.0142
     22 HN31       43.1330   23.6810  -24.4740 H     471  ST6471     -0.0894
     23 HN32       43.7060   24.5930  -25.7080 H     471  ST6471     -0.0894
     24 HN33       44.3110   24.8380  -24.1850 H     471  ST6471     -0.0894
     25  HN4       44.8940   19.6200  -23.1430 H     471  ST6471      0.1549
@<TRIPOS>BOND
     1    20    10    1
     2    23    11    1
     3    21    10    1
     4    10    11    1
     5    10     8    1
     6    19     7    1
     7    11    22    1
     8    11    24    1
     9    16    14    1
    10     7     8   am
    11     7     6    1
    12    15    14    2
    13     8     9    2
    14    14    13   am
    15    13    25    1
    16    13    12    1
    17     6    12   ar
    18     6     5   ar
    19    12    17   ar
    20     5     4   ar
    21    17    18   ar
    22     4    18   ar
    23     4     1    1
    24     1     2   ar
    25     1     3   ar
