@<TRIPOS>MOLECULE
1ini_CDM_A_1.pdb
 33 34 0 0 0
SMALL
GASTEIGER

@<TRIPOS>ATOM
      1  N1        48.9720  -15.3200   32.1290 N.am  1001  CDM1001    -0.1778
      2  C2        47.7110  -15.4550   32.8000 C.1   1001  CDM1001     0.2756
      3  N3        47.6040  -16.2110   33.9290 N.2   1001  CDM1001    -0.3024
      4  C4        48.7590  -16.8830   34.4690 C.2   1001  CDM1001     0.2346
      5  C5        50.0370  -16.7940   33.8540 C.2   1001  CDM1001     0.0687
      6  C6        50.0860  -16.0080   32.7030 C.2   1001  CDM1001     0.0836
      7  O2        46.6490  -14.9160   32.4220 O.2   1001  CDM1001    -0.1925
      8  N4        48.5910  -17.6090   35.5890 N.pl3 1001  CDM1001    -0.0921
      9  C1'       49.1340  -14.4950   30.8910 C.3   1001  CDM1001     0.2400
     10  C2'       50.0550  -13.3190   31.1320 C.3   1001  CDM1001     0.2319
     11  O2'       49.3510  -12.3500   31.8550 O.3   1001  CDM1001    -0.2157
     12  C3'       50.5290  -12.9410   29.7430 C.3   1001  CDM1001     0.2158
     13  C4'       50.3360  -14.2520   28.9430 C.3   1001  CDM1001     0.1799
     14  O4'       49.7350  -15.2100   29.8450 O.3   1001  CDM1001    -0.3320
     15  O3'       49.6770  -11.9800   29.0800 O.3   1001  CDM1001    -0.2175
     16  C5'       51.7390  -14.6790   28.5270 C.3   1001  CDM1001     0.1813
     17  O5'       52.4330  -15.0820   29.6740 O.3   1001  CDM1001    -0.3112
     18  PA        54.0560  -15.0770   29.8280 P.3   1001  CDM1001     0.2189
     19  O1A       54.4880  -13.6160   29.3980 O.2   1001  CDM1001    -0.5170
     20  O2A       54.3460  -15.4580   31.4700 O.3   1001  CDM1001    -0.4371
     21  O3A       54.4970  -16.1340   28.8790 O.3   1001  CDM1001    -0.2703
     22  PB        54.5850  -17.6120   28.6720 P.3   1001  CDM1001     0.2189
     23  O1B       53.3370  -18.2650   29.1790 O.2   1001  CDM1001    -0.5170
     24  O2B       55.8390  -18.0870   29.4340 O.3   1001  CDM1001    -0.4371
     25  O3B       54.6870  -18.2000   27.3000 O.3   1001  CDM1001    -0.3111
     26  C1M       53.6360  -17.8270   26.4270 C.3   1001  CDM1001     0.1845
     27  C2M       54.0080  -18.4400   25.0910 C.3   1001  CDM1001     0.2120
     28  O2M       53.9690  -19.9410   25.3020 O.3   1001  CDM1001    -0.2177
     29  C3M       53.0450  -18.0560   23.9110 C.3   1001  CDM1001     0.1873
     30  C4M       53.5140  -18.8420   22.7090 C.3   1001  CDM1001     0.2148
     31  C5M       51.5610  -18.3470   24.2710 C.3   1001  CDM1001     0.0384
     32  O3M       53.1820  -16.5970   23.5320 O.3   1001  CDM1001    -0.2202
     33  O4M       54.9670  -18.4420   22.3350 O.3   1001  CDM1001    -0.2176
@<TRIPOS>BOND
     1    33    30    1
     2    30    29    1
     3    32    29    1
     4    29    31    1
     5    29    27    1
     6    27    28    1
     7    27    26    1
     8    26    25    1
     9    25    22    1
    10    16    13    1
    11    16    17    1
    12    22    21    1
    13    22    23    2
    14    22    24    1
    15    21    18    1
    16    13    12    1
    17    13    14    1
    18    15    12    1
    19    19    18    2
    20    17    18    1
    21    12    10    1
    22    18    20    1
    23    14     9    1
    24     9    10    1
    25     9     1    1
    26    10    11    1
    27     1     6    1
    28     1     2   am
    29     7     2    2
    30     6     5    2
    31     2     3    2
    32     5     4    1
    33     3     4    2
    34     4     8    1
