@<TRIPOS>MOLECULE
1inv_NAG_A_1.pdb
 28 28 0 0 0
SMALL
GASTEIGER

@<TRIPOS>ATOM
      1  C1        41.2760  -18.7460   32.8270 C.3   467  NAG467      0.1078
      2  C2        42.1360  -20.0250   32.8260 C.3   467  NAG467      0.0801
      3  C3        43.6100  -19.5960   32.5100 C.3   467  NAG467      0.1043
      4  C4        43.6550  -18.8730   31.0910 C.3   467  NAG467      0.1110
      5  C5        42.6550  -17.6230   31.0860 C.3   467  NAG467      0.1104
      6  C6        42.5150  -17.0720   29.6160 C.3   467  NAG467      0.0729
      7  C7        41.7180  -22.0310   34.1990 C.2   467  NAG467      0.2103
      8  C8        41.5940  -22.6910   35.5830 C.3   467  NAG467      0.0122
      9  N2        42.0060  -20.7360   34.1140 N.am  467  NAG467     -0.3075
     10  O3        44.4500  -20.7590   32.5210 O.3   467  NAG467     -0.3872
     11  O4        45.0050  -18.4460   30.7550 O.3   467  NAG467     -0.3865
     12  O5        41.3440  -18.0590   31.5640 O.3   467  NAG467     -0.3639
     13  O6        41.4430  -16.1260   29.5330 O.3   467  NAG467     -0.3924
     14  O7        41.5440  -22.7300   33.2080 O.2   467  NAG467     -0.2761
     15  H1        41.5840  -18.0820   33.6460 H     467  NAG467      0.0642
     16  H2        41.7970  -20.6800   32.0110 H     467  NAG467      0.0551
     17  H3        43.9480  -18.8820   33.2740 H     467  NAG467      0.0639
     18  H4        43.2950  -19.5780   30.3290 H     467  NAG467      0.0646
     19  H5        43.0330  -16.8420   31.7600 H     467  NAG467      0.0646
     20  H61       42.3150  -17.9160   28.9410 H     467  NAG467      0.0584
     21  H62       43.4580  -16.5860   29.3300 H     467  NAG467      0.0584
     22  H81       41.2410  -21.9490   36.3130 H     467  NAG467      0.0322
     23  H82       42.5750  -23.0650   35.9080 H     467  NAG467      0.0322
     24  H83       40.8680  -23.5150   35.5410 H     467  NAG467      0.0322
     25  HN2       42.1380  -20.2310   34.9430 H     467  NAG467      0.1491
     26  HO3       45.3550  -20.4990   32.3340 H     467  NAG467      0.2100
     27  HO4       44.9980  -18.0160   29.8970 H     467  NAG467      0.2100
     28  HO6       41.0360  -16.0300   30.3970 H     467  NAG467      0.2095
@<TRIPOS>BOND
     1    20     6    1
     2    21     6    1
     3    13     6    1
     4    13    28    1
     5     6     5    1
     6    27    11    1
     7    18     4    1
     8    11     4    1
     9     5     4    1
    10     5    12    1
    11     5    19    1
    12     4     3    1
    13    12     1    1
    14    16     2    1
    15    26    10    1
    16     3    10    1
    17     3     2    1
    18     3    17    1
    19     2     1    1
    20     2     9    1
    21     1    15    1
    22    14     7    2
    23     9     7   am
    24     9    25    1
    25     7     8    1
    26    24     8    1
    27     8    23    1
    28     8    22    1
