@<TRIPOS>MOLECULE
1inv_EQP_A_1.pdb
 40 40 0 0 0
SMALL
GASTEIGER

@<TRIPOS>ATOM
      1  P1        33.4380  -13.9590   67.1870 P.3   500  EQP500      0.3855
      2  C2        33.2250  -12.7030   65.8350 C.3   500  EQP500      0.1640
      3  C3        34.1580  -11.5150   65.9310 C.3   500  EQP500      0.0128
      4  C4        33.8840  -10.5140   64.8080 C.3   500  EQP500      0.0789
      5  C5        32.4330  -10.1830   64.7310 C.3   500  EQP500      0.0777
      6  C6        31.6090  -11.4650   64.6760 C.3   500  EQP500      0.1087
      7  C7        30.0890  -11.3930   64.6400 C.3   500  EQP500      0.1110
      8  C8        29.3780  -12.6200   63.9890 C.3   500  EQP500      0.1065
      9  C9        27.8340  -12.4830   64.0800 C.3   500  EQP500      0.0727
     10  C10       31.6350   -8.1610   63.6220 C.2   500  EQP500      0.2103
     11  C11       31.4990   -7.3920   62.3210 C.3   500  EQP500      0.0122
     12  N5        32.2190   -9.3590   63.5700 N.am  500  EQP500     -0.3076
     13  O1P       33.1950  -13.3160   68.5000 O.3   500  EQP500     -0.1383
     14  O2P       32.4700  -15.0250   66.8070 O.2   500  EQP500     -0.2537
     15  O3P       34.8900  -14.2650   67.1660 O.3   500  EQP500     -0.3208
     16  O4        34.5690   -9.3240   65.0400 O.3   500  EQP500     -0.3898
     17  O6        31.9550  -12.2060   65.8220 O.3   500  EQP500     -0.3565
     18  O7        29.6030  -11.3570   65.9680 O.3   500  EQP500     -0.3865
     19  O8        29.7040  -12.6880   62.6410 O.3   500  EQP500     -0.3869
     20  O9        27.2980  -11.4480   63.2550 O.3   500  EQP500     -0.3924
     21  O10       31.1700   -7.6870   64.6510 O.2   500  EQP500     -0.2761
     22  H2        33.4070  -13.1970   64.8700 H     500  EQP500      0.0725
     23  H31       35.1950  -11.8690   65.8480 H     500  EQP500      0.0322
     24  H32       34.0030  -11.0170   66.8980 H     500  EQP500      0.0322
     25  H4        34.2160  -10.9520   63.8560 H     500  EQP500      0.0613
     26  H5        32.1340   -9.6390   65.6380 H     500  EQP500      0.0550
     27  H6        31.8630  -12.0450   63.7780 H     500  EQP500      0.0642
     28  H7        29.7840  -10.4840   64.1030 H     500  EQP500      0.0646
     29  H8        29.7080  -13.5360   64.4990 H     500  EQP500      0.0643
     30  H91       27.5750  -12.2710   65.1270 H     500  EQP500      0.0584
     31  H92       27.3920  -13.4420   63.7770 H     500  EQP500      0.0584
     32 H111       30.5440   -7.6480   61.8410 H     500  EQP500      0.0322
     33 H112       32.3180   -7.6620   61.6400 H     500  EQP500      0.0322
     34 H113       31.5120   -6.3120   62.5220 H     500  EQP500      0.0322
     35  HN5       32.5170   -9.6950   62.6990 H     500  EQP500      0.1491
     36 HOP3       35.0140  -15.2150   67.1010 H     500  EQP500      0.2199
     37  HO4       34.2760   -8.9450   65.8720 H     500  EQP500      0.2099
     38  HO7       28.6430  -11.3570   65.9560 H     500  EQP500      0.2100
     39  HO8       28.8980  -12.7140   62.1200 H     500  EQP500      0.2100
     40  HO9       26.3440  -11.4190   63.3600 H     500  EQP500      0.2095
@<TRIPOS>BOND
     1    33    11    1
     2    32    11    1
     3    39    19    1
     4    11    34    1
     5    11    10    1
     6    19     8    1
     7    35    12    1
     8    20    40    1
     9    20     9    1
    10    12    10   am
    11    12     5    1
    12    10    21    2
    13    31     9    1
    14    27     6    1
    15    25     4    1
    16     8     9    1
    17     8    29    1
    18     8     7    1
    19     9    30    1
    20    28     7    1
    21     7     6    1
    22     7    18    1
    23     6     5    1
    24     6    17    1
    25     5     4    1
    26     5    26    1
    27     4    16    1
    28     4     3    1
    29    22     2    1
    30    16    37    1
    31    17     2    1
    32     2     3    1
    33     2     1    1
    34    23     3    1
    35     3    24    1
    36    38    18    1
    37    14     1    2
    38    36    15    1
    39    15     1    1
    40     1    13    1
