@<TRIPOS>MOLECULE
1inw_NAG_A_1.pdb
 28 28 0 0 0
SMALL
GASTEIGER

@<TRIPOS>ATOM
      1  C1        73.5550   20.9900  -10.2890 C.3   470  NAG470      0.1078
      2  C2        72.1410   21.3860  -10.5700 C.3   470  NAG470      0.0801
      3  C3        71.3770   21.4520   -9.3130 C.3   470  NAG470      0.1043
      4  C4        71.3170   20.0420   -8.7050 C.3   470  NAG470      0.1110
      5  C5        72.7810   19.5650   -8.4490 C.3   470  NAG470      0.1104
      6  C6        72.8600   18.0880   -8.0610 C.3   470  NAG470      0.0729
      7  C7        72.1350   22.7900  -12.5150 C.2   470  NAG470      0.2103
      8  C8        72.0960   24.2050  -13.0400 C.3   470  NAG470      0.0122
      9  N2        72.1020   22.6740  -11.1920 N.am  470  NAG470     -0.3075
     10  O3        70.0820   21.9570   -9.5640 O.3   470  NAG470     -0.3872
     11  O4        70.5260   20.0750   -7.5220 O.3   470  NAG470     -0.3865
     12  O5        73.5550   19.7160   -9.6440 O.3   470  NAG470     -0.3639
     13  O6        74.0990   17.5470   -8.4800 O.3   470  NAG470     -0.3924
     14  O7        72.2020   21.8180  -13.2790 O.2   470  NAG470     -0.2761
     15  H1        74.0850   21.6980   -9.6310 H     470  NAG470      0.0642
     16  H2        71.6640   20.6220  -11.2160 H     470  NAG470      0.0551
     17  H3        71.8830   22.1190   -8.5920 H     470  NAG470      0.0639
     18  H4        70.8370   19.3610   -9.4300 H     470  NAG470      0.0646
     19  H5        73.2800   20.1850   -7.6840 H     470  NAG470      0.0646
     20  H61       72.0570   17.5120   -8.5410 H     470  NAG470      0.0584
     21  H62       72.7370   17.9820   -6.9700 H     470  NAG470      0.0584
     22  H81       71.4380   24.8350  -12.4260 H     470  NAG470      0.0322
     23  H82       71.7220   24.2090  -14.0690 H     470  NAG470      0.0322
     24  H83       73.1110   24.6180  -13.0290 H     470  NAG470      0.0322
     25  HN2       72.0250   23.4600  -10.6150 H     470  NAG470      0.1491
     26  HO3       69.5530   21.7540   -8.7820 H     470  NAG470      0.2100
     27  HO4       70.2650   19.1760   -7.3010 H     470  NAG470      0.2100
     28  HO6       74.3010   17.9380   -9.3410 H     470  NAG470      0.2095
@<TRIPOS>BOND
     1    23     8    1
     2    14     7    2
     3     8    24    1
     4     8     7    1
     5     8    22    1
     6     7     9   am
     7    16     2    1
     8     9    25    1
     9     9     2    1
    10     2     1    1
    11     2     3    1
    12     1    12    1
    13     1    15    1
    14    12     5    1
    15    10     3    1
    16    10    26    1
    17    18     4    1
    18    28    13    1
    19     3     4    1
    20     3    17    1
    21     4     5    1
    22     4    11    1
    23    20     6    1
    24    13     6    1
    25     5     6    1
    26     5    19    1
    27     6    21    1
    28    11    27    1
