@<TRIPOS>MOLECULE
1inw_AXP_A_1.pdb
 40 40 0 0 0
SMALL
GASTEIGER

@<TRIPOS>ATOM
      1  P1       109.8110   23.4850  -20.3920 P.3   500  AXP500      0.3855
      2  C2       108.9230   22.3110  -21.4350 C.3   500  AXP500      0.1640
      3  C3       108.4250   21.0920  -20.5940 C.3   500  AXP500      0.0128
      4  C4       107.4470   20.2290  -21.4360 C.3   500  AXP500      0.0789
      5  C5       107.3070   20.6300  -22.9150 C.3   500  AXP500      0.0777
      6  C6       107.0550   22.1620  -23.0880 C.3   500  AXP500      0.1087
      7  C7       107.3140   22.6430  -24.4950 C.3   500  AXP500      0.1110
      8  C8       106.9610   24.0570  -24.7030 C.3   500  AXP500      0.1065
      9  C9       107.2080   24.5490  -26.1210 C.3   500  AXP500      0.0727
     10  C10      106.2940   19.1160  -24.5270 C.2   500  AXP500      0.2103
     11  C11      105.0560   18.4280  -24.9730 C.3   500  AXP500      0.0122
     12  N5       106.1580   19.8940  -23.4610 N.am  500  AXP500     -0.3076
     13  O1P      109.1500   24.7690  -20.0620 O.2   500  AXP500     -0.2537
     14  O2P      110.8740   23.1030  -19.4440 O.3   500  AXP500     -0.1383
     15  O3P      110.7640   23.9120  -21.4580 O.3   500  AXP500     -0.3208
     16  O4       107.8410   18.8800  -21.5150 O.3   500  AXP500     -0.3898
     17  O6       107.9520   22.9100  -22.2010 O.3   500  AXP500     -0.3565
     18  O7       108.6900   22.5560  -24.6360 O.3   500  AXP500     -0.3865
     19  O8       105.5940   24.0880  -24.4720 O.3   500  AXP500     -0.3869
     20  O9       106.0450   24.5220  -26.9040 O.3   500  AXP500     -0.3924
     21  O10      107.3520   18.9830  -25.1090 O.2   500  AXP500     -0.2761
     22  H2       109.5940   21.9450  -22.2250 H     500  AXP500      0.0725
     23  H31      107.9840   21.2580  -19.5770 H     500  AXP500      0.0322
     24  H32      109.3360   20.5350  -20.3420 H     500  AXP500      0.0322
     25  H4       106.4560   20.3050  -20.9580 H     500  AXP500      0.0613
     26  H5       108.2740   20.4160  -23.4130 H     500  AXP500      0.0550
     27  H6       106.0120   22.3690  -22.7990 H     500  AXP500      0.0642
     28  H7       106.8030   22.0300  -25.2580 H     500  AXP500      0.0646
     29  H8       107.4990   24.7110  -23.9820 H     500  AXP500      0.0643
     30  H91      108.0030   23.9560  -26.6050 H     500  AXP500      0.0584
     31  H92      107.6150   25.5740  -26.1000 H     500  AXP500      0.0584
     32 H111      104.5040   18.0000  -24.1240 H     500  AXP500      0.0322
     33 H112      105.3050   17.6200  -25.6740 H     500  AXP500      0.0322
     34 H113      104.4310   19.1450  -25.5070 H     500  AXP500      0.0322
     35  HN5      105.3020   19.9910  -22.9880 H     500  AXP500      0.1491
     36 HOP3      111.5270   24.3470  -21.0630 H     500  AXP500      0.2199
     37  HO4      107.4550   18.4840  -22.3120 H     500  AXP500      0.2099
     38  HO7      109.0780   22.7940  -23.7620 H     500  AXP500      0.2100
     39  HO8      105.4620   24.5490  -23.6340 H     500  AXP500      0.2100
     40  HO9      105.3980   24.0680  -26.3540 H     500  AXP500      0.2095
@<TRIPOS>BOND
     1    20    40    1
     2    20     9    1
     3    30     9    1
     4     9    31    1
     5     9     8    1
     6    33    11    1
     7    34    11    1
     8    28     7    1
     9    21    10    2
    10    11    10    1
    11    11    32    1
    12     8     7    1
    13     8    19    1
    14     8    29    1
    15    18     7    1
    16    18    38    1
    17    10    12   am
    18     7     6    1
    19    19    39    1
    20    12    35    1
    21    12     5    1
    22    26     5    1
    23     6     5    1
    24     6    27    1
    25     6    17    1
    26     5     4    1
    27    37    16    1
    28    22     2    1
    29    17     2    1
    30    16     4    1
    31    15    36    1
    32    15     1    1
    33     4    25    1
    34     4     3    1
    35     2     3    1
    36     2     1    1
    37     3    24    1
    38     3    23    1
    39     1    13    2
    40     1    14    1
