@<TRIPOS>MOLECULE
1inx_EQP_A_1.pdb
 40 40 0 0 0
SMALL
GASTEIGER

@<TRIPOS>ATOM
      1  P1       109.8230   23.5910  -20.5170 P.3   500  EQP500      0.3855
      2  C2       108.4980   22.4650  -21.0410 C.3   500  EQP500      0.1640
      3  C3       108.7770   20.9540  -20.8690 C.3   500  EQP500      0.0128
      4  C4       107.5660   20.2370  -21.5020 C.3   500  EQP500      0.0789
      5  C5       107.3760   20.6380  -22.9710 C.3   500  EQP500      0.0777
      6  C6       107.2680   22.1730  -23.0810 C.3   500  EQP500      0.1087
      7  C7       107.2940   22.5870  -24.5080 C.3   500  EQP500      0.1110
      8  C8       107.0750   24.0530  -24.6650 C.3   500  EQP500      0.1065
      9  C9       107.1760   24.5540  -26.1020 C.3   500  EQP500      0.0727
     10  C10      106.3230   19.0070  -24.3820 C.2   500  EQP500      0.2103
     11  C11      105.0580   18.3420  -24.8840 C.3   500  EQP500      0.0122
     12  N5       106.1740   19.9830  -23.4920 N.am  500  EQP500     -0.3076
     13  O1P      110.9170   23.2930  -21.4430 O.2   500  EQP500     -0.2537
     14  O2P      110.5370   23.3770  -19.2680 O.3   500  EQP500     -0.1383
     15  O3P      109.2430   24.9730  -20.6100 O.3   500  EQP500     -0.3208
     16  O4       107.6650   18.8260  -21.4780 O.3   500  EQP500     -0.3898
     17  O6       108.4040   22.7020  -22.4560 O.3   500  EQP500     -0.3565
     18  O7       108.5880   22.2850  -24.9570 O.3   500  EQP500     -0.3865
     19  O8       105.7870   24.3620  -24.2460 O.3   500  EQP500     -0.3869
     20  O9       106.0110   24.2140  -26.8750 O.3   500  EQP500     -0.3924
     21  O10      107.4390   18.6320  -24.7900 O.2   500  EQP500     -0.2761
     22  H2       107.5850   22.7710  -20.6120 H     500  EQP500      0.0725
     23  H31      108.9600   20.7200  -19.8040 H     500  EQP500      0.0322
     24  H32      109.6970   20.7390  -21.4070 H     500  EQP500      0.0322
     25  H4       106.6710   20.5220  -20.9220 H     500  EQP500      0.0613
     26  H5       108.3020   20.3540  -23.5060 H     500  EQP500      0.0550
     27  H6       106.3470   22.5130  -22.5730 H     500  EQP500      0.0642
     28  H7       106.5390   22.0190  -25.0730 H     500  EQP500      0.0646
     29  H8       107.8190   24.5850  -24.0360 H     500  EQP500      0.0643
     30  H91      108.0990   24.1810  -26.5700 H     500  EQP500      0.0584
     31  H92      107.2670   25.6480  -26.0440 H     500  EQP500      0.0584
     32 H111      104.1540   18.7650  -24.4230 H     500  EQP500      0.0322
     33 H112      105.0910   17.2640  -24.6930 H     500  EQP500      0.0322
     34 H113      104.9740   18.4880  -25.9660 H     500  EQP500      0.0322
     35  HN5      105.3000   20.3110  -23.2010 H     500  EQP500      0.1491
     36 HOP3      109.5430   25.5310  -19.8870 H     500  EQP500      0.2199
     37  HO4      107.7290   18.4670  -22.3760 H     500  EQP500      0.2099
     38  HO7      109.1490   22.2710  -24.1580 H     500  EQP500      0.2100
     39  HO8      105.8780   24.7340  -23.3540 H     500  EQP500      0.2100
     40  HO9      105.2980   24.1220  -26.2180 H     500  EQP500      0.2095
@<TRIPOS>BOND
     1    20    40    1
     2    20     9    1
     3    30     9    1
     4     9    31    1
     5     9     8    1
     6    34    11    1
     7    28     7    1
     8    18     7    1
     9    18    38    1
    10    11    33    1
    11    11    32    1
    12    11    10    1
    13    21    10    2
    14     8     7    1
    15     8    19    1
    16     8    29    1
    17     7     6    1
    18    10    12   am
    19    19    39    1
    20    26     5    1
    21    12    35    1
    22    12     5    1
    23     6     5    1
    24     6    27    1
    25     6    17    1
    26     5     4    1
    27    17     2    1
    28    37    16    1
    29     4    16    1
    30     4    25    1
    31     4     3    1
    32    13     1    2
    33    24     3    1
    34     2     3    1
    35     2    22    1
    36     2     1    1
    37     3    23    1
    38    15     1    1
    39    15    36    1
    40     1    14    1
