@<TRIPOS>MOLECULE
1inx_NAG_A_1.pdb
 28 28 0 0 0
SMALL
GASTEIGER

@<TRIPOS>ATOM
      1  C1        73.4900   21.2360  -10.4970 C.3   470  NAG470      0.1078
      2  C2        72.0910   21.7010  -10.8050 C.3   470  NAG470      0.0801
      3  C3        71.3260   21.7530   -9.5290 C.3   470  NAG470      0.1043
      4  C4        71.3340   20.3960   -8.7890 C.3   470  NAG470      0.1110
      5  C5        72.8040   20.0480   -8.5150 C.3   470  NAG470      0.1104
      6  C6        73.0070   18.7440   -7.7940 C.3   470  NAG470      0.0729
      7  C7        72.2120   23.2670  -12.7160 C.2   470  NAG470      0.2103
      8  C8        72.0880   24.6960  -13.1820 C.3   470  NAG470      0.0122
      9  N2        72.0120   23.0150  -11.4260 N.am  470  NAG470     -0.3075
     10  O3        69.9860   22.1170   -9.7750 O.3   470  NAG470     -0.3872
     11  O4        70.5480   20.5100   -7.6000 O.3   470  NAG470     -0.3865
     12  O5        73.4700   19.9900   -9.7790 O.3   470  NAG470     -0.3639
     13  O6        72.7130   17.7120   -8.6780 O.3   470  NAG470     -0.3924
     14  O7        72.4950   22.3920  -13.5390 O.2   470  NAG470     -0.2761
     15  H1        74.0220   21.9830   -9.8760 H     470  NAG470      0.0642
     16  H2        71.6120   20.9570  -11.4660 H     470  NAG470      0.0551
     17  H3        71.7750   22.5090   -8.8600 H     470  NAG470      0.0639
     18  H4        70.8920   19.6170   -9.4370 H     470  NAG470      0.0646
     19  H5        73.2580   20.8450   -7.8960 H     470  NAG470      0.0646
     20  H61       72.3750   18.6880   -6.8970 H     470  NAG470      0.0584
     21  H62       74.0550   18.6530   -7.4720 H     470  NAG470      0.0584
     22  H81       71.6260   24.7300  -14.1780 H     470  NAG470      0.0322
     23  H82       73.0820   25.1490  -13.2280 H     470  NAG470      0.0322
     24  H83       71.4550   25.2870  -12.5050 H     470  NAG470      0.0322
     25  HN2       71.7800   23.7560  -10.8330 H     470  NAG470      0.1491
     26  HO3       69.4990   21.8700   -8.9740 H     470  NAG470      0.2100
     27  HO4       70.2880   19.6270   -7.3140 H     470  NAG470      0.2100
     28  HO6       73.1150   17.9410   -9.5300 H     470  NAG470      0.2095
@<TRIPOS>BOND
     1    22     8    1
     2    14     7    2
     3    23     8    1
     4     8     7    1
     5     8    24    1
     6     7     9   am
     7    16     2    1
     8     9    25    1
     9     9     2    1
    10     2     1    1
    11     2     3    1
    12     1    15    1
    13     1    12    1
    14    12     5    1
    15    10     3    1
    16    10    26    1
    17    28    13    1
    18     3    17    1
    19     3     4    1
    20    18     4    1
    21     4     5    1
    22     4    11    1
    23    13     6    1
    24     5    19    1
    25     5     6    1
    26     6    21    1
    27     6    20    1
    28    11    27    1
