@<TRIPOS>MOLECULE
1iny_NAG_A_1.pdb
 28 28 0 0 0
SMALL
GASTEIGER

@<TRIPOS>ATOM
      1  C1        17.2560   18.6250   30.0450 C.3   470  NAG470      0.1078
      2  C2        16.0040   18.0520   29.3310 C.3   470  NAG470      0.0801
      3  C3        16.5450   16.8300   28.5420 C.3   470  NAG470      0.1043
      4  C4        17.5650   17.2880   27.4870 C.3   470  NAG470      0.1110
      5  C5        18.7300   18.1480   28.1840 C.3   470  NAG470      0.1104
      6  C6        19.5930   19.0200   27.2220 C.3   470  NAG470      0.0729
      7  C7        13.6670   17.5170   29.9950 C.2   470  NAG470      0.2103
      8  C8        12.7440   17.2080   31.1480 C.3   470  NAG470      0.0122
      9  N2        14.9450   17.7340   30.2960 N.am  470  NAG470     -0.3075
     10  O3        15.5420   16.0680   27.8820 O.3   470  NAG470     -0.3872
     11  O4        18.0210   16.0950   26.8820 O.3   470  NAG470     -0.3865
     12  O5        18.2000   19.1100   29.1140 O.3   470  NAG470     -0.3639
     13  O6        20.2060   20.0740   27.9650 O.3   470  NAG470     -0.3924
     14  O7        13.2420   17.5430   28.8450 O.2   470  NAG470     -0.2761
     15  H1        17.7580   17.8580   30.6660 H     470  NAG470      0.0642
     16  H2        15.6130   18.8050   28.6260 H     470  NAG470      0.0551
     17  H3        17.0710   16.1600   29.2440 H     470  NAG470      0.0639
     18  H4        17.0540   17.9080   26.7300 H     470  NAG470      0.0646
     19  H5        19.3940   17.4650   28.7430 H     470  NAG470      0.0646
     20  H61       18.9630   19.4510   26.4290 H     470  NAG470      0.0584
     21  H62       20.3600   18.3930   26.7340 H     470  NAG470      0.0584
     22  H81       13.1040   17.6590   32.0830 H     470  NAG470      0.0322
     23  H82       12.6640   16.1220   31.2790 H     470  NAG470      0.0322
     24  H83       11.7430   17.6110   30.9390 H     470  NAG470      0.0322
     25  HN2       15.2080   17.6410   31.2400 H     470  NAG470      0.1491
     26  HO3       14.7000   16.5510   27.9320 H     470  NAG470      0.2100
     27  HO4       17.2610   15.4920   26.9340 H     470  NAG470      0.2100
     28  HO6       19.7550   20.1280   28.8170 H     470  NAG470      0.2095
@<TRIPOS>BOND
     1    20     6    1
     2    18     4    1
     3    21     6    1
     4    11    27    1
     5    11     4    1
     6     6    13    1
     7     6     5    1
     8     4     5    1
     9     4     3    1
    10    10    26    1
    11    10     3    1
    12    13    28    1
    13     5    19    1
    14     5    12    1
    15     3    17    1
    16     3     2    1
    17    16     2    1
    18    14     7    2
    19    12     1    1
    20     2     1    1
    21     2     9    1
    22     7     9   am
    23     7     8    1
    24     1    15    1
    25     9    25    1
    26    24     8    1
    27     8    23    1
    28     8    22    1
