@<TRIPOS>MOLECULE
1iny_EQP_A_1.pdb
 40 40 0 0 0
SMALL
GASTEIGER

@<TRIPOS>ATOM
      1  P1        24.5140   20.5700   67.1690 P.3   500  EQP500      0.3855
      2  C2        25.1180   19.4760   65.8080 C.3   500  EQP500      0.1640
      3  C3        24.8200   17.9910   66.0420 C.3   500  EQP500      0.0128
      4  C4        25.2180   17.1750   64.8620 C.3   500  EQP500      0.0789
      5  C5        26.7320   17.1690   64.7770 C.3   500  EQP500      0.0777
      6  C6        27.2110   18.6830   64.6700 C.3   500  EQP500      0.1087
      7  C7        28.7150   18.9520   64.8350 C.3   500  EQP500      0.1110
      8  C8        28.8970   20.4470   64.5090 C.3   500  EQP500      0.1065
      9  C9        30.3380   20.8360   64.9470 C.3   500  EQP500      0.0727
     10  C10       27.9530   15.3860   63.6290 C.2   500  EQP500      0.2103
     11  C11       28.2230   14.6230   62.3410 C.3   500  EQP500      0.0122
     12  N5        27.0590   16.3680   63.5710 N.am  500  EQP500     -0.3076
     13  O1P       24.4910   19.7510   68.3670 O.3   500  EQP500     -0.1383
     14  O2P       25.4460   21.6730   67.3540 O.2   500  EQP500     -0.2537
     15  O3P       23.1290   21.0790   67.3730 O.3   500  EQP500     -0.3208
     16  O4        24.7340   15.9090   64.9430 O.3   500  EQP500     -0.3898
     17  O6        26.5510   19.5480   65.7040 O.3   500  EQP500     -0.3565
     18  O7        29.0660   18.6120   66.1730 O.3   500  EQP500     -0.3865
     19  O8        28.6580   20.6520   63.0810 O.3   500  EQP500     -0.3869
     20  O9        31.2970   20.3710   63.9980 O.3   500  EQP500     -0.3924
     21  O10       28.5320   15.0550   64.6820 O.2   500  EQP500     -0.2761
     22  H2        24.7580   19.7670   64.8490 H     500  EQP500      0.0725
     23  H31       23.7480   17.8940   66.2560 H     500  EQP500      0.0322
     24  H32       25.3930   17.7010   66.9330 H     500  EQP500      0.0322
     25  H4        24.8100   17.6140   63.9320 H     500  EQP500      0.0613
     26  H5        27.1660   16.7500   65.7050 H     500  EQP500      0.0550
     27  H6        26.8770   19.0590   63.6820 H     500  EQP500      0.0642
     28  H7        29.3290   18.3640   64.1430 H     500  EQP500      0.0646
     29  H8        28.2090   21.0700   65.1180 H     500  EQP500      0.0643
     30  H91       30.5940   20.4730   65.9600 H     500  EQP500      0.0584
     31  H92       30.3740   21.9330   65.0160 H     500  EQP500      0.0584
     32 H111       28.8540   15.2460   61.6890 H     500  EQP500      0.0322
     33 H112       27.2670   14.3920   61.8510 H     500  EQP500      0.0322
     34 H113       28.7550   13.6910   62.5890 H     500  EQP500      0.0322
     35  HN5       26.5320   16.5040   62.7460 H     500  EQP500      0.1491
     36 HOP3       23.0870   21.4000   68.2740 H     500  EQP500      0.2199
     37  HO4       25.2100   15.3250   64.3330 H     500  EQP500      0.2099
     38  HO7       28.3130   18.8710   66.7450 H     500  EQP500      0.2100
     39  HO8       29.5640   20.7590   62.7490 H     500  EQP500      0.2100
     40  HO9       32.0490   20.0030   64.4720 H     500  EQP500      0.2095
@<TRIPOS>BOND
     1    32    11    1
     2    33    11    1
     3    11    34    1
     4    11    10    1
     5    35    12    1
     6    39    19    1
     7    19     8    1
     8    12    10   am
     9    12     5    1
    10    10    21    2
    11    27     6    1
    12    25     4    1
    13    20    40    1
    14    20     9    1
    15    28     7    1
    16    37    16    1
    17     8     7    1
    18     8     9    1
    19     8    29    1
    20     6     5    1
    21     6     7    1
    22     6    17    1
    23     5     4    1
    24     5    26    1
    25     7    18    1
    26    22     2    1
    27     4    16    1
    28     4     3    1
    29     9    31    1
    30     9    30    1
    31    17     2    1
    32     2     3    1
    33     2     1    1
    34     3    23    1
    35     3    24    1
    36    18    38    1
    37     1    14    2
    38     1    15    1
    39     1    13    1
    40    15    36    1
