@<TRIPOS>MOLECULE
1io3_HEM_A_1.pdb
 43 50 0 0 0
SMALL
GASTEIGER

@<TRIPOS>ATOM
      1 FE         20.6410  -19.2310   13.7750 Fe    108  HEM108      0.0000
      2  CHA       23.2330  -21.3560   14.2020 C.2   108  HEM108      0.0000
      3  CHB       22.6510  -16.6120   14.4460 C.2   108  HEM108      0.0000
      4  CHC       18.1100  -17.0740   12.9780 C.2   108  HEM108      0.0000
      5  CHD       18.5140  -21.8650   13.5190 C.2   108  HEM108      0.0000
      6  NA        22.5660  -19.0150   14.0530 N.2   108  HEM108      0.0000
      7  C1A       23.5240  -20.0050   14.2020 C.2   108  HEM108      0.0000
      8  C2A       24.8480  -19.4420   14.4690 C.2   108  HEM108      0.0000
      9  C3A       24.6670  -18.0940   14.5100 C.2   108  HEM108      0.0000
     10  C4A       23.2430  -17.8520   14.3360 C.2   108  HEM108      0.0000
     11  CMA       25.7330  -17.0190   14.7740 C.3   108  HEM108      0.0000
     12  CAA       26.1770  -20.1850   14.7440 C.3   108  HEM108      0.0000
     13  CBA       26.2250  -20.6230   16.2030 C.3   108  HEM108      0.0000
     14  CGA       27.5430  -21.2610   16.6270 C.2   108  HEM108      0.0000
     15  O1A       28.4310  -21.4830   15.7790 O.co2 108  HEM108      0.0000
     16  O2A       27.6690  -21.5460   17.8300 O.co2 108  HEM108      0.0000
     17  NB        20.4240  -17.2450   13.7420 N.ar  108  HEM108      0.0000
     18  C1B       21.3490  -16.3080   14.1510 C.ar  108  HEM108      0.0000
     19  C2B       20.8270  -14.9650   14.0890 C.ar  108  HEM108      0.0000
     20  C3B       19.5540  -15.0770   13.5890 C.ar  108  HEM108      0.0000
     21  C4B       19.3120  -16.5030   13.3780 C.ar  108  HEM108      0.0000
     22  CMB       21.5690  -13.6970   14.5110 C.3   108  HEM108      0.0000
     23  CAB       18.4320  -14.0680   13.3010 C.3   108  HEM108      0.0000
     24  CBB       18.9150  -13.0720   12.2660 C.3   108  HEM108      0.0000
     25  NC        18.6820  -19.4140   13.3340 N.2   108  HEM108      0.0000
     26  C1C       17.7830  -18.4050   12.9830 C.2   108  HEM108      0.0000
     27  C2C       16.4690  -18.9290   12.7090 C.2   108  HEM108      0.0000
     28  C3C       16.5820  -20.2760   12.9420 C.2   108  HEM108      0.0000
     29  C4C       17.9670  -20.5890   13.3020 C.2   108  HEM108      0.0000
     30  CMC       15.2310  -18.1690   12.2150 C.3   108  HEM108      0.0000
     31  CAC       15.5660  -21.4260   12.9730 C.3   108  HEM108      0.0000
     32  CBC       14.5790  -21.4930   11.8100 C.3   108  HEM108      0.0000
     33  ND        20.8310  -21.2380   13.9270 N.ar  108  HEM108      0.0000
     34  C1D       19.8270  -22.1940   13.7620 C.ar  108  HEM108      0.0000
     35  C2D       20.4040  -23.5410   13.7610 C.ar  108  HEM108      0.0000
     36  C3D       21.7360  -23.3980   14.0590 C.ar  108  HEM108      0.0000
     37  C4D       22.0010  -21.9620   14.0860 C.ar  108  HEM108      0.0000
     38  CMD       19.7180  -24.8570   13.4570 C.3   108  HEM108      0.0000
     39  CAD       22.7490  -24.5250   14.0230 C.3   108  HEM108      0.0000
     40  CBD       23.1450  -24.6690   12.5590 C.3   108  HEM108      0.0000
     41  CGD       24.0450  -25.8590   12.2990 C.2   108  HEM108      0.0000
     42  O1D       24.4400  -26.0680   11.1260 O.co2 108  HEM108      0.0000
     43  O2D       24.3540  -26.5830   13.2710 O.co2 108  HEM108      0.0000
@<TRIPOS>BOND
     1    42    41   ar
     2    32    31    1
     3    30    27    1
     4    24    23    1
     5    41    40    1
     6    41    43   ar
     7    40    39    1
     8    27    28    2
     9    27    26    1
    10    28    31    1
    11    28    29    1
    12     4    26    2
    13     4    21    1
    14    26    25    1
    15    23    20    1
    16    29    25    2
    17    29     5    1
    18    25     1    1
    19    21    20   ar
    20    21    17   ar
    21    38    35    1
    22     5    34    2
    23    20    19   ar
    24    17     1    1
    25    17    18   ar
    26    35    34   ar
    27    35    36   ar
    28    34    33   ar
    29     1    33    1
    30     1     6    1
    31    33    37   ar
    32    39    36    1
    33     6     7    2
    34     6    10    1
    35    36    37   ar
    36    37     2    2
    37    19    18   ar
    38    19    22    1
    39    18     3    1
    40     2     7    1
    41     7     8    1
    42    10     3    2
    43    10     9    1
    44     8     9    2
    45     8    12    1
    46     9    11    1
    47    12    13    1
    48    15    14   ar
    49    13    14    1
    50    14    16   ar
