@<TRIPOS>MOLECULE
1io7_HEM_A_1.pdb
 43 50 0 0 0
SMALL
GASTEIGER

@<TRIPOS>ATOM
      1 FE         39.1770   11.7770   45.2090 Fe    1401  HEM1401     0.0000
      2  CHA       36.5780   13.3400   43.5920 C.2   1401  HEM1401     0.0000
      3  CHB       38.0110   12.9680   48.2080 C.2   1401  HEM1401     0.0000
      4  CHC       41.6240   10.0450   46.8560 C.2   1401  HEM1401     0.0000
      5  CHD       40.5490   10.9090   42.1840 C.2   1401  HEM1401     0.0000
      6  NA        37.6570   12.9280   45.7450 N.2   1401  HEM1401     0.0000
      7  C1A       36.6130   13.4220   44.9640 C.2   1401  HEM1401     0.0000
      8  C2A       35.5840   14.0730   45.7840 C.2   1401  HEM1401     0.0000
      9  C3A       36.0500   14.0250   47.0690 C.2   1401  HEM1401     0.0000
     10  C4A       37.2980   13.3170   47.0460 C.2   1401  HEM1401     0.0000
     11  CMA       35.4030   14.6670   48.2750 C.3   1401  HEM1401     0.0000
     12  CAA       34.2480   14.6770   45.3240 C.3   1401  HEM1401     0.0000
     13  CBA       34.3930   16.1630   45.0300 C.3   1401  HEM1401     0.0000
     14  CGA       33.0680   16.8460   44.6910 C.2   1401  HEM1401     0.0000
     15  O1A       31.9930   16.2260   44.8730 O.co2 1401  HEM1401     0.0000
     16  O2A       33.1020   18.0130   44.2490 O.co2 1401  HEM1401     0.0000
     17  NB        39.7590   11.6220   47.1240 N.ar  1401  HEM1401     0.0000
     18  C1B       39.1450   12.1690   48.2380 C.ar  1401  HEM1401     0.0000
     19  C2B       39.7330   11.6320   49.5090 C.ar  1401  HEM1401     0.0000
     20  C3B       40.7670   10.8210   49.1000 C.ar  1401  HEM1401     0.0000
     21  C4B       40.7720   10.8180   47.6300 C.ar  1401  HEM1401     0.0000
     22  CMB       39.1980   11.8180   50.9560 C.3   1401  HEM1401     0.0000
     23  CAB       41.6950   10.1120   49.8880 C.3   1401  HEM1401     0.0000
     24  CBB       41.3790    9.4320   51.0800 C.3   1401  HEM1401     0.0000
     25  NC        40.7670   10.7360   44.6500 N.2   1401  HEM1401     0.0000
     26  C1C       41.6410    9.9990   45.4770 C.2   1401  HEM1401     0.0000
     27  C2C       42.5720    9.1850   44.6910 C.2   1401  HEM1401     0.0000
     28  C3C       42.3080    9.4800   43.3600 C.2   1401  HEM1401     0.0000
     29  C4C       41.1940   10.4390   43.3480 C.2   1401  HEM1401     0.0000
     30  CMC       43.5690    8.1630   45.2420 C.3   1401  HEM1401     0.0000
     31  CAC       42.9460    8.8920   42.2490 C.3   1401  HEM1401     0.0000
     32  CBC       43.5610    9.6200   41.2080 C.3   1401  HEM1401     0.0000
     33  ND        38.7040   12.1490   43.3070 N.ar  1401  HEM1401     0.0000
     34  C1D       39.4060   11.7200   42.1640 C.ar  1401  HEM1401     0.0000
     35  C2D       38.7270   12.1130   40.9390 C.ar  1401  HEM1401     0.0000
     36  C3D       37.6010   12.8000   41.3450 C.ar  1401  HEM1401     0.0000
     37  C4D       37.5850   12.8010   42.8200 C.ar  1401  HEM1401     0.0000
     38  CMD       39.2060   11.7980   39.5240 C.3   1401  HEM1401     0.0000
     39  CAD       36.4890   13.3840   40.4820 C.3   1401  HEM1401     0.0000
     40  CBD       35.4470   12.3360   40.0810 C.3   1401  HEM1401     0.0000
     41  CGD       34.2300   12.9490   39.4050 C.2   1401  HEM1401     0.0000
     42  O1D       33.3470   12.1860   38.9370 O.co2 1401  HEM1401     0.0000
     43  O2D       34.1630   14.1970   39.3530 O.co2 1401  HEM1401     0.0000
@<TRIPOS>BOND
     1    42    41   ar
     2    43    41   ar
     3    41    40    1
     4    38    35    1
     5    40    39    1
     6    39    36    1
     7    35    36   ar
     8    35    34   ar
     9    32    31    1
    10    36    37   ar
    11    34     5    2
    12    34    33   ar
    13     5    29    1
    14    31    28    1
    15    37    33   ar
    16    37     2    2
    17    33     1    1
    18    29    28    1
    19    29    25    2
    20    28    27    2
    21     2     7    1
    22    16    14   ar
    23    25     1    1
    24    25    26    1
    25    14    15   ar
    26    14    13    1
    27    27    30    1
    28    27    26    1
    29     7     6    2
    30     7     8    1
    31    13    12    1
    32     1     6    1
    33     1    17    1
    34    12     8    1
    35    26     4    2
    36     6    10    1
    37     8     9    2
    38     4    21    1
    39    10     9    1
    40    10     3    2
    41     9    11    1
    42    17    21   ar
    43    17    18   ar
    44    21    20   ar
    45     3    18    1
    46    18    19   ar
    47    20    19   ar
    48    20    23    1
    49    19    22    1
    50    23    24    1
