@<TRIPOS>MOLECULE
1io8_HEM_A_1.pdb
 43 50 0 0 0
SMALL
GASTEIGER

@<TRIPOS>ATOM
      1 FE         39.1020   11.7430   45.1080 Fe    401  HEM401      0.0000
      2  CHA       36.4100   13.1970   43.4770 C.2   401  HEM401      0.0000
      3  CHB       37.8370   12.8460   48.1320 C.2   401  HEM401      0.0000
      4  CHC       41.4730    9.8990   46.8820 C.2   401  HEM401      0.0000
      5  CHD       40.3950   10.6730   42.1150 C.2   401  HEM401      0.0000
      6  NA        37.5270   12.7890   45.6680 N.2   401  HEM401      0.0000
      7  C1A       36.4700   13.2650   44.8770 C.2   401  HEM401      0.0000
      8  C2A       35.4460   13.8650   45.7100 C.2   401  HEM401      0.0000
      9  C3A       35.8850   13.8400   47.0180 C.2   401  HEM401      0.0000
     10  C4A       37.1540   13.1560   46.9810 C.2   401  HEM401      0.0000
     11  CMA       35.2700   14.5610   48.2140 C.3   401  HEM401      0.0000
     12  CAA       34.1330   14.4680   45.2090 C.3   401  HEM401      0.0000
     13  CBA       34.2760   15.9550   44.9010 C.3   401  HEM401      0.0000
     14  CGA       32.9720   16.6010   44.4910 C.2   401  HEM401      0.0000
     15  O1A       31.9250   15.9210   44.5110 O.co2 401  HEM401      0.0000
     16  O2A       32.9880   17.7980   44.1550 O.co2 401  HEM401      0.0000
     17  NB        39.6420   11.5500   47.0960 N.ar  401  HEM401      0.0000
     18  C1B       38.9830   12.0790   48.2050 C.ar  401  HEM401      0.0000
     19  C2B       39.5330   11.5660   49.4950 C.ar  401  HEM401      0.0000
     20  C3B       40.5780   10.7710   49.1070 C.ar  401  HEM401      0.0000
     21  C4B       40.6320   10.7430   47.6360 C.ar  401  HEM401      0.0000
     22  CMB       38.9780   11.7370   50.9370 C.3   401  HEM401      0.0000
     23  CAB       41.5010   10.1880   49.9720 C.3   401  HEM401      0.0000
     24  CBB       41.2580    9.0290   50.7200 C.3   401  HEM401      0.0000
     25  NC        40.5890   10.5530   44.6310 N.2   401  HEM401      0.0000
     26  C1C       41.4460    9.7990   45.4870 C.2   401  HEM401      0.0000
     27  C2C       42.3960    9.0280   44.6910 C.2   401  HEM401      0.0000
     28  C3C       42.1970    9.3350   43.3810 C.2   401  HEM401      0.0000
     29  C4C       41.0520   10.2650   43.3170 C.2   401  HEM401      0.0000
     30  CMC       43.4470    8.0290   45.1440 C.3   401  HEM401      0.0000
     31  CAC       42.9240    8.7750   42.3350 C.3   401  HEM401      0.0000
     32  CBC       43.4480    9.5170   41.2710 C.3   401  HEM401      0.0000
     33  ND        38.5040   11.8850   43.1750 N.ar  401  HEM401      0.0000
     34  C1D       39.2060   11.4180   42.0560 C.ar  401  HEM401      0.0000
     35  C2D       38.5530   11.8590   40.7950 C.ar  401  HEM401      0.0000
     36  C3D       37.4280   12.5720   41.1490 C.ar  401  HEM401      0.0000
     37  C4D       37.3860   12.5690   42.6570 C.ar  401  HEM401      0.0000
     38  CMD       39.1050   11.5650   39.3960 C.3   401  HEM401      0.0000
     39  CAD       36.4590   13.2660   40.2120 C.3   401  HEM401      0.0000
     40  CBD       35.4590   12.2550   39.6660 C.3   401  HEM401      0.0000
     41  CGD       34.1510   12.8840   39.2290 C.2   401  HEM401      0.0000
     42  O1D       33.2050   12.1230   38.9360 O.co2 401  HEM401      0.0000
     43  O2D       34.0610   14.1320   39.1790 O.co2 401  HEM401      0.0000
@<TRIPOS>BOND
     1    42    41   ar
     2    43    41   ar
     3    41    40    1
     4    38    35    1
     5    40    39    1
     6    39    36    1
     7    35    36   ar
     8    35    34   ar
     9    36    37   ar
    10    32    31    1
    11    34     5    2
    12    34    33   ar
    13     5    29    1
    14    31    28    1
    15    37    33   ar
    16    37     2    2
    17    33     1    1
    18    29    28    1
    19    29    25    2
    20    28    27    2
    21     2     7    1
    22    16    14   ar
    23    14    15   ar
    24    14    13    1
    25    25     1    1
    26    25    26    1
    27    27    30    1
    28    27    26    1
    29     7     6    2
    30     7     8    1
    31    13    12    1
    32     1     6    1
    33     1    17    1
    34    12     8    1
    35    26     4    2
    36     6    10    1
    37     8     9    2
    38     4    21    1
    39    10     9    1
    40    10     3    2
    41     9    11    1
    42    17    21   ar
    43    17    18   ar
    44    21    20   ar
    45     3    18    1
    46    18    19   ar
    47    20    19   ar
    48    20    23    1
    49    19    22    1
    50    23    24    1
