@<TRIPOS>MOLECULE
1io9_HEM_A_1.pdb
 43 50 0 0 0
SMALL
GASTEIGER

@<TRIPOS>ATOM
      1 FE         39.6400   12.3890   46.0450 Fe    401  HEM401      0.0000
      2  CHA       37.0690   13.9540   44.4410 C.2   401  HEM401      0.0000
      3  CHB       38.3580   13.5010   49.0720 C.2   401  HEM401      0.0000
      4  CHC       42.0800   10.7070   47.7610 C.2   401  HEM401      0.0000
      5  CHD       41.0500   11.4610   43.0620 C.2   401  HEM401      0.0000
      6  NA        38.0780   13.4950   46.6610 N.2   401  HEM401      0.0000
      7  C1A       37.0640   14.0280   45.8670 C.2   401  HEM401      0.0000
      8  C2A       35.9950   14.6340   46.7170 C.2   401  HEM401      0.0000
      9  C3A       36.4060   14.5870   48.0360 C.2   401  HEM401      0.0000
     10  C4A       37.6700   13.8430   47.9680 C.2   401  HEM401      0.0000
     11  CMA       35.7830   15.3310   49.2350 C.3   401  HEM401      0.0000
     12  CAA       34.6620   15.1860   46.2090 C.3   401  HEM401      0.0000
     13  CBA       34.7370   16.6280   45.7210 C.3   401  HEM401      0.0000
     14  CGA       33.3670   17.2220   45.3960 C.2   401  HEM401      0.0000
     15  O1A       32.3900   16.4540   45.3150 O.co2 401  HEM401      0.0000
     16  O2A       33.2600   18.4590   45.2240 O.co2 401  HEM401      0.0000
     17  NB        40.1730   12.2730   47.9940 N.ar  401  HEM401      0.0000
     18  C1B       39.5210   12.7750   49.0860 C.ar  401  HEM401      0.0000
     19  C2B       40.0700   12.2430   50.3280 C.ar  401  HEM401      0.0000
     20  C3B       41.1050   11.4460   49.9440 C.ar  401  HEM401      0.0000
     21  C4B       41.1790   11.4900   48.5150 C.ar  401  HEM401      0.0000
     22  CMB       39.5630   12.5240   51.7630 C.3   401  HEM401      0.0000
     23  CAB       41.9550   10.6580   50.7270 C.3   401  HEM401      0.0000
     24  CBB       41.6450   10.1980   52.0140 C.3   401  HEM401      0.0000
     25  NC        41.2250   11.3630   45.5370 N.2   401  HEM401      0.0000
     26  C1C       42.0690   10.6170   46.3690 C.2   401  HEM401      0.0000
     27  C2C       42.9940    9.7750   45.5840 C.2   401  HEM401      0.0000
     28  C3C       42.7710   10.0720   44.2650 C.2   401  HEM401      0.0000
     29  C4C       41.6760   11.0500   44.2310 C.2   401  HEM401      0.0000
     30  CMC       44.0180    8.7570   46.1120 C.3   401  HEM401      0.0000
     31  CAC       43.3940    9.4210   43.2050 C.3   401  HEM401      0.0000
     32  CBC       43.9380   10.0500   42.0810 C.3   401  HEM401      0.0000
     33  ND        39.1850   12.6500   44.1260 N.ar  401  HEM401      0.0000
     34  C1D       39.9070   12.2430   43.0130 C.ar  401  HEM401      0.0000
     35  C2D       39.2470   12.6470   41.7600 C.ar  401  HEM401      0.0000
     36  C3D       38.0900   13.2740   42.1580 C.ar  401  HEM401      0.0000
     37  C4D       38.0550   13.2980   43.6270 C.ar  401  HEM401      0.0000
     38  CMD       39.7480   12.3290   40.3330 C.3   401  HEM401      0.0000
     39  CAD       37.0010   13.8340   41.2830 C.3   401  HEM401      0.0000
     40  CBD       35.8680   12.8610   41.0740 C.3   401  HEM401      0.0000
     41  CGD       34.8040   13.4130   40.1480 C.2   401  HEM401      0.0000
     42  O1D       34.0660   12.6110   39.5220 O.co2 401  HEM401      0.0000
     43  O2D       34.7070   14.6570   40.0500 O.co2 401  HEM401      0.0000
@<TRIPOS>BOND
     1    42    41   ar
     2    43    41   ar
     3    41    40    1
     4    38    35    1
     5    40    39    1
     6    39    36    1
     7    35    36   ar
     8    35    34   ar
     9    32    31    1
    10    36    37   ar
    11    34     5    2
    12    34    33   ar
    13     5    29    1
    14    31    28    1
    15    37    33   ar
    16    37     2    2
    17    33     1    1
    18    29    28    1
    19    29    25    2
    20    28    27    2
    21     2     7    1
    22    16    14   ar
    23    15    14   ar
    24    14    13    1
    25    25     1    1
    26    25    26    1
    27    27    30    1
    28    27    26    1
    29    13    12    1
    30     7     6    2
    31     7     8    1
    32     1     6    1
    33     1    17    1
    34    12     8    1
    35    26     4    2
    36     6    10    1
    37     8     9    2
    38     4    21    1
    39    10     9    1
    40    10     3    2
    41    17    21   ar
    42    17    18   ar
    43     9    11    1
    44    21    20   ar
    45     3    18    1
    46    18    19   ar
    47    20    19   ar
    48    20    23    1
    49    19    22    1
    50    23    24    1
