@<TRIPOS>MOLECULE
1ioe_XMA_A_1.pdb
 38 43 0 0 0
SMALL
GASTEIGER

@<TRIPOS>ATOM
      1  C1         8.3470   25.0840    7.8500 C.ar  401  XMA401      0.0199
      2  C2         8.9400   23.8060    7.4930 C.ar  401  XMA401      0.1222
      3  C3         8.4310   24.4120   10.3660 C.ar  401  XMA401      0.0009
      4  C4         9.0310   23.1150    9.9840 C.ar  401  XMA401      0.0014
      5  C5         9.2790   22.8220    8.5890 C.ar  401  XMA401      0.0199
      6  C6         8.0750   25.4420    9.2330 C.ar  401  XMA401      0.0014
      7 CL7         7.2590   26.5410   13.7050 Cl    401  XMA401     -0.0822
      8  C8         7.4810   26.7460    9.5970 C.ar  401  XMA401      0.0009
      9  C9         8.1580   24.7910   11.7420 C.ar  401  XMA401      0.0114
     10  C10        7.2420   27.0500   10.9750 C.ar  401  XMA401      0.0114
     11  C11        7.5730   26.0910   12.0480 C.ar  401  XMA401      0.0577
     12  S12        9.1200   23.4260    5.8100 S.O2  401  XMA401      0.0639
     13  O13        9.1930   24.7640    5.0190 O.2   401  XMA401     -0.1528
     14  O14       10.3680   22.5560    5.5710 O.2   401  XMA401     -0.1528
     15  C15        5.3000   22.3270    4.3610 C.2   401  XMA401      0.2454
     16  O16        4.2540   22.8340    3.9630 O.2   401  XMA401     -0.2732
     17  C17        6.4750   23.2710    4.8040 C.3   401  XMA401      0.1808
     18  N18        7.7350   22.6310    5.2720 N.3   401  XMA401     -0.1420
     19  C19        6.8190   20.2920    4.9650 C.3   401  XMA401      0.1990
     20  C20        7.8640   19.8160    3.8740 C.3   401  XMA401      0.1901
     21  O21        7.3470   18.8520    2.9150 O.3   401  XMA401     -0.3467
     22  C22        8.2200   17.8990    2.4700 C.3   401  XMA401      0.1743
     23  C23        7.5860   21.3100    5.9160 C.3   401  XMA401      0.1455
     24  N24        5.5390   20.9110    4.4670 N.am  401  XMA401     -0.2541
     25  C25        4.4750   19.8970    4.6090 C.3   401  XMA401      0.1228
     26  C26        0.2220   15.0760    8.6370 C.ar  401  XMA401      0.1002
     27  N27        2.4770   17.8580    7.1020 N.pl3 401  XMA401     -0.3072
     28  C28        1.5310   17.1240    8.0060 C.ar  401  XMA401      0.0510
     29  C29        1.1310   15.7220    7.7440 C.ar  401  XMA401      0.0352
     30  C30        2.8850   19.3260    7.3880 C.3   401  XMA401      0.0933
     31  C31        0.9440   17.7630    9.2090 C.ar  401  XMA401      0.0352
     32  C32        3.0840   17.1810    5.8410 C.3   401  XMA401      0.0933
     33  C33        4.9770   19.0190    5.8030 C.3   401  XMA401      0.1161
     34  O34        6.4280   19.1570    5.7330 O.3   401  XMA401     -0.3406
     35  C35        4.4230   19.5200    7.2110 C.3   401  XMA401      0.0504
     36  N36       -0.3090   15.7030    9.7530 N.ar  401  XMA401     -0.2422
     37  C37        0.0420   17.0130   10.0330 C.ar  401  XMA401      0.1002
     38  C38        4.6160   17.4850    5.6990 C.3   401  XMA401      0.0504
@<TRIPOS>BOND
     1    22    21    1
     2    21    20    1
     3    20    19    1
     4    16    15    2
     5    15    24   am
     6    15    17    1
     7    24    25    1
     8    24    19    1
     9    25    33    1
    10    17    18    1
    11    19    34    1
    12    19    23    1
    13    13    12    2
    14    18    12    1
    15    18    23    1
    16    14    12    2
    17    38    33    1
    18    38    32    1
    19    34    33    1
    20    33    35    1
    21    12     2    1
    22    32    27    1
    23    27    30    1
    24    27    28    1
    25    35    30    1
    26     2     1   ar
    27     2     5   ar
    28    29    28   ar
    29    29    26   ar
    30     1     6   ar
    31    28    31   ar
    32     5     4   ar
    33    26    36   ar
    34    31    37   ar
    35     6     8   ar
    36     6     3   ar
    37     8    10   ar
    38    36    37   ar
    39     4     3   ar
    40     3     9   ar
    41    10    11   ar
    42     9    11   ar
    43    11     7    1
