@<TRIPOS>MOLECULE
1iol_EST_A_1.pdb
 20 23 0 0 0
SMALL
GASTEIGER

@<TRIPOS>ATOM
      1  C1        10.0640   11.5780  -11.5040 C.ar  400  EST400     -0.0013
      2  C2         9.2640   12.4160  -12.2960 C.ar  400  EST400      0.0417
      3  C3         9.0960   12.1290  -13.6500 C.ar  400  EST400      0.1954
      4  O3         8.6400   13.1090  -14.4960 O.3   400  EST400     -0.2866
      5  C4         9.4010   10.8450  -14.1380 C.ar  400  EST400      0.0375
      6  C5        10.1550    9.9490  -13.3310 C.ar  400  EST400     -0.0230
      7  C6        10.5790    8.5790  -13.9400 C.3   400  EST400      0.0261
      8  C7        11.5060    7.6940  -13.0320 C.3   400  EST400      0.0050
      9  C8        11.0990    7.8200  -11.5300 C.3   400  EST400      0.0044
     10  C9        11.2940    9.3260  -11.0890 C.3   400  EST400      0.0220
     11  C10       10.4930   10.3180  -11.9940 C.ar  400  EST400     -0.0263
     12  C11       11.0730    9.5040   -9.5540 C.3   400  EST400      0.0044
     13  C12       11.9120    8.5390   -8.6840 C.3   400  EST400      0.0028
     14  C13       11.6650    7.0490   -9.0310 C.3   400  EST400      0.0282
     15  C14       11.8900    6.8400  -10.5750 C.3   400  EST400      0.0028
     16  C15       11.7930    5.3000  -10.7220 C.3   400  EST400      0.0027
     17  C16       12.4900    4.7900   -9.4240 C.3   400  EST400      0.0329
     18  C17       12.7650    6.0570   -8.5550 C.3   400  EST400      0.1519
     19  O17       12.7240    5.7560   -7.1190 O.3   400  EST400     -0.2232
     20  C18       10.2440    6.6390   -8.4810 C.3   400  EST400      0.0025
@<TRIPOS>BOND
     1     4     3    1
     2     5     3   ar
     3     5     6   ar
     4     7     6    1
     5     7     8    1
     6     3     2   ar
     7     6    11   ar
     8     8     9    1
     9     2     1   ar
    10    11     1   ar
    11    11    10    1
    12     9    10    1
    13     9    15    1
    14    10    12    1
    15    16    15    1
    16    16    17    1
    17    15    14    1
    18    12    13    1
    19    17    18    1
    20    14    13    1
    21    14    18    1
    22    14    20    1
    23    18    19    1
