@<TRIPOS>MOLECULE
1ion_ADP_A_1.pdb
 27 29 0 0 0
SMALL
GASTEIGER

@<TRIPOS>ATOM
      1  PB       -20.3930   32.5140   39.0940 P.3   301  ADP301      0.5373
      2  O1B      -21.2270   32.8940   37.8970 O.2   301  ADP301     -0.2221
      3  O2B      -20.6440   31.0730   39.6660 O.3   301  ADP301     -0.1143
      4  O3B      -18.8840   32.7370   38.8540 O.3   301  ADP301     -0.1143
      5  PA       -20.0710   34.7760   40.8490 P.3   301  ADP301      0.2231
      6  O1A      -19.3190   35.4140   39.7230 O.2   301  ADP301     -0.5169
      7  O2A      -19.3880   34.4860   42.0910 O.3   301  ADP301     -0.4370
      8  O3A      -20.7890   33.4230   40.2760 O.3   301  ADP301     -0.2261
      9  O5'      -21.2600   35.7120   40.9920 O.3   301  ADP301     -0.3111
     10  C5'      -22.2200   35.4810   41.9390 C.3   301  ADP301      0.1813
     11  C4'      -22.8430   36.7840   42.3310 C.3   301  ADP301      0.1821
     12  O4'      -23.4190   36.4240   43.6120 O.3   301  ADP301     -0.3135
     13  C3'      -21.9060   38.0050   42.6490 C.3   301  ADP301      0.2184
     14  O3'      -22.7070   39.2100   42.5500 O.3   301  ADP301     -0.2174
     15  C2'      -21.4800   37.8520   44.1950 C.3   301  ADP301      0.2570
     16  O2'      -21.3080   39.1120   44.8790 O.3   301  ADP301     -0.2130
     17  C1'      -22.7100   36.9900   44.6420 C.3   301  ADP301      0.3186
     18  N9       -22.4510   36.0570   45.7740 N.pl3 301  ADP301     -0.1439
     19  C8       -21.8810   34.8630   45.6390 C.3   301  ADP301      0.3377
     20  N7       -21.7120   34.2670   46.7450 N.2   301  ADP301     -0.2095
     21  C5       -22.2110   35.1580   47.7050 C.2   301  ADP301      0.2526
     22  C6       -22.3520   35.1220   49.1420 C.2   301  ADP301      0.4393
     23  N6       -21.9580   34.0350   49.8950 N.pl3 301  ADP301      0.2180
     24  N1       -22.9130   36.2170   49.7660 N.2   301  ADP301      0.0021
     25  C2       -23.2940   37.2670   49.0260 C.3   301  ADP301      0.5254
     26  N3       -23.1920   37.3800   47.6820 N.2   301  ADP301     -0.0055
     27  C4       -22.6470   36.2900   47.0930 C.2   301  ADP301      0.3518
@<TRIPOS>BOND
     1     2     1    2
     2     4     1    1
     3     1     3    1
     4     1     8    1
     5     6     5    2
     6     8     5    1
     7     5     9    1
     8     5     7    1
     9     9    10    1
    10    10    11    1
    11    11    13    1
    12    11    12    1
    13    14    13    1
    14    13    15    1
    15    12    17    1
    16    15    17    1
    17    15    16    1
    18    17    18    1
    19    19    18    1
    20    19    20    1
    21    18    27    1
    22    20    21    2
    23    27    26    2
    24    27    21    1
    25    26    25    1
    26    21    22    1
    27    25    24    1
    28    22    24    2
    29    22    23    1
