@<TRIPOS>MOLECULE
1ioo_MAN_A_1.pdb
 11 11 0 0 0
SMALL
GASTEIGER

@<TRIPOS>ATOM
      1  C1        -6.8220  -20.6870   47.5150 C.3   201  MAN201      0.1777
      2  C2        -6.5080  -22.1690   47.7350 C.3   201  MAN201      0.2141
      3  C3        -5.0960  -22.4810   47.2290 C.3   201  MAN201      0.2173
      4  C4        -4.9510  -22.0610   45.7660 C.3   201  MAN201      0.2142
      5  C5        -5.3080  -20.5800   45.6250 C.3   201  MAN201      0.1810
      6  C6        -5.2820  -20.0990   44.1860 C.3   201  MAN201      0.2141
      7  O2        -7.4590  -22.9690   47.0470 O.3   201  MAN201     -0.2176
      8  O3        -4.8330  -23.8690   47.3590 O.3   201  MAN201     -0.2175
      9  O4        -3.6140  -22.2760   45.3370 O.3   201  MAN201     -0.2176
     10  O5        -6.6400  -20.3420   46.1380 O.3   201  MAN201     -0.3481
     11  O6        -6.5000  -20.4010   43.5200 O.3   201  MAN201     -0.2176
@<TRIPOS>BOND
     1    11     6    1
     2     6     5    1
     3     9     4    1
     4     5     4    1
     5     5    10    1
     6     4     3    1
     7    10     1    1
     8     7     2    1
     9     3     8    1
    10     3     2    1
    11     1     2    1
