@<TRIPOS>MOLECULE
1iop_HE6_A_1.pdb
 37 44 0 0 0
SMALL
GASTEIGER

@<TRIPOS>ATOM
      1 FE         24.9070   24.7970    6.0740 Fe    154  HE6154      0.0000
      2  NA        25.8980   26.3980    6.5700 N.ar  154  HE6154      0.0000
      3  NB        25.7040   23.8980    7.5900 N.2   154  HE6154      0.0000
      4  NC        23.9810   23.1450    5.4880 N.ar  154  HE6154      0.0000
      5  ND        24.1920   25.6880    4.4530 N.2   154  HE6154      0.0000
      6  C1A       26.6880   26.6310    7.6780 C.ar  154  HE6154      0.0000
      7  CHA       26.9310   25.7140    8.6560 C.2   154  HE6154      0.0000
      8  C4D       23.3340   25.1840    3.4960 C.2   154  HE6154      0.0000
      9  C1B       25.5340   22.5690    7.9480 C.2   154  HE6154      0.0000
     10  CHB       24.8760   21.6140    7.1930 C.2   154  HE6154      0.0000
     11  C4A       25.9470   27.5850    5.8470 C.ar  154  HE6154      0.0000
     12  C1C       23.2800   22.9140    4.3250 C.ar  154  HE6154      0.0000
     13  CHC       22.9100   23.8740    3.4240 C.2   154  HE6154      0.0000
     14  C4B       26.4490   24.4430    8.6060 C.2   154  HE6154      0.0000
     15  C1D       24.4150   26.9890    4.0330 C.2   154  HE6154      0.0000
     16  CHD       25.2540   27.8540    4.6940 C.2   154  HE6154      0.0000
     17  C4C       24.1370   21.8890    6.0460 C.ar  154  HE6154      0.0000
     18  C2A       27.2210   27.8770    7.6100 C.ar  154  HE6154      0.0000
     19  CMA       28.0100   28.5550    8.7080 C.3   154  HE6154      0.0000
     20  C3A       26.7650   28.4740    6.4710 C.ar  154  HE6154      0.0000
     21  CAA       27.0430   29.9200    6.0290 C.2   154  HE6154      0.0000
     22  O1A       26.7420   30.7720    6.8880 O.co2 154  HE6154      0.0000
     23  O2A       27.0640   30.1950    4.8110 O.co2 154  HE6154      0.0000
     24  C2B       26.1800   22.3500    9.1120 C.2   154  HE6154      0.0000
     25  CMB       26.4250   21.0110    9.7810 C.3   154  HE6154      0.0000
     26  C3B       26.7270   23.5110    9.5240 C.2   154  HE6154      0.0000
     27  CNB       27.6190   23.6780   10.7470 C.3   154  HE6154      0.0000
     28  C2C       23.0830   21.5870    4.1510 C.ar  154  HE6154      0.0000
     29  CMC       22.4710   20.9030    2.9160 C.3   154  HE6154      0.0000
     30  C3C       23.5590   20.9780    5.2470 C.ar  154  HE6154      0.0000
     31  CNC       23.3920   19.5130    5.5660 C.3   154  HE6154      0.0000
     32  C2D       23.7740   27.2310    2.8780 C.2   154  HE6154      0.0000
     33  CMD       22.0100   25.9540    1.4840 C.3   154  HE6154      0.0000
     34  C3D       23.0600   26.1270    2.5790 C.2   154  HE6154      0.0000
     35  CAD       23.7440   28.5460    2.0910 C.2   154  HE6154      0.0000
     36  O1D       24.3290   29.5170    2.5910 O.co2 154  HE6154      0.0000
     37  O2D       23.5600   28.4980    0.8640 O.co2 154  HE6154      0.0000
@<TRIPOS>BOND
     1    37    35   ar
     2    33    34    1
     3    35    36   ar
     4    35    32    1
     5    34    32    2
     6    34     8    1
     7    32    15    1
     8    29    28    1
     9    13     8    2
    10    13    12    1
    11     8     5    1
    12    15     5    2
    13    15    16    1
    14    28    12   ar
    15    28    30   ar
    16    12     4   ar
    17     5     1    1
    18    16    11    2
    19    23    21   ar
    20    30    31    1
    21    30    17   ar
    22     4    17   ar
    23     4     1    1
    24    11    20   ar
    25    11     2   ar
    26    21    20    1
    27    21    22   ar
    28    17    10    1
    29     1     2    1
    30     1     3    1
    31    20    18   ar
    32     2     6   ar
    33    10     9    2
    34     3     9    1
    35     3    14    2
    36    18     6   ar
    37    18    19    1
    38     6     7    2
    39     9    24    1
    40    14     7    1
    41    14    26    1
    42    24    26    2
    43    24    25    1
    44    26    27    1
