@<TRIPOS>MOLECULE
1iov_POB_A_1.pdb
 17 16 0 0 0
SMALL
GASTEIGER

@<TRIPOS>ATOM
      1  C1        19.8820   11.0160   46.9830 C.2   321  POB321      0.3918
      2  O1        19.8070   12.1990   46.5750 O.co2 321  POB321     -0.2429
      3  O2        20.1490   10.7340   48.1640 O.co2 321  POB321     -0.2429
      4  C2        19.6050    9.9550   45.9420 C.3   321  POB321      0.2262
      5  C3        20.8620    9.7070   45.1420 C.3   321  POB321      0.0418
      6  C4        22.0510   10.6090   45.4590 C.3   321  POB321      0.0032
      7  O2P       19.2890    8.7380   46.6270 O.3   321  POB321     -0.2838
      8  P1        17.8510    8.2430   46.7380 P.3   321  POB321      0.3684
      9  O1P       16.8430    9.1860   47.1100 O.2   321  POB321     -0.2558
     10  O3P       17.4230    7.8350   45.2790 O.3   321  POB321     -0.2035
     11  P2        17.7940    6.5740   44.4210 P.3   321  POB321      0.5388
     12  O4P       17.7470    6.6610   42.9610 O.2   321  POB321     -0.2220
     13  O5P       16.8980    5.4740   45.0620 O.3   321  POB321     -0.1143
     14  O6P       19.2580    6.3110   44.8440 O.3   321  POB321     -0.1143
     15  C1'       17.8300    7.0010   47.6680 C.3   321  POB321      0.1956
     16  N1'       16.8600    5.9440   47.5910 N.3   321  POB321     -0.1199
     17  C2'       18.1150    7.3580   49.1140 C.3   321  POB321      0.0336
@<TRIPOS>BOND
     1    12    11    2
     2    11    14    1
     3    11    13    1
     4    11    10    1
     5     5     6    1
     6     5     4    1
     7    10     8    1
     8     4     7    1
     9     4     1    1
    10     2     1   ar
    11     7     8    1
    12     8     9    2
    13     8    15    1
    14     1     3   ar
    15    16    15    1
    16    15    17    1
