@<TRIPOS>MOLECULE
1iov_ADP_A_1.pdb
 27 29 0 0 0
SMALL
GASTEIGER

@<TRIPOS>ATOM
      1  PB        17.5270    3.0780   42.1800 P.3   310  ADP310      0.5373
      2  O1B       18.7810    2.3800   42.5670 O.3   310  ADP310     -0.1143
      3  O2B       16.3920    2.6380   43.0260 O.3   310  ADP310     -0.1143
      4  O3B       17.6290    4.5110   42.4720 O.2   310  ADP310     -0.2221
      5  PA        17.1160    3.5940   39.2940 P.3   310  ADP310      0.2231
      6  O1A       16.0990    2.9040   38.4570 O.2   310  ADP310     -0.5169
      7  O2A       16.8160    4.9890   39.6670 O.3   310  ADP310     -0.4370
      8  O3A       17.3300    2.8140   40.6630 O.3   310  ADP310     -0.2261
      9  O5'       18.5040    3.4310   38.5130 O.3   310  ADP310     -0.3111
     10  C5'       19.7080    3.4970   39.2620 C.3   310  ADP310      0.1813
     11  C4'       20.7140    4.0520   38.2260 C.3   310  ADP310      0.1821
     12  O4'       20.8450    3.1060   37.1680 O.3   310  ADP310     -0.3135
     13  C3'       20.2020    5.3100   37.4950 C.3   310  ADP310      0.2184
     14  O3'       20.4590    6.5190   38.2540 O.3   310  ADP310     -0.2174
     15  C2'       21.0070    5.2670   36.2010 C.3   310  ADP310      0.2570
     16  O2'       22.3220    5.6960   36.7150 O.3   310  ADP310     -0.2130
     17  C1'       21.2010    3.7610   35.9110 C.3   310  ADP310      0.3186
     18  N9        20.1870    3.3150   34.9470 N.pl3 310  ADP310     -0.1439
     19  C8        18.8850    3.0190   35.2490 C.3   310  ADP310      0.3377
     20  N7        18.1700    2.6430   34.2250 N.2   310  ADP310     -0.2095
     21  C5        19.0520    2.7060   33.1690 C.2   310  ADP310      0.2526
     22  C6        18.9110    2.4340   31.8020 C.2   310  ADP310      0.4393
     23  N6        17.7830    2.0190   31.2680 N.pl3 310  ADP310      0.2180
     24  N1        19.9890    2.5990   31.0280 N.2   310  ADP310      0.0021
     25  C2        21.1230    3.0160   31.5770 C.3   310  ADP310      0.5254
     26  N3        21.3880    3.2970   32.8560 N.2   310  ADP310     -0.0055
     27  C4        20.2920    3.1250   33.5970 C.2   310  ADP310      0.3518
@<TRIPOS>BOND
     1    24    25    1
     2    24    22    2
     3    23    22    1
     4    25    26    1
     5    22    21    1
     6    26    27    2
     7    21    27    1
     8    21    20    2
     9    27    18    1
    10    20    19    1
    11    18    19    1
    12    18    17    1
    13    17    15    1
    14    17    12    1
    15    15    16    1
    16    15    13    1
    17    12    11    1
    18    13    11    1
    19    13    14    1
    20    11    10    1
    21     6     5    2
    22     9    10    1
    23     9     5    1
    24     5     7    1
    25     5     8    1
    26     8     1    1
    27     1     4    2
    28     1     2    1
    29     1     3    1
