@<TRIPOS>MOLECULE
1iow_ADP_A_1.pdb
 27 29 0 0 0
SMALL
GASTEIGER

@<TRIPOS>ATOM
      1  PB        32.0650   22.6450   68.6420 P.3   310  ADP310      0.5373
      2  O1B       31.1510   23.6460   69.1340 O.3   310  ADP310     -0.1143
      3  O2B       31.4980   21.3620   68.5070 O.2   310  ADP310     -0.2221
      4  O3B       33.3100   22.6180   69.4380 O.3   310  ADP310     -0.1143
      5  PA        32.3590   22.2850   65.6860 P.3   310  ADP310      0.2231
      6  O1A       33.3760   22.9120   64.8710 O.2   310  ADP310     -0.5169
      7  O2A       32.5210   20.8530   65.6930 O.3   310  ADP310     -0.4370
      8  O3A       32.4590   23.0030   67.1060 O.3   310  ADP310     -0.2261
      9  O5'       30.9220   22.6790   65.1780 O.3   310  ADP310     -0.3111
     10  C5'       29.6760   22.2080   65.7240 C.3   310  ADP310      0.1813
     11  C4'       28.7840   21.6250   64.6880 C.3   310  ADP310      0.1821
     12  O4'       28.5750   22.5560   63.5720 O.3   310  ADP310     -0.3135
     13  C3'       29.3190   20.4090   63.9880 C.3   310  ADP310      0.2184
     14  O3'       29.1700   19.2090   64.6880 O.3   310  ADP310     -0.2174
     15  C2'       28.5320   20.3860   62.6630 C.3   310  ADP310      0.2570
     16  O2'       27.2570   19.8620   62.8720 O.3   310  ADP310     -0.2130
     17  C1'       28.5280   21.9180   62.3200 C.3   310  ADP310      0.3186
     18  N9        29.5590   22.5150   61.4290 N.pl3 310  ADP310     -0.1439
     19  C8        30.7650   23.0550   61.7840 C.3   310  ADP310      0.3377
     20  N7        31.4840   23.5100   60.7980 N.2   310  ADP310     -0.2095
     21  C5        30.7320   23.2790   59.6660 C.2   310  ADP310      0.2526
     22  C6        30.9110   23.5310   58.3130 C.2   310  ADP310      0.4393
     23  N6        31.9170   24.0480   57.8050 N.pl3 310  ADP310      0.2180
     24  N1        29.9350   23.2030   57.4110 N.2   310  ADP310      0.0021
     25  C2        28.8290   22.6250   57.8860 C.3   310  ADP310      0.5254
     26  N3        28.5760   22.3380   59.1510 N.2   310  ADP310     -0.0055
     27  C4        29.5610   22.6830   60.0160 C.2   310  ADP310      0.3518
@<TRIPOS>BOND
     1    24    25    1
     2    24    22    2
     3    23    22    1
     4    25    26    1
     5    22    21    1
     6    26    27    2
     7    21    27    1
     8    21    20    2
     9    27    18    1
    10    20    19    1
    11    18    19    1
    12    18    17    1
    13    17    15    1
    14    17    12    1
    15    15    16    1
    16    15    13    1
    17    12    11    1
    18    13    14    1
    19    13    11    1
    20    11    10    1
    21     6     5    2
    22     9     5    1
    23     9    10    1
    24     5     7    1
    25     5     8    1
    26     8     1    1
    27     3     1    2
    28     1     2    1
    29     1     4    1
