@<TRIPOS>MOLECULE
1iow_PHY_A_1.pdb
 16 15 0 0 0
SMALL
GASTEIGER

@<TRIPOS>ATOM
      1  C1        31.8430   18.8680   74.1340 C.2   320  PHY320      0.1430
      2  C2        31.6620   18.5710   75.4660 C.2   320  PHY320      0.0248
      3  C1'       30.2470   17.1830   72.9610 C.3   320  PHY320      0.1040
      4  C2'       29.7750   15.8570   72.3310 C.3   320  PHY320      0.1134
      5  C3'       28.3530   15.9800   71.7100 C.3   320  PHY320      0.0124
      6  C         29.8990   14.6490   73.3350 C.2   320  PHY320      0.3649
      7  O1        30.4210   13.6590   72.8720 O.co2 320  PHY320     -0.2457
      8  O2        29.6270   14.8180   74.5710 O.co2 320  PHY320     -0.2457
      9  N1        32.8820   19.7250   73.9670 N.pl3 320  PHY320     -0.1227
     10  P1        31.6840   17.6740   73.1410 P.3   320  PHY320      0.2687
     11  O1P       32.5580   16.5250   73.5150 O.2   320  PHY320     -0.2833
     12  O2P       32.2640   18.0210   71.8090 O.3   320  PHY320     -0.2208
     13  P2        31.9700   19.0910   70.7450 P.3   320  PHY320      0.5376
     14  O3P       30.7010   19.5740   71.2130 O.3   320  PHY320     -0.1143
     15  O4P       31.8730   18.6770   69.3540 O.2   320  PHY320     -0.2221
     16  O5P       32.9900   20.1300   70.9900 O.3   320  PHY320     -0.1143
@<TRIPOS>BOND
     1    15    13    2
     2    13    16    1
     3    13    14    1
     4    13    12    1
     5     5     4    1
     6    12    10    1
     7     4     3    1
     8     4     6    1
     9     7     6   ar
    10     3    10    1
    11    10    11    2
    12    10     1    1
    13     6     8   ar
    14     9     1    1
    15     1     2    2
