@<TRIPOS>MOLECULE
1ioz_GDP_A_1.pdb
 28 30 0 0 0
SMALL
GASTEIGER

@<TRIPOS>ATOM
      1  PB        31.3060   11.3460   21.5730 P.3   1180  GDP1180     0.5373
      2  O1B       30.9270   12.4340   20.5640 O.2   1180  GDP1180    -0.2221
      3  O2B       32.7450   11.2260   21.7940 O.3   1180  GDP1180    -0.1143
      4  O3B       30.7440    9.8820   21.1470 O.3   1180  GDP1180    -0.1143
      5  O3A       30.7020   11.6370   23.0110 O.3   1180  GDP1180    -0.2261
      6  PA        29.7120   10.7740   24.0420 P.3   1180  GDP1180     0.2231
      7  O1A       30.6080    9.6630   24.6070 O.3   1180  GDP1180    -0.4370
      8  O2A       28.3540   10.4000   23.3910 O.2   1180  GDP1180    -0.5169
      9  O5'       29.5440   11.8100   25.1130 O.3   1180  GDP1180    -0.3111
     10  C5'       30.6300   12.3980   25.8090 C.3   1180  GDP1180     0.1813
     11  C4'       30.2460   12.8830   27.1330 C.3   1180  GDP1180     0.1799
     12  O4'       29.2190   13.9520   27.0150 O.3   1180  GDP1180    -0.3326
     13  C3'       29.6190   11.8590   28.0720 C.3   1180  GDP1180     0.2158
     14  O3'       30.1260   12.0200   29.3710 O.3   1180  GDP1180    -0.2175
     15  C2'       28.1360   12.1080   27.9440 C.3   1180  GDP1180     0.2310
     16  O2'       27.4500   11.6820   29.1400 O.3   1180  GDP1180    -0.2158
     17  C1'       28.0830   13.6420   27.7760 C.3   1180  GDP1180     0.2293
     18  N9        26.9010   14.0830   27.0070 N.pl3 1180  GDP1180    -0.2354
     19  C8        26.4470   13.6320   25.7730 C.3   1180  GDP1180     0.2246
     20  N7        25.3560   14.2430   25.3650 N.2   1180  GDP1180    -0.2322
     21  C5        25.0580   15.1550   26.3750 C.2   1180  GDP1180     0.2182
     22  C6        24.0550   16.0450   26.4900 C.1   1180  GDP1180     0.2372
     23  O6        23.1260   16.2530   25.6650 O.2   1180  GDP1180    -0.2069
     24  N1        24.0770   16.8130   27.6690 N.2   1180  GDP1180    -0.2485
     25  C2        25.0300   16.6990   28.6560 C.1   1180  GDP1180     0.2531
     26  N2        24.8860   17.5430   29.7430 N.pl3 1180  GDP1180    -0.0226
     27  N3        26.0760   15.7990   28.5800 N.2   1180  GDP1180    -0.3074
     28  C4        26.0240   15.0660   27.4160 C.2   1180  GDP1180     0.2300
@<TRIPOS>BOND
     1     2     1    2
     2     4     1    1
     3     1     3    1
     4     1     5    1
     5     5     6    1
     6     8     6    2
     7     6     7    1
     8     6     9    1
     9     9    10    1
    10    20    19    1
    11    20    21    2
    12    23    22    2
    13    19    18    1
    14    10    11    1
    15    21    22    1
    16    21    28    1
    17    22    24    2
    18    18    28    1
    19    18    17    1
    20    12    11    1
    21    12    17    1
    22    11    13    1
    23    28    27    2
    24    24    25    2
    25    17    15    1
    26    15    13    1
    27    15    16    1
    28    13    14    1
    29    27    25    2
    30    25    26    1
