@<TRIPOS>MOLECULE
1ipc_MGP_A_1.pdb
 33 35 0 0 0
SMALL
GASTEIGER

@<TRIPOS>ATOM
      1  PA        52.8360  113.4570   -5.7970 P.3   1000  MGP1000     0.2189
      2  O1A       53.3670  112.0860   -6.0500 O.3   1000  MGP1000    -0.4371
      3  O2A       51.6710  113.6620   -6.7170 O.2   1000  MGP1000    -0.5170
      4  O3A       52.3690  113.5970   -4.2730 O.3   1000  MGP1000    -0.2700
      5  O5'       53.9940  114.6010   -6.2070 O.3   1000  MGP1000    -0.3112
      6  PB        53.2990  113.4610   -2.9530 P.3   1000  MGP1000     0.2277
      7  O1B       54.3830  112.4350   -3.0720 O.2   1000  MGP1000    -0.5168
      8  O2B       52.3760  113.1430   -1.8610 O.3   1000  MGP1000    -0.4368
      9  O3B       53.9210  114.7460   -2.6620 O.3   1000  MGP1000    -0.2258
     10  PC        53.4590  116.2610   -2.4130 P.3   1000  MGP1000     0.5373
     11  O1C       53.4650  116.2110   -0.7770 O.3   1000  MGP1000    -0.1143
     12  O2C       52.0540  116.4540   -2.9240 O.2   1000  MGP1000    -0.2221
     13  O3C       54.2900  117.4150   -2.9030 O.3   1000  MGP1000    -0.1143
     14  C5'       55.3740  114.5570   -5.7880 C.3   1000  MGP1000     0.1813
     15  C4'       56.3760  114.9820   -6.8240 C.3   1000  MGP1000     0.1799
     16  O4'       56.3190  113.9900   -7.9330 O.3   1000  MGP1000    -0.3326
     17  C3'       56.1330  116.2810   -7.6020 C.3   1000  MGP1000     0.2158
     18  O3'       56.4420  117.4960   -6.8760 O.3   1000  MGP1000    -0.2175
     19  C2'       56.9430  116.0930   -8.8790 C.3   1000  MGP1000     0.2310
     20  O2'       58.3570  116.4420   -8.6940 O.3   1000  MGP1000    -0.2158
     21  C1'       56.6520  114.6390   -9.2220 C.3   1000  MGP1000     0.2287
     22  N9        55.4040  114.3460  -10.0830 N.pl3 1000  MGP1000    -0.2454
     23  C8        54.1490  113.8700   -9.8040 C.3   1000  MGP1000     0.1735
     24  N7        53.4330  113.8010  -10.9150 N.3   1000  MGP1000    -0.2343
     25  CM7       52.0400  113.3350  -10.9810 C.3   1000  MGP1000     0.0924
     26  C5        54.1980  114.2550  -12.1110 C.3   1000  MGP1000     0.2475
     27  C6        54.0260  114.4070  -13.4470 C.1   1000  MGP1000     0.2145
     28  O6        52.9260  114.1260  -14.0590 O.2   1000  MGP1000    -0.2115
     29  N1        55.1920  114.9220  -14.1460 N.2   1000  MGP1000    -0.2526
     30  C2        56.4430  115.2610  -13.5580 C.1   1000  MGP1000     0.2525
     31  N2        57.4290  115.7250  -14.3220 N.pl3 1000  MGP1000    -0.0226
     32  N3        56.6210  115.1030  -12.1890 N.2   1000  MGP1000    -0.3118
     33  C4        55.4760  114.5890  -11.4490 C.2   1000  MGP1000     0.2086
@<TRIPOS>BOND
     1    31    30    1
     2    29    30    2
     3    29    27    2
     4    28    27    2
     5    30    32    2
     6    27    26    1
     7    32    33    2
     8    26    33    1
     9    26    24    1
    10    33    22    1
    11    25    24    1
    12    24    23    1
    13    22    23    1
    14    22    21    1
    15    21    19    1
    16    21    16    1
    17    19    20    1
    18    19    17    1
    19    16    15    1
    20    17    18    1
    21    17    15    1
    22    15    14    1
    23     3     1    2
    24     5     1    1
    25     5    14    1
    26     2     1    1
    27     1     4    1
    28     4     6    1
    29     7     6    2
    30     6     9    1
    31     6     8    1
    32    12    10    2
    33    13    10    1
    34     9    10    1
    35    10    11    1
