@<TRIPOS>MOLECULE
1ipe_NDP_A_1.pdb
 48 52 0 0 0
SMALL
GASTEIGER

@<TRIPOS>ATOM
      1  PA         1.0180   24.1220  150.1870 P.3   261  NDP261      0.2189
      2  O1A        0.6680   24.6360  151.5300 O.3   261  NDP261     -0.4371
      3  O2A       -0.0080   24.1150  149.1310 O.2   261  NDP261     -0.5170
      4  O5B        1.6490   22.6940  150.3120 O.3   261  NDP261     -0.3112
      5  C5B        2.6730   22.4240  151.2760 C.3   261  NDP261      0.1813
      6  C4B        2.7910   20.9200  151.3740 C.3   261  NDP261      0.1820
      7  O4B        3.8540   20.6500  152.3050 O.3   261  NDP261     -0.3136
      8  C3B        1.5690   20.2280  151.9540 C.3   261  NDP261      0.2157
      9  O3B        1.3510   18.8870  151.4400 O.3   261  NDP261     -0.2175
     10  C2B        1.8490   20.1970  153.4290 C.3   261  NDP261      0.2314
     11  O2B        1.0150   19.2080  154.0890 O.3   261  NDP261     -0.2630
     12  C1B        3.3250   19.8830  153.3920 C.3   261  NDP261      0.3158
     13  N9A        3.8920   20.1960  154.7230 N.pl3 261  NDP261     -0.1439
     14  C8A        4.0100   21.4150  155.3270 C.3   261  NDP261      0.3377
     15  N7A        4.5660   21.3070  156.5250 N.2   261  NDP261     -0.2095
     16  C5A        4.7830   20.0000  156.6370 C.2   261  NDP261      0.2526
     17  C6A        5.3610   19.3350  157.7450 C.2   261  NDP261      0.4393
     18  N6A        5.7550   19.9990  158.8220 N.pl3 261  NDP261      0.2180
     19  N1A        5.4870   17.9550  157.6280 N.2   261  NDP261      0.0021
     20  C2A        5.0800   17.2460  156.5130 C.3   261  NDP261      0.5254
     21  N3A        4.5260   17.9110  155.4720 N.2   261  NDP261     -0.0055
     22  C4A        4.3690   19.2770  155.5160 C.2   261  NDP261      0.3518
     23  O3         2.2630   24.9400  149.6640 O.3   261  NDP261     -0.2703
     24  PN         2.9520   25.1020  148.2690 P.3   261  NDP261      0.2189
     25  O1N        2.5590   26.4000  147.7170 O.3   261  NDP261     -0.4371
     26  O2N        2.6090   23.8840  147.5110 O.2   261  NDP261     -0.5170
     27  O5D        4.4770   25.1260  148.6360 O.3   261  NDP261     -0.3112
     28  C5D        5.3370   24.0320  148.4290 C.3   261  NDP261      0.1813
     29  C4D        6.7680   24.5270  148.3550 C.3   261  NDP261      0.1799
     30  O4D        6.8010   25.6500  147.4370 O.3   261  NDP261     -0.3327
     31  C3D        7.3130   25.0730  149.6620 C.3   261  NDP261      0.2158
     32  O3D        8.6840   24.6940  149.8920 O.3   261  NDP261     -0.2175
     33  C2D        7.1690   26.5850  149.5370 C.3   261  NDP261      0.2309
     34  O2D        8.0860   27.2130  150.4330 O.3   261  NDP261     -0.2158
     35  C1D        7.4920   26.7500  148.0600 C.3   261  NDP261      0.2263
     36  N1N        6.9720   27.9810  147.4650 N.pl3 261  NDP261     -0.2787
     37  C2N        5.5650   28.1560  147.1120 C.3   261  NDP261      0.1244
     38  C3N        5.1710   29.3160  146.3960 C.2   261  NDP261      0.0544
     39  C7N        3.7220   29.6180  145.9770 C.2   261  NDP261      0.2818
     40  O7N        3.4040   30.6410  145.3740 O.2   261  NDP261     -0.2670
     41  N7N        2.7680   28.7390  146.2880 N.am  261  NDP261     -0.0839
     42  C4N        6.2050   30.2600  146.0580 C.2   261  NDP261      0.0033
     43  C5N        7.5600   30.1780  146.5290 C.2   261  NDP261      0.0157
     44  C6N        7.9550   29.0170  147.2460 C.2   261  NDP261      0.0633
     45  P2B        0.2210   19.4940  155.4680 P.3   261  NDP261      0.5328
     46  O1X       -1.1350   18.7320  155.2420 O.2   261  NDP261     -0.2224
     47  O2X       -0.0830   20.9150  155.5910 O.3   261  NDP261     -0.1145
     48  O3X        0.9650   18.8490  156.5460 O.3   261  NDP261     -0.1145
@<TRIPOS>BOND
     1    40    39    2
     2    39    41   am
     3    39    38    1
     4    42    38    2
     5    42    43    1
     6    38    37    1
     7    43    44    2
     8    37    36    1
     9    44    36    1
    10    30    35    1
    11    30    29    1
    12    36    35    1
    13    26    24    2
    14    25    24    1
    15    35    33    1
    16    24    27    1
    17    24    23    1
    18    29    28    1
    19    29    31    1
    20    28    27    1
    21     3     1    2
    22    33    31    1
    23    33    34    1
    24    31    32    1
    25    23     1    1
    26     1     4    1
    27     1     2    1
    28     4     5    1
    29     5     6    1
    30     6     8    1
    31     6     7    1
    32     9     8    1
    33     8    10    1
    34     7    12    1
    35    12    10    1
    36    12    13    1
    37    10    11    1
    38    11    45    1
    39    13    14    1
    40    13    22    1
    41    46    45    2
    42    14    15    1
    43    45    47    1
    44    45    48    1
    45    21    22    2
    46    21    20    1
    47    22    16    1
    48    20    19    1
    49    15    16    2
    50    16    17    1
    51    19    17    2
    52    17    18    1
