@<TRIPOS>MOLECULE
1ipf_NDP_A_1.pdb
 48 52 0 0 0
SMALL
GASTEIGER

@<TRIPOS>ATOM
      1  PA         1.0060   24.2110  149.2070 P.3   261  NDP261      0.2189
      2  O1A        0.5880   24.7100  150.5420 O.3   261  NDP261     -0.4371
      3  O2A        0.0670   24.2700  148.0650 O.2   261  NDP261     -0.5170
      4  O5B        1.5680   22.7630  149.3600 O.3   261  NDP261     -0.3112
      5  C5B        2.6040   22.4930  150.3070 C.3   261  NDP261      0.1813
      6  C4B        2.6280   21.0070  150.4660 C.3   261  NDP261      0.1820
      7  O4B        3.6860   20.6880  151.3890 O.3   261  NDP261     -0.3136
      8  C3B        1.3590   20.4380  151.0670 C.3   261  NDP261      0.2157
      9  O3B        0.9790   19.1460  150.5010 O.3   261  NDP261     -0.2175
     10  C2B        1.6840   20.3300  152.5460 C.3   261  NDP261      0.2314
     11  O2B        0.8160   19.3480  153.1720 O.3   261  NDP261     -0.2630
     12  C1B        3.1390   19.9280  152.4610 C.3   261  NDP261      0.3158
     13  N9A        3.7510   20.1640  153.7820 N.pl3 261  NDP261     -0.1439
     14  C8A        3.9520   21.3540  154.4310 C.3   261  NDP261      0.3377
     15  N7A        4.5350   21.1640  155.6200 N.2   261  NDP261     -0.2095
     16  C5A        4.6890   19.8450  155.6780 C.2   261  NDP261      0.2526
     17  C6A        5.2650   19.1020  156.7510 C.2   261  NDP261      0.4393
     18  N6A        5.7260   19.6940  157.8550 N.pl3 261  NDP261      0.2180
     19  N1A        5.3150   17.7190  156.5720 N.2   261  NDP261      0.0021
     20  C2A        4.8420   17.0790  155.4370 C.3   261  NDP261      0.5254
     21  N3A        4.2930   17.8100  154.4320 N.2   261  NDP261     -0.0055
     22  C4A        4.2050   19.1870  154.5320 C.2   261  NDP261      0.3518
     23  O3         2.3280   24.9840  148.8010 O.3   261  NDP261     -0.2703
     24  PN         3.0840   25.2560  147.4570 P.3   261  NDP261      0.2189
     25  O1N        2.6830   26.5660  146.9540 O.3   261  NDP261     -0.4371
     26  O2N        2.8180   24.0730  146.6170 O.2   261  NDP261     -0.5170
     27  O5D        4.6010   25.3170  147.8900 O.3   261  NDP261     -0.3112
     28  C5D        5.4770   24.2030  147.7900 C.3   261  NDP261      0.1813
     29  C4D        6.9260   24.6690  147.7200 C.3   261  NDP261      0.1799
     30  O4D        6.9930   25.7290  146.7470 O.3   261  NDP261     -0.3327
     31  C3D        7.4690   25.2780  149.0140 C.3   261  NDP261      0.2158
     32  O3D        8.8530   24.9460  149.2250 O.3   261  NDP261     -0.2175
     33  C2D        7.2830   26.7860  148.8370 C.3   261  NDP261      0.2309
     34  O2D        8.1670   27.4860  149.7380 O.3   261  NDP261     -0.2158
     35  C1D        7.6310   26.8960  147.3440 C.3   261  NDP261      0.2263
     36  N1N        7.0810   28.0850  146.6610 N.pl3 261  NDP261     -0.2787
     37  C2N        5.6880   28.1930  146.2470 C.3   261  NDP261      0.1244
     38  C3N        5.2820   29.3140  145.4640 C.2   261  NDP261      0.0544
     39  C7N        3.8450   29.5480  144.9640 C.2   261  NDP261      0.2818
     40  O7N        3.5140   30.5170  144.2920 O.2   261  NDP261     -0.2670
     41  N7N        2.9110   28.6620  145.2740 N.am  261  NDP261     -0.0839
     42  C4N        6.2970   30.2790  145.1290 C.2   261  NDP261      0.0033
     43  C5N        7.6420   30.2430  145.6330 C.2   261  NDP261      0.0157
     44  C6N        8.0400   29.1300  146.4120 C.2   261  NDP261      0.0633
     45  P2B        0.1540   19.5210  154.6220 P.3   261  NDP261      0.5328
     46  O1X       -1.2260   18.7980  154.4700 O.2   261  NDP261     -0.2224
     47  O2X       -0.0900   20.9390  154.8810 O.3   261  NDP261     -0.1145
     48  O3X        0.9630   18.7510  155.5800 O.3   261  NDP261     -0.1145
@<TRIPOS>BOND
     1    40    39    2
     2    39    41   am
     3    39    38    1
     4    42    38    2
     5    42    43    1
     6    38    37    1
     7    43    44    2
     8    37    36    1
     9    44    36    1
    10    26    24    2
    11    36    35    1
    12    30    35    1
    13    30    29    1
    14    25    24    1
    15    35    33    1
    16    24    27    1
    17    24    23    1
    18    29    28    1
    19    29    31    1
    20    28    27    1
    21     3     1    2
    22    23     1    1
    23    33    31    1
    24    33    34    1
    25    31    32    1
    26     1     4    1
    27     1     2    1
    28     4     5    1
    29     5     6    1
    30     6     8    1
    31     6     7    1
    32     9     8    1
    33     8    10    1
    34     7    12    1
    35    12    10    1
    36    12    13    1
    37    10    11    1
    38    11    45    1
    39    13    14    1
    40    13    22    1
    41    14    15    1
    42    21    22    2
    43    21    20    1
    44    46    45    2
    45    22    16    1
    46    45    47    1
    47    45    48    1
    48    20    19    1
    49    15    16    2
    50    16    17    1
    51    19    17    2
    52    17    18    1
