@<TRIPOS>MOLECULE
1ipf_TNE_A_1.pdb
 10 11 0 0 0
SMALL
GASTEIGER

@<TRIPOS>ATOM
      1  C1         4.9320   35.0050  146.4370 C.3   262  TNE262      0.0649
      2  C2         6.4260   34.6450  146.6970 C.3   262  TNE262      0.0805
      3  C3         6.5530   33.4120  147.6970 C.2   262  TNE262      0.1534
      4  O3         7.6090   32.7760  147.7840 O.2   262  TNE262     -0.2960
      5  C4         5.2970   33.0150  148.5940 C.3   262  TNE262      0.0805
      6  C5         3.9900   33.6320  148.0570 C.3   262  TNE262      0.0649
      7  C6         3.6390   32.9320  146.7250 C.3   262  TNE262      0.0178
      8  C7         4.2360   33.8600  145.6400 C.3   262  TNE262      0.0178
      9  N8         4.2460   35.0470  147.7430 N.3   262  TNE262     -0.2732
     10  C9         2.9600   35.7820  147.6140 C.3   262  TNE262      0.0896
@<TRIPOS>BOND
     1     8     1    1
     2     8     7    1
     3     1     2    1
     4     1     9    1
     5     2     3    1
     6     7     6    1
     7    10     9    1
     8     3     4    2
     9     3     5    1
    10     9     6    1
    11     6     5    1
