@<TRIPOS>MOLECULE
1iph_HEM_A_1.pdb
 43 50 0 0 0
SMALL
GASTEIGER

@<TRIPOS>ATOM
      1  CHA       14.0910    4.8130   14.6880 C.2   754  HEM754      0.0000
      2  CHB       17.9420    5.8450   17.4350 C.2   754  HEM754      0.0000
      3  CHC       20.2540    1.9180   15.7140 C.2   754  HEM754      0.0000
      4  CHD       16.7200    1.3480   12.5030 C.2   754  HEM754      0.0000
      5  C1A       14.9230    5.3950   15.6590 C.2   754  HEM754      0.0000
      6  C2A       14.5410    6.4960   16.5170 C.2   754  HEM754      0.0000
      7  C3A       15.6390    6.7920   17.2870 C.2   754  HEM754      0.0000
      8  C4A       16.6770    5.8480   16.9130 C.2   754  HEM754      0.0000
      9  CMA       15.7650    7.9000   18.3300 C.3   754  HEM754      0.0000
     10  CAA       13.1470    7.0830   16.6480 C.2   754  HEM754      0.0000
     11  CBA       12.6410    7.8980   15.4830 C.2   754  HEM754      0.0000
     12  CGA       11.4130    8.7660   15.7790 C.2   754  HEM754      0.0000
     13  O1A       10.5990    8.9580   14.8850 O.co2 754  HEM754      0.0000
     14  O2A       11.2870    9.2480   16.9070 O.co2 754  HEM754      0.0000
     15  C1B       18.9480    4.9060   17.1750 C.ar  754  HEM754      0.0000
     16  C2B       20.2640    4.9200   17.8180 C.ar  754  HEM754      0.0000
     17  C3B       20.8730    3.7760   17.3730 C.ar  754  HEM754      0.0000
     18  C4B       19.9620    3.0750   16.4550 C.ar  754  HEM754      0.0000
     19  CMB       20.8130    6.0200   18.7420 C.3   754  HEM754      0.0000
     20  CAB       22.1460    3.3270   17.7200 C.3   754  HEM754      0.0000
     21  CBB       23.2720    4.1800   18.0080 C.3   754  HEM754      0.0000
     22  C1C       19.4780    1.3710   14.6860 C.2   754  HEM754      0.0000
     23  C2C       19.9050    0.3700   13.6970 C.2   754  HEM754      0.0000
     24  C3C       18.9070    0.3200   12.7650 C.2   754  HEM754      0.0000
     25  C4C       17.8930    1.1990   13.1960 C.2   754  HEM754      0.0000
     26  CMC       21.2170   -0.4520   13.6810 C.3   754  HEM754      0.0000
     27  CAC       18.7800   -0.3350   11.5380 C.3   754  HEM754      0.0000
     28  CBC       19.7480   -1.1870   10.9030 C.3   754  HEM754      0.0000
     29  C1D       15.7450    2.2500   12.8050 C.ar  754  HEM754      0.0000
     30  C2D       14.5040    2.3180   12.0880 C.ar  754  HEM754      0.0000
     31  C3D       13.7280    3.1840   12.8110 C.ar  754  HEM754      0.0000
     32  C4D       14.4900    3.7340   13.8850 C.ar  754  HEM754      0.0000
     33  CMD       14.1380    1.4770   10.8870 C.3   754  HEM754      0.0000
     34  CAD       12.3210    3.5570   12.5450 C.3   754  HEM754      0.0000
     35  CBD       12.7060    4.5520   11.5130 C.3   754  HEM754      0.0000
     36  CGD       11.6720    5.5670   11.2630 C.2   754  HEM754      0.0000
     37  O1D       11.9620    6.5070   10.5260 O.co2 754  HEM754      0.0000
     38  O2D       10.5810    5.4270   11.7770 O.co2 754  HEM754      0.0000
     39  NA        16.2490    4.9690   15.9440 N.2   754  HEM754      0.0000
     40  NB        18.7810    3.7920   16.3320 N.ar  754  HEM754      0.0000
     41  NC        18.2470    1.8990   14.3340 N.2   754  HEM754      0.0000
     42  ND        15.7670    3.1190   13.9010 N.ar  754  HEM754      0.0000
     43 FE         17.2450    3.4090   15.1680 Fe    754  HEM754      0.0000
@<TRIPOS>BOND
     1    37    36   ar
     2    33    30    1
     3    28    27    1
     4    36    35    1
     5    36    38   ar
     6    35    34    1
     7    27    24    1
     8    30    29   ar
     9    30    31   ar
    10     4    29    2
    11     4    25    1
    12    34    31    1
    13    24    25    1
    14    24    23    2
    15    29    42   ar
    16    31    32   ar
    17    25    41    2
    18    26    23    1
    19    23    22    1
    20    32    42   ar
    21    32     1    2
    22    42    43    1
    23    41    22    1
    24    41    43    1
    25    22     3    2
    26     1     5    1
    27    13    12   ar
    28    43    39    1
    29    43    40    1
    30    11    12    1
    31    11    10    2
    32     5    39    2
    33     5     6    1
    34     3    18    1
    35    12    14   ar
    36    39     8    1
    37    40    18   ar
    38    40    15   ar
    39    18    17   ar
    40     6    10    1
    41     6     7    2
    42     8     7    1
    43     8     2    2
    44    15     2    1
    45    15    16   ar
    46     7     9    1
    47    17    20    1
    48    17    16   ar
    49    20    21    1
    50    16    19    1
