@<TRIPOS>MOLECULE
1ipj_NAG_A_1.pdb
 14 14 0 0 0
SMALL
GASTEIGER

@<TRIPOS>ATOM
      1  C1        47.5860  -23.2220   96.0730 C.3   902  NAG902      0.1665
      2  C2        47.9650  -22.9090   94.6280 C.3   902  NAG902      0.1576
      3  C3        48.7250  -21.5880   94.6070 C.3   902  NAG902      0.2069
      4  C4        47.8580  -20.4790   95.2060 C.3   902  NAG902      0.2134
      5  C5        47.3190  -20.8840   96.5960 C.3   902  NAG902      0.1809
      6  C6        46.2600  -19.9070   97.0950 C.3   902  NAG902      0.2141
      7  C7        48.8920  -24.0740   92.7430 C.2   902  NAG902      0.2420
      8  C8        49.7580  -25.2050   92.2200 C.3   902  NAG902      0.0964
      9  N2        48.7790  -23.9620   94.0620 N.am  902  NAG902     -0.2019
     10  O3        49.0760  -21.2560   93.2720 O.3   902  NAG902     -0.2184
     11  O4        48.6260  -19.2850   95.3190 O.3   902  NAG902     -0.2176
     12  O5        46.6980  -22.2020   96.5580 O.3   902  NAG902     -0.3489
     13  O6        45.4530  -19.4100   96.0320 O.3   902  NAG902     -0.2176
     14  O7        48.3310  -23.3090   91.9510 O.2   902  NAG902     -0.2733
@<TRIPOS>BOND
     1    14     7    2
     2     8     7    1
     3     7     9   am
     4    10     3    1
     5     9     2    1
     6     3     2    1
     7     3     4    1
     8     2     1    1
     9     4    11    1
    10     4     5    1
    11    13     6    1
    12     1    12    1
    13    12     5    1
    14     5     6    1
