@<TRIPOS>MOLECULE
1iqc_HEM_A_1.pdb
 43 50 0 0 0
SMALL
GASTEIGER

@<TRIPOS>ATOM
      1  CHA       -6.5700   60.7150   42.9980 C.2   401  HEM401      0.0000
      2  CHB       -2.5810   57.9520   42.8150 C.2   401  HEM401      0.0000
      3  CHC       -2.3350   58.3420   47.6350 C.2   401  HEM401      0.0000
      4  CHD       -6.9380   59.8970   47.7520 C.2   401  HEM401      0.0000
      5  C1A       -5.5240   59.9110   42.5070 C.ar  401  HEM401      0.0000
      6  C2A       -5.2340   59.6590   41.1030 C.ar  401  HEM401      0.0000
      7  C3A       -4.1540   58.8180   41.0610 C.ar  401  HEM401      0.0000
      8  C4A       -3.7730   58.5760   42.4380 C.ar  401  HEM401      0.0000
      9  CMA       -3.4530   58.2450   39.8300 C.3   401  HEM401      0.0000
     10  CAA       -6.0170   60.2560   39.9160 C.3   401  HEM401      0.0000
     11  CBA       -6.8820   59.2420   39.1770 C.3   401  HEM401      0.0000
     12  CGA       -7.9600   59.8830   38.3230 C.2   401  HEM401      0.0000
     13  O1A       -8.6640   59.1330   37.6130 O.co2 401  HEM401      0.0000
     14  O2A       -8.1130   61.1260   38.3670 O.co2 401  HEM401      0.0000
     15  C1B       -2.1030   57.9080   44.1330 C.2   401  HEM401      0.0000
     16  C2B       -0.7580   57.5280   44.5300 C.2   401  HEM401      0.0000
     17  C3B       -0.6520   57.7820   45.8660 C.2   401  HEM401      0.0000
     18  C4B       -1.9510   58.2150   46.2980 C.2   401  HEM401      0.0000
     19  CMB        0.3100   56.8960   43.6360 C.3   401  HEM401      0.0000
     20  CAB        0.4860   57.7330   46.6860 C.3   401  HEM401      0.0000
     21  CBB        1.7500   58.4370   46.4270 C.3   401  HEM401      0.0000
     22  C1C       -3.6090   58.6880   48.1100 C.ar  401  HEM401      0.0000
     23  C2C       -4.0270   58.6180   49.4790 C.ar  401  HEM401      0.0000
     24  C3C       -5.3410   59.0270   49.5130 C.ar  401  HEM401      0.0000
     25  C4C       -5.7150   59.3220   48.1510 C.ar  401  HEM401      0.0000
     26  CMC       -3.1890   58.1370   50.6570 C.3   401  HEM401      0.0000
     27  CAC       -6.2010   59.0990   50.5910 C.3   401  HEM401      0.0000
     28  CBC       -5.9270   59.7530   51.8800 C.3   401  HEM401      0.0000
     29  C1D       -7.2350   60.2890   46.4510 C.2   401  HEM401      0.0000
     30  C2D       -8.3580   61.1540   46.0870 C.2   401  HEM401      0.0000
     31  C3D       -8.1730   61.4940   44.7850 C.2   401  HEM401      0.0000
     32  C4D       -6.9800   60.8010   44.3410 C.2   401  HEM401      0.0000
     33  CMD       -9.4710   61.6500   47.0240 C.3   401  HEM401      0.0000
     34  CAD       -8.9730   62.4940   43.9440 C.3   401  HEM401      0.0000
     35  CBD       -8.5280   63.9010   44.3480 C.3   401  HEM401      0.0000
     36  CGD       -9.0290   64.9830   43.4070 C.2   401  HEM401      0.0000
     37  O1D       -8.8700   66.1730   43.7490 O.co2 401  HEM401      0.0000
     38  O2D       -9.5700   64.6500   42.3300 O.co2 401  HEM401      0.0000
     39  NA        -4.6550   59.2100   43.3390 N.ar  401  HEM401      0.0000
     40  NB        -2.8330   58.3630   45.2150 N.2   401  HEM401      0.0000
     41  NC        -4.6570   59.0670   47.2620 N.ar  401  HEM401      0.0000
     42  ND        -6.3960   60.0930   45.3840 N.2   401  HEM401      0.0000
     43 FE         -4.6760   59.0860   45.3080 Fe    401  HEM401      0.0000
@<TRIPOS>BOND
     1    13    12   ar
     2    12    14   ar
     3    12    11    1
     4    11    10    1
     5     9     7    1
     6    10     6    1
     7     7     6   ar
     8     7     8   ar
     9     6     5   ar
    10    38    36   ar
    11     8     2    2
    12     8    39   ar
    13     5     1    2
    14     5    39   ar
    15     2    15    1
    16     1    32    1
    17    39    43    1
    18    36    37   ar
    19    36    35    1
    20    19    16    1
    21    34    35    1
    22    34    31    1
    23    15    16    1
    24    15    40    2
    25    32    31    1
    26    32    42    2
    27    16    17    2
    28    31    30    2
    29    40    43    1
    30    40    18    1
    31    43    42    1
    32    43    41    1
    33    42    29    1
    34    17    18    1
    35    17    20    1
    36    30    29    1
    37    30    33    1
    38    18     3    2
    39    21    20    1
    40    29     4    2
    41    41    22   ar
    42    41    25   ar
    43     3    22    1
    44     4    25    1
    45    22    23   ar
    46    25    24   ar
    47    23    24   ar
    48    23    26    1
    49    24    27    1
    50    27    28    1
