@<TRIPOS>MOLECULE
1iqe_XMB_A_1.pdb
 41 45 0 0 0
SMALL
GASTEIGER

@<TRIPOS>ATOM
      1  C1         7.4850   20.5520    6.9630 C.2   401  XMB401      0.2431
      2  O2         6.6720   21.2350    7.5840 O.2   401  XMB401     -0.2733
      3  N3         7.9540   19.3770    7.5110 N.am  401  XMB401     -0.2748
      4  C4         8.7690   19.3990    8.7830 C.3   401  XMB401      0.1188
      5  C5        10.2720   19.3790    8.4570 C.3   401  XMB401      0.1723
      6  S6        10.6730   17.8940    7.4990 S.O2  401  XMB401     -0.0066
      7  O7        10.2790   16.5450    8.2050 O.2   401  XMB401     -0.1729
      8  O8        12.2070   17.8540    7.1290 O.2   401  XMB401     -0.1729
      9  C9         8.1610   18.1690    6.6400 C.3   401  XMB401      0.1188
     10  C10        9.5990   18.1500    6.0900 C.3   401  XMB401      0.1723
     11  C11        8.3210   25.6070    7.9050 C.ar  401  XMB401      0.0200
     12  C12        8.7900   24.4240    7.3380 C.ar  401  XMB401      0.1236
     13  C13        8.4000   24.5170   10.1100 C.ar  401  XMB401      0.0009
     14  C14        8.8690   23.3420    9.5150 C.ar  401  XMB401      0.0014
     15  C15        9.0680   23.2880    8.1280 C.ar  401  XMB401      0.0200
     16  C16        8.1190   25.6780    9.2800 C.ar  401  XMB401      0.0014
     17  C17        7.6530   26.8540    9.8610 C.ar  401  XMB401      0.0009
     18  C18        8.1950   24.6040   11.4790 C.ar  401  XMB401      0.0114
     19  C19        7.4580   26.9180   11.2300 C.ar  401  XMB401      0.0114
     20  C20        7.7260   25.8070   12.0300 C.ar  401  XMB401      0.0577
     21 CL21        7.4650   25.9240   13.7500 Cl    401  XMB401     -0.0822
     22  S22        9.0410   24.3610    5.5990 S.O2  401  XMB401      0.0769
     23  O23        8.0150   25.2880    4.8350 O.2   401  XMB401     -0.1516
     24  N24        8.8690   22.7390    5.1300 N.3   401  XMB401     -0.0758
     25  C25        7.4200   20.7480    5.4260 C.3   401  XMB401      0.1682
     26  C26        7.5310   22.2040    4.9690 C.3   401  XMB401      0.1420
     27  N27        6.2440   20.0450    4.8190 N.3   401  XMB401     -0.2089
     28  O28       10.5170   24.8030    5.2200 O.2   401  XMB401     -0.1516
     29  C29        4.8770   20.6410    4.9020 C.3   401  XMB401      0.0893
     30  C30        0.3510   16.1550   10.0920 C.ar  401  XMB401      0.1002
     31  N31        2.4280   17.6290    7.2570 N.pl3 401  XMB401     -0.3074
     32  C32        1.4480   16.8020    8.0210 C.ar  401  XMB401      0.0510
     33  C33        1.2860   16.9540    9.4170 C.ar  401  XMB401      0.0352
     34  C34        2.6260   17.5040    5.7630 C.3   401  XMB401      0.0908
     35  C35        0.6360   15.8340    7.3820 C.ar  401  XMB401      0.0352
     36  C36        3.2940   18.6640    7.9320 C.3   401  XMB401      0.0908
     37  C37        3.8630   19.7640    5.6740 C.3   401  XMB401      0.0208
     38  C38        3.6480   18.3940    5.0160 C.3   401  XMB401      0.0229
     39  N39       -0.3820   15.2620    9.4480 N.ar  401  XMB401     -0.2422
     40  C40       -0.2690   15.0830    8.1420 C.ar  401  XMB401      0.1002
     41  C41        4.2930   19.5230    7.1220 C.3   401  XMB401      0.0229
@<TRIPOS>BOND
     1    27    29    1
     2    27    25    1
     3    23    22    2
     4    29    37    1
     5    26    24    1
     6    26    25    1
     7    38    37    1
     8    38    34    1
     9    24    22    1
    10    28    22    2
    11    25     1    1
    12    22    12    1
    13    37    41    1
    14    34    31    1
    15    10     9    1
    16    10     6    1
    17     9     3    1
    18     1     3   am
    19     1     2    2
    20    41    36    1
    21     8     6    2
    22    31    36    1
    23    31    32    1
    24    12    11   ar
    25    12    15   ar
    26    35    32   ar
    27    35    40   ar
    28     6     7    2
    29     6     5    1
    30     3     4    1
    31    11    16   ar
    32    32    33   ar
    33    15    14   ar
    34    40    39   ar
    35     5     4    1
    36    16    17   ar
    37    16    13   ar
    38    33    30   ar
    39    39    30   ar
    40    14    13   ar
    41    17    19   ar
    42    13    18   ar
    43    19    20   ar
    44    18    20   ar
    45    20    21    1
