@<TRIPOS>MOLECULE
1iqf_XMD_A_1.pdb
 39 43 0 0 0
SMALL
GASTEIGER

@<TRIPOS>ATOM
      1  C1         8.1950   25.6800    8.3850 C.ar  401  XMD401      0.0199
      2  C2         8.7720   24.4210    7.9350 C.ar  401  XMD401      0.1222
      3  C3         8.1630   24.8290   10.8190 C.ar  401  XMD401      0.0009
      4  C4         8.7460   23.5580   10.3410 C.ar  401  XMD401      0.0014
      5  C5         9.0370   23.3700    8.9470 C.ar  401  XMD401      0.0199
      6  C6         7.8780   25.9310    9.7910 C.ar  401  XMD401      0.0014
      7 CL7         6.9210   26.6450   14.3680 Cl    401  XMD401     -0.0822
      8  C8         7.2990   27.2010   10.2660 C.ar  401  XMD401      0.0009
      9  C9         7.8500   25.0880   12.2310 C.ar  401  XMD401      0.0114
     10  C10        7.0150   27.3980   11.6560 C.ar  401  XMD401      0.0114
     11  C11        7.2830   26.3530   12.6610 C.ar  401  XMD401      0.0577
     12  S12        9.1480   24.1540    6.2380 S.O2  401  XMD401      0.0638
     13  O13        9.2040   25.4890    5.4590 O.2   401  XMD401     -0.1528
     14  C14        5.5650   22.7530    4.6690 C.3   401  XMD401      0.1928
     15  C15        4.1240   23.3030    4.7590 C.2   401  XMD401      0.3367
     16  O16        3.8310   24.1990    3.7500 O.3   401  XMD401     -0.4473
     17  C17        2.6270   23.9850    2.9160 C.3   401  XMD401      0.2086
     18  C18        2.9510   24.2580    1.4360 C.3   401  XMD401      0.0513
     19  O19        3.3330   22.9530    5.6180 O.2   401  XMD401     -0.2482
     20  C20        6.5120   23.5100    5.6700 C.3   401  XMD401      0.1276
     21  N21        7.9570   23.1620    5.4760 N.3   401  XMD401     -0.1439
     22  C22        7.1280   20.7040    4.9250 C.2   401  XMD401      0.2444
     23  O23        7.4240   19.5100    4.8850 O.2   401  XMD401     -0.2733
     24  C24        8.2590   21.6990    5.3700 C.3   401  XMD401      0.1806
     25  N25        5.8200   21.2400    4.6070 N.am  401  XMD401     -0.2649
     26  O26       10.5120   23.4560    6.0940 O.2   401  XMD401     -0.1528
     27  C27        4.7090   20.2990    4.1890 C.3   401  XMD401      0.1205
     28  C28        0.1870   17.6180   10.4300 C.ar  401  XMD401      0.1002
     29  N29        1.5230   19.0810    7.0470 N.pl3 401  XMD401     -0.2815
     30  C30        0.7580   18.2540    8.0570 C.ar  401  XMD401      0.0550
     31  C31        0.9390   18.4340    9.5180 C.ar  401  XMD401      0.0355
     32  C32        1.3560   18.9090    5.5440 C.3   401  XMD401      0.1216
     33  C33       -0.2170   17.2080    7.6440 C.ar  401  XMD401      0.0355
     34  C34        2.5350   20.1420    7.4450 C.2   401  XMD401      0.0654
     35  C35        3.9870   19.4310    5.2790 C.2   401  XMD401     -0.0036
     36  C36        2.6810   18.6960    4.7390 C.2   401  XMD401     -0.0070
     37  N37       -0.7130   16.6510   10.0080 N.ar  401  XMD401     -0.2422
     38  C38       -0.9110   16.4510    8.6530 C.ar  401  XMD401      0.1002
     39  C39        3.9450   20.0140    6.7700 C.2   401  XMD401      0.0132
@<TRIPOS>BOND
     1    18    17    1
     2    17    16    1
     3    16    15    1
     4    27    25    1
     5    27    35    1
     6    25    14    1
     7    25    22   am
     8    14    15    1
     9    14    20    1
    10    36    35    2
    11    36    32    1
    12    15    19    2
    13    23    22    2
    14    22    24    1
    15    35    39    1
    16    24    21    1
    17    13    12    2
    18    21    20    1
    19    21    12    1
    20    32    29    1
    21    26    12    2
    22    12     2    1
    23    39    34    2
    24    29    34    1
    25    29    30    1
    26    33    30   ar
    27    33    38   ar
    28     2     1   ar
    29     2     5   ar
    30    30    31   ar
    31     1     6   ar
    32    38    37   ar
    33     5     4   ar
    34    31    28   ar
    35     6     8   ar
    36     6     3   ar
    37    37    28   ar
    38     8    10   ar
    39     4     3   ar
    40     3     9   ar
    41    10    11   ar
    42     9    11   ar
    43    11     7    1
