@<TRIPOS>MOLECULE
1iqg_XME_A_1.pdb
 37 41 0 0 0
SMALL
GASTEIGER

@<TRIPOS>ATOM
      1  C1         8.2510   25.4430    7.9870 C.ar  401  XME401      0.0199
      2  C2         8.8540   24.1640    7.6220 C.ar  401  XME401      0.1222
      3  C3         8.4120   24.7810   10.5060 C.ar  401  XME401      0.0009
      4  C4         9.0210   23.4880   10.1070 C.ar  401  XME401      0.0014
      5  C5         9.2320   23.1940    8.7060 C.ar  401  XME401      0.0199
      6  C6         8.0090   25.8070    9.3870 C.ar  401  XME401      0.0014
      7 CL7         7.2990   26.7890   13.9360 Cl    401  XME401     -0.0822
      8  C8         7.3990   27.1010    9.7840 C.ar  401  XME401      0.0009
      9  C9         8.1700   25.1370   11.8880 C.ar  401  XME401      0.0114
     10  C10        7.1900   27.3860   11.1850 C.ar  401  XME401      0.0114
     11  C11        7.5710   26.4110   12.2460 C.ar  401  XME401      0.0577
     12  S12        9.0940   23.7830    5.9380 S.O2  401  XME401      0.0638
     13  O13        9.2480   25.0930    5.1120 O.2   401  XME401     -0.1528
     14  C14        5.2300   22.8170    4.5970 C.2   401  XME401      0.2438
     15  O15        4.2710   23.4880    4.1700 O.2   401  XME401     -0.2733
     16  C16        6.4630   23.6210    5.1320 C.3   401  XME401      0.1806
     17  N17        7.7310   22.8630    5.3610 N.3   401  XME401     -0.1445
     18  C18        6.5240   20.6140    5.1900 C.3   401  XME401      0.1126
     19  C19        7.5310   21.5000    5.9790 C.3   401  XME401      0.1178
     20  N20        5.3090   21.3420    4.6530 N.am  401  XME401     -0.2768
     21  O21       10.3260   22.9080    5.7260 O.2   401  XME401     -0.1528
     22  C22        4.1940   20.4600    4.1830 C.3   401  XME401      0.0950
     23  C23       -0.4290   17.9100   10.8310 C.ar  401  XME401      0.1002
     24  N24        1.6590   18.4790    7.5170 N.pl3 401  XME401     -0.3074
     25  C25        0.7050   17.8830    8.5410 C.ar  401  XME401      0.0510
     26  C26        0.4950   18.5170    9.8840 C.ar  401  XME401      0.0352
     27  C27        1.8650   17.7980    6.1190 C.3   401  XME401      0.0909
     28  C28       -0.0790   16.6270    8.2650 C.ar  401  XME401      0.0352
     29  C29        2.4540   19.7790    7.8290 C.3   401  XME401      0.0909
     30  C30        2.9780   20.0780    5.1590 C.3   401  XME401      0.0404
     31  C31        1.7100   20.8700    4.6640 C.3   401  XME401      0.1263
     32  N32        1.4750   22.0910    4.9460 N.4   401  XME401     -0.0477
     33  O33        1.1190   22.9620    4.0420 O.3   401  XME401     -0.1001
     34  C34        2.7810   18.5030    5.0400 C.3   401  XME401      0.0246
     35  N35       -1.1400   16.7410   10.5340 N.ar  401  XME401     -0.2422
     36  C36       -0.9750   16.1110    9.2870 C.ar  401  XME401      0.1002
     37  C37        3.3360   20.4340    6.6970 C.3   401  XME401      0.0246
@<TRIPOS>BOND
     1    33    32    1
     2    15    14    2
     3    22    20    1
     4    22    30    1
     5    14    20   am
     6    14    16    1
     7    20    18    1
     8    31    32    1
     9    31    30    1
    10    34    30    1
    11    34    27    1
    12    13    12    2
    13    16    17    1
    14    30    37    1
    15    18    19    1
    16    17    12    1
    17    17    19    1
    18    21    12    2
    19    12     2    1
    20    27    24    1
    21    37    29    1
    22    24    29    1
    23    24    25    1
    24     2     1   ar
    25     2     5   ar
    26     1     6   ar
    27    28    25   ar
    28    28    36   ar
    29    25    26   ar
    30     5     4   ar
    31    36    35   ar
    32     6     8   ar
    33     6     3   ar
    34     8    10   ar
    35    26    23   ar
    36     4     3   ar
    37     3     9   ar
    38    35    23   ar
    39    10    11   ar
    40     9    11   ar
    41    11     7    1
