@<TRIPOS>MOLECULE
1iqh_XMF_A_1.pdb
 36 40 0 0 0
SMALL
GASTEIGER

@<TRIPOS>ATOM
      1  C1         7.9570   25.1600    8.2000 C.ar  401  XMF401      0.0199
      2  C2         8.6190   23.9250    7.8330 C.ar  401  XMF401      0.1222
      3  C3         8.1170   24.5270   10.6970 C.ar  401  XMF401      0.0009
      4  C4         8.7910   23.2710   10.3010 C.ar  401  XMF401      0.0014
      5  C5         9.0300   22.9870    8.9120 C.ar  401  XMF401      0.0199
      6  C6         7.6850   25.5070    9.5910 C.ar  401  XMF401      0.0014
      7 CL7         6.8600   26.5430   14.0820 Cl    401  XMF401     -0.0822
      8  C8         7.0120   26.7600    9.9780 C.ar  401  XMF401      0.0009
      9  C9         7.8420   24.8870   12.0860 C.ar  401  XMF401      0.0114
     10  C10        6.7750   27.0510   11.3490 C.ar  401  XMF401      0.0114
     11  C11        7.1800   26.1320   12.4170 C.ar  401  XMF401      0.0577
     12  S12        8.9160   23.5680    6.1530 S.O2  401  XMF401      0.0638
     13  O13        8.9340   24.8720    5.3310 O.2   401  XMF401     -0.1528
     14  C14        5.2780   22.2080    4.6160 C.3   401  XMF401      0.1126
     15  C15        6.3010   23.1310    5.3660 C.3   401  XMF401      0.1178
     16  N16        7.6760   22.5400    5.5110 N.3   401  XMF401     -0.1445
     17  C17        6.5150   20.1750    5.6050 C.2   401  XMF401      0.2438
     18  O18        6.6260   18.9830    5.8990 O.2   401  XMF401     -0.2733
     19  C19        7.7010   21.1300    5.9810 C.3   401  XMF401      0.1806
     20  N20        5.3590   20.7370    4.9510 N.am  401  XMF401     -0.2768
     21  O21       10.2660   22.8620    5.9810 O.2   401  XMF401     -0.1528
     22  C22        4.1880   19.8750    4.5680 C.3   401  XMF401      0.0960
     23  C23       -0.5100   17.6300   11.1850 C.ar  401  XMF401      0.1002
     24  N24        1.5610   18.0010    7.8740 N.pl3 401  XMF401     -0.3074
     25  C25        0.5580   17.5180    8.8970 C.ar  401  XMF401      0.0510
     26  C26        0.4600   18.1260   10.2500 C.ar  401  XMF401      0.0352
     27  C27        1.6540   17.3500    6.4480 C.3   401  XMF401      0.0909
     28  C28       -0.3850   16.4070    8.6140 C.ar  401  XMF401      0.0352
     29  C29        2.5260   19.1730    8.2190 C.3   401  XMF401      0.0909
     30  C30        3.0650   19.4820    5.6110 C.3   401  XMF401      0.0522
     31  C31        1.7960   20.3750    5.2760 C.3   401  XMF401      0.1837
     32  O32        1.9800   21.7860    5.3490 O.3   401  XMF401     -0.2204
     33  C33        2.7270   17.9410    5.4340 C.3   401  XMF401      0.0257
     34  N34       -1.3730   16.5910   10.8810 N.ar  401  XMF401     -0.2422
     35  C35       -1.3160   15.9950    9.6310 C.ar  401  XMF401      0.1002
     36  C36        3.5620   19.6140    7.1180 C.3   401  XMF401      0.0257
@<TRIPOS>BOND
     1    22    20    1
     2    22    30    1
     3    14    20    1
     4    14    15    1
     5    20    17   am
     6    31    32    1
     7    31    30    1
     8    13    12    2
     9    15    16    1
    10    33    30    1
    11    33    27    1
    12    16    19    1
    13    16    12    1
    14    17    18    2
    15    17    19    1
    16    30    36    1
    17    21    12    2
    18    12     2    1
    19    27    24    1
    20    36    29    1
    21     2     1   ar
    22     2     5   ar
    23    24    29    1
    24    24    25    1
    25     1     6   ar
    26    28    25   ar
    27    28    35   ar
    28    25    26   ar
    29     5     4   ar
    30     6     8   ar
    31     6     3   ar
    32    35    34   ar
    33     8    10   ar
    34    26    23   ar
    35     4     3   ar
    36     3     9   ar
    37    34    23   ar
    38    10    11   ar
    39     9    11   ar
    40    11     7    1
