@<TRIPOS>MOLECULE
1iqi_XMG_A_1.pdb
 36 40 0 0 0
SMALL
GASTEIGER

@<TRIPOS>ATOM
      1  C1         4.5550   20.7550    5.1820 C.3   401  XMG401      0.0727
      2  S2         9.4860   23.9430    5.7420 S.O2  401  XMG401      0.0634
      3  O3         9.7760   25.2540    4.9870 O.2   401  XMG401     -0.1528
      4  C4         5.7100   22.9150    4.7290 C.3   401  XMG401      0.0919
      5  C5         6.9080   23.8040    5.1130 C.3   401  XMG401      0.1132
      6  N6         8.1740   23.0760    5.1280 N.3   401  XMG401     -0.1521
      7  C7         7.0070   20.9270    5.6690 C.3   401  XMG401      0.1798
      8  C8         8.0940   21.8970    5.9520 C.3   401  XMG401      0.1233
      9  N9         5.7020   21.6330    5.5010 N.3   401  XMG401     -0.2623
     10  O10       10.5790   22.9050    5.6360 O.2   401  XMG401     -0.1528
     11  C11        8.3370   25.4060    7.7270 C.ar  401  XMG401      0.0199
     12  C12        9.0930   24.2560    7.3740 C.ar  401  XMG401      0.1222
     13  C13        8.5130   24.6580   10.1390 C.ar  401  XMG401      0.0009
     14  C14        9.2720   23.5070    9.7530 C.ar  401  XMG401      0.0014
     15  C15        9.5510   23.3190    8.4070 C.ar  401  XMG401      0.0199
     16  C16        8.0220   25.6530    9.0790 C.ar  401  XMG401      0.0014
     17 CL17        7.1740   26.1990   13.5550 Cl    401  XMG401     -0.0822
     18  C18        7.2530   26.8140    9.5090 C.ar  401  XMG401      0.0009
     19  C19        8.2100   24.8930   11.4850 C.ar  401  XMG401      0.0114
     20  C20        6.9890   26.9870   10.8960 C.ar  401  XMG401      0.0114
     21  C21        7.4720   26.0190   11.8750 C.ar  401  XMG401      0.0577
     22  C22        7.1510   20.3000    7.1110 C.2   401  XMG401      0.3804
     23  O23        6.6740   21.0780    7.9910 O.co2 401  XMG401     -0.2441
     24  O24        8.1760   19.5820    7.2640 O.co2 401  XMG401     -0.2441
     25  C25       -0.1950   17.1530   10.0700 C.ar  401  XMG401      0.1002
     26  N26        2.7530   17.6690    7.6500 N.pl3 401  XMG401     -0.3074
     27  C27        1.5080   17.1630    8.2460 C.ar  401  XMG401      0.0510
     28  C28        1.0190   17.6800    9.5290 C.ar  401  XMG401      0.0352
     29  C29        3.2890   17.1480    6.3180 C.3   401  XMG401      0.0908
     30  C30        0.7100   16.1180    7.5810 C.ar  401  XMG401      0.0352
     31  C31        3.5770   18.7360    8.3380 C.3   401  XMG401      0.0908
     32  C32        3.8510   19.6480    5.9280 C.3   401  XMG401      0.0194
     33  C33        4.0970   18.1710    5.4620 C.3   401  XMG401      0.0229
     34  N34       -0.9350   16.1710    9.4350 N.ar  401  XMG401     -0.2422
     35  C35       -0.4890   15.6660    8.2160 C.ar  401  XMG401      0.1002
     36  C36        4.2050   19.8210    7.4350 C.3   401  XMG401      0.0229
@<TRIPOS>BOND
     1     4     5    1
     2     4     9    1
     3     3     2    2
     4     5     6    1
     5     6     2    1
     6     6     8    1
     7     1     9    1
     8     1    32    1
     9    33    32    1
    10    33    29    1
    11     9     7    1
    12    10     2    2
    13     7     8    1
    14     7    22    1
    15     2    12    1
    16    32    36    1
    17    29    26    1
    18    22    24   ar
    19    22    23   ar
    20    12    11   ar
    21    12    15   ar
    22    36    31    1
    23    30    35   ar
    24    30    27   ar
    25    26    27    1
    26    26    31    1
    27    11    16   ar
    28    35    34   ar
    29    27    28   ar
    30    15    14   ar
    31    16    18   ar
    32    16    13   ar
    33    34    25   ar
    34    18    20   ar
    35    28    25   ar
    36    14    13   ar
    37    13    19   ar
    38    20    21   ar
    39    19    21   ar
    40    21    17    1
