@<TRIPOS>MOLECULE
1iqj_XMH_A_1.pdb
 38 42 0 0 0
SMALL
GASTEIGER

@<TRIPOS>ATOM
      1  C1         4.3800   20.0460    4.5130 C.3   401  XMH401      0.0727
      2  C2        -0.4810   17.6280   10.9700 C.ar  401  XMH401      0.1002
      3  N3         1.2280   18.4530    7.5110 N.pl3 401  XMH401     -0.3074
      4  C4         0.4410   17.7500    8.6010 C.ar  401  XMH401      0.0510
      5  C5         0.2810   18.3460    9.9710 C.ar  401  XMH401      0.0352
      6  C6         1.4000   17.8430    6.0910 C.3   401  XMH401      0.0908
      7  C7        -0.2180   16.4240    8.3700 C.ar  401  XMH401      0.0352
      8  C8         1.9080   19.8260    7.7520 C.3   401  XMH401      0.0908
      9  C9         3.2260   19.6190    5.4940 C.3   401  XMH401      0.0194
     10  C10        2.7800   18.1020    5.3890 C.3   401  XMH401      0.0229
     11  N11       -1.0780   16.3930   10.7070 N.ar  401  XMH401     -0.2422
     12  C12       -0.9530   15.8040    9.4420 C.ar  401  XMH401      0.1002
     13  C13        3.2540   20.1110    6.9950 C.3   401  XMH401      0.0229
     14  S14        8.9960   23.6430    6.2940 S.O2  401  XMH401      0.0634
     15  O15        8.8290   24.9360    5.4420 O.2   401  XMH401     -0.1528
     16  C16        6.3190   21.7330    3.8570 C.3   401  XMH401      0.1755
     17  C17        7.1960   22.8200    4.4990 C.3   401  XMH401      0.1232
     18  N18        8.0170   22.3790    5.6610 N.3   401  XMH401     -0.1521
     19  C19        6.5380   20.2610    5.9200 C.3   401  XMH401      0.0919
     20  C20        7.3880   21.3830    6.6170 C.3   401  XMH401      0.1132
     21  N21        5.5840   20.8740    4.9080 N.3   401  XMH401     -0.2625
     22  O22       10.4430   23.1900    6.1510 O.2   401  XMH401     -0.1528
     23  C23        7.8200   25.2670    8.2490 C.ar  401  XMH401      0.0199
     24  C24        8.6490   24.0860    7.9450 C.ar  401  XMH401      0.1222
     25  C25        8.1110   24.7730   10.7960 C.ar  401  XMH401      0.0009
     26  C26        8.9390   23.5950   10.4560 C.ar  401  XMH401      0.0014
     27  C27        9.1970   23.2660    9.0810 C.ar  401  XMH401      0.0199
     28  C28        7.5240   25.6530    9.6370 C.ar  401  XMH401      0.0014
     29 CL29        6.7070   26.6990   14.1320 Cl    401  XMH401     -0.0822
     30  C30        6.6960   26.8370    9.9960 C.ar  401  XMH401      0.0009
     31  C31        7.8200   25.1520   12.1730 C.ar  401  XMH401      0.0114
     32  C32        6.4550   27.1460   11.3810 C.ar  401  XMH401      0.0114
     33  C33        7.0110   26.3100   12.4740 C.ar  401  XMH401      0.0577
     34  C34        5.5000   22.3170    2.6160 C.2   401  XMH401      0.3331
     35  O35        5.4300   23.6850    2.4660 O.3   401  XMH401     -0.4475
     36  C36        5.9690   24.3270    1.2440 C.3   401  XMH401      0.2086
     37  C37        4.9110   24.7430    0.1890 C.3   401  XMH401      0.0513
     38  O38        5.3240   21.5410    1.6830 O.2   401  XMH401     -0.2486
@<TRIPOS>BOND
     1    37    36    1
     2    36    35    1
     3    38    34    2
     4    35    34    1
     5    34    16    1
     6    16    17    1
     7    16    21    1
     8    17    18    1
     9     1    21    1
    10     1     9    1
    11    21    19    1
    12    10     9    1
    13    10     6    1
    14    15    14    2
    15     9    13    1
    16    18    14    1
    17    18    20    1
    18    19    20    1
    19     6     3    1
    20    22    14    2
    21    14    24    1
    22    13     8    1
    23     3     8    1
    24     3     4    1
    25    24    23   ar
    26    24    27   ar
    27    23    28   ar
    28     7     4   ar
    29     7    12   ar
    30     4     5   ar
    31    27    26   ar
    32    12    11   ar
    33    28    30   ar
    34    28    25   ar
    35     5     2   ar
    36    30    32   ar
    37    26    25   ar
    38    11     2   ar
    39    25    31   ar
    40    32    33   ar
    41    31    33   ar
    42    33    29    1
