@<TRIPOS>MOLECULE
1iqk_XMI_A_1.pdb
 34 38 0 0 0
SMALL
GASTEIGER

@<TRIPOS>ATOM
      1  S1         9.0970   23.7730    6.1530 S.O2  401  XMI401      0.0638
      2  O2         9.2570   25.0650    5.3140 O.2   401  XMI401     -0.1528
      3  C3         5.2950   22.9100    4.4790 C.2   401  XMI401      0.2438
      4  O4         4.3620   23.5920    4.0420 O.2   401  XMI401     -0.2733
      5  C5         6.5580   23.6730    5.0370 C.3   401  XMI401      0.1806
      6  N6         7.7240   22.8770    5.5350 N.3   401  XMI401     -0.1445
      7  C7         6.3790   20.7200    5.2920 C.3   401  XMI401      0.1126
      8  C8         7.3550   21.5700    6.1740 C.3   401  XMI401      0.1178
      9  N9         5.1950   21.4970    4.7510 N.am  401  XMI401     -0.2769
     10  O10       10.3630   22.9160    5.9750 O.2   401  XMI401     -0.1528
     11  C11        3.8980   20.7740    4.4790 C.3   401  XMI401      0.0935
     12  C12       -0.9450   15.9340    9.3280 C.ar  401  XMI401      0.1002
     13  N13        1.3310   18.5650    7.5540 N.pl3 401  XMI401     -0.3074
     14  C14        0.4500   17.8860    8.5610 C.ar  401  XMI401      0.0510
     15  C15       -0.1050   16.5330    8.3290 C.ar  401  XMI401      0.0352
     16  C16        2.4770   19.4880    8.0100 C.3   401  XMI401      0.0908
     17  C17        0.0870   18.5330    9.8440 C.ar  401  XMI401      0.0352
     18  C18        1.2150   18.2480    6.0460 C.3   401  XMI401      0.0908
     19  C19        3.2780   19.8250    5.5490 C.3   401  XMI401      0.0233
     20  C20        3.0810   20.4770    6.9640 C.3   401  XMI401      0.0232
     21  N21       -1.2620   16.5670   10.5170 N.ar  401  XMI401     -0.2422
     22  C22       -0.7590   17.8360   10.7720 C.ar  401  XMI401      0.1002
     23  C23        1.9200   19.2150    5.0330 C.3   401  XMI401      0.0232
     24  C24        8.0090   25.3120    8.1980 C.ar  401  XMI401      0.0199
     25  C25        8.8220   24.1610    7.8310 C.ar  401  XMI401      0.1222
     26  C26        8.3300   24.7520   10.6940 C.ar  401  XMI401      0.0009
     27  C27        9.1550   23.5910   10.2940 C.ar  401  XMI401      0.0014
     28  C28        9.3850   23.3130    8.9090 C.ar  401  XMI401      0.0199
     29  C29        7.7370   25.6470    9.5930 C.ar  401  XMI401      0.0014
     30 CL30        6.9230   26.5740   14.1350 Cl    401  XMI401     -0.0822
     31  C31        6.9120   26.8040    9.9930 C.ar  401  XMI401      0.0009
     32  C32        8.0510   25.0810   12.0880 C.ar  401  XMI401      0.0114
     33  C33        6.6760   27.0740   11.3810 C.ar  401  XMI401      0.0114
     34  C34        7.2390   26.2200   12.4460 C.ar  401  XMI401      0.0577
@<TRIPOS>BOND
     1     4     3    2
     2     3     9   am
     3     3     5    1
     4    11     9    1
     5    11    19    1
     6     9     7    1
     7    23    19    1
     8    23    18    1
     9     5     6    1
    10     7     8    1
    11     2     1    2
    12     6     1    1
    13     6     8    1
    14    19    20    1
    15    10     1    2
    16    18    13    1
    17     1    25    1
    18    20    16    1
    19    13    16    1
    20    13    14    1
    21    25    24   ar
    22    25    28   ar
    23    24    29   ar
    24    15    14   ar
    25    15    12   ar
    26    14    17   ar
    27    28    27   ar
    28    12    21   ar
    29    29    31   ar
    30    29    26   ar
    31    17    22   ar
    32    31    33   ar
    33    27    26   ar
    34    21    22   ar
    35    26    32   ar
    36    33    34   ar
    37    32    34   ar
    38    34    30    1
