@<TRIPOS>MOLECULE
1iql_XMJ_A_1.pdb
 32 35 0 0 0
SMALL
GASTEIGER

@<TRIPOS>ATOM
      1  C1         7.7490   24.5890    8.2840 C.2   401  XMJ401      0.0213
      2  C2         8.8770   23.9890    7.8470 C.2   401  XMJ401      0.1407
      3  C3         7.7510   24.2380   10.8730 C.ar  401  XMJ401      0.0009
      4  S4         9.0830   23.5510    6.1830 S.O2  401  XMJ401      0.0651
      5  C5         7.5830   25.1060    9.6860 C.ar  401  XMJ401      0.0014
      6 CL6         7.0520   26.7500   14.0000 Cl    401  XMJ401     -0.0822
      7  O7         9.2840   24.8270    5.3410 O.2   401  XMJ401     -0.1527
      8  C8         5.3410   22.5350    4.3950 C.2   401  XMJ401      0.2438
      9  O9         4.3940   23.1450    3.8770 O.2   401  XMJ401     -0.2733
     10  C10        6.5650   23.3810    4.9480 C.3   401  XMJ401      0.1806
     11  N11        7.7200   22.6470    5.5650 N.3   401  XMJ401     -0.1444
     12  C12        7.2510   26.5220    9.9100 C.ar  401  XMJ401      0.0009
     13  C13        6.6070   20.4260    5.1840 C.3   401  XMJ401      0.1126
     14  C14        7.3830   21.3350    6.1810 C.3   401  XMJ401      0.1178
     15  C15        7.5880   24.7600   12.1910 C.ar  401  XMJ401      0.0114
     16  N16        5.4170   21.0990    4.5310 N.am  401  XMJ401     -0.2769
     17  C17        7.0910   27.0320   11.2460 C.ar  401  XMJ401      0.0114
     18  C18        7.2560   26.1530   12.3950 C.ar  401  XMJ401      0.0577
     19  O19       10.3230   22.6430    6.1100 O.2   401  XMJ401     -0.1527
     20  C20        4.3280   20.2220    4.0360 C.3   401  XMJ401      0.0935
     21  C21       -1.0800   16.3150    8.9680 C.ar  401  XMJ401      0.1002
     22  N22        1.6300   18.4600    7.2540 N.pl3 401  XMJ401     -0.3074
     23  C23        0.7550   17.8790    8.2780 C.ar  401  XMJ401      0.0510
     24  C24       -0.2430   16.8500    7.9290 C.ar  401  XMJ401      0.0352
     25  C25        1.5030   17.9950    5.7890 C.3   401  XMJ401      0.0908
     26  C26        0.8320   18.3000    9.6910 C.ar  401  XMJ401      0.0352
     27  C27        2.6720   19.5320    7.6190 C.3   401  XMJ401      0.0908
     28  C28        3.2360   19.8200    5.0570 C.3   401  XMJ401      0.0233
     29  C29        2.6180   18.4100    4.7720 C.3   401  XMJ401      0.0232
     30  N30       -0.9870   16.7300   10.2900 N.ar  401  XMJ401     -0.2422
     31  C31       -0.0560   17.6960   10.6440 C.ar  401  XMJ401      0.1002
     32  C32        3.7520   19.9140    6.5370 C.3   401  XMJ401      0.0232
@<TRIPOS>BOND
     1     9     8    2
     2    20    16    1
     3    20    28    1
     4     8    16   am
     5     8    10    1
     6    16    13    1
     7    29    28    1
     8    29    25    1
     9    10    11    1
    10    28    32    1
    11    13    14    1
    12     7     4    2
    13    11    14    1
    14    11     4    1
    15    25    22    1
    16    19     4    2
    17     4     2    1
    18    32    27    1
    19    22    27    1
    20    22    23    1
    21     2     1    2
    22    24    23   ar
    23    24    21   ar
    24    23    26   ar
    25     1     5    1
    26    21    30   ar
    27     5    12   ar
    28     5     3   ar
    29    26    31   ar
    30    12    17   ar
    31    30    31   ar
    32     3    15   ar
    33    17    18   ar
    34    15    18   ar
    35    18     6    1
