@<TRIPOS>MOLECULE
1iqm_XMK_A_1.pdb
 31 34 0 0 0
SMALL
GASTEIGER

@<TRIPOS>ATOM
      1  C1         4.7350   19.3850    5.4220 C.3   401  XMK401      0.0722
      2  C2        -0.7670   17.6230   11.5090 C.ar  401  XMK401      0.1002
      3  N3         1.1300   18.3200    8.1020 N.pl3 401  XMK401     -0.3074
      4  C4         0.1920   17.7190    9.1470 C.ar  401  XMK401      0.0510
      5  C5         0.1470   18.2290   10.5550 C.ar  401  XMK401      0.0352
      6  C6         1.1810   17.8010    6.6380 C.3   401  XMK401      0.0908
      7  C7        -0.7390   16.5890    8.8290 C.ar  401  XMK401      0.0352
      8  C8         2.0870   19.4970    8.4420 C.3   401  XMK401      0.0908
      9  C9         3.3340   19.2490    6.1260 C.3   401  XMK401      0.0194
     10  C10        2.5850   17.8720    5.9080 C.3   401  XMK401      0.0229
     11  N11       -1.6180   16.5700   11.1640 N.ar  401  XMK401     -0.2422
     12  C12       -1.6130   16.0600    9.8660 C.ar  401  XMK401      0.1002
     13  C13        3.4490   19.5980    7.6610 C.3   401  XMK401      0.0229
     14  C14        8.3710   25.5810    7.9190 C.2   401  XMK401      0.0213
     15  C15        7.9020   24.5420    7.1680 C.2   401  XMK401      0.1407
     16  C16        8.5160   24.7770   10.4520 C.ar  401  XMK401      0.0009
     17  S17        8.2300   24.3340    5.4380 S.O2  401  XMK401      0.0647
     18  C18        8.0990   25.7650    9.4170 C.ar  401  XMK401      0.0014
     19 CL19        7.2020   26.4740   14.0100 Cl    401  XMK401     -0.0822
     20  O20        7.8190   25.5820    4.6400 O.2   401  XMK401     -0.1527
     21  C21        4.9990   21.7880    4.7080 C.3   401  XMK401      0.0915
     22  C22        5.8270   23.0990    4.8690 C.3   401  XMK401      0.1131
     23  N23        7.3430   22.9380    4.8890 N.3   401  XMK401     -0.1526
     24  C24        7.3920   26.9740    9.8770 C.ar  401  XMK401      0.0009
     25  C25        6.9800   20.3820    5.3110 C.3   401  XMK401      0.0915
     26  C26        7.8880   21.6390    5.4440 C.3   401  XMK401      0.1131
     27  C27        8.2330   25.0040   11.8580 C.ar  401  XMK401      0.0114
     28  N28        5.5260   20.6480    5.5510 N.3   401  XMK401     -0.2702
     29  C29        7.1110   27.1960   11.3000 C.ar  401  XMK401      0.0114
     30  C30        7.5280   26.2130   12.3110 C.ar  401  XMK401      0.0577
     31  O31        9.7220   24.0780    5.1970 O.2   401  XMK401     -0.1527
@<TRIPOS>BOND
     1    20    17    2
     2    21    22    1
     3    21    28    1
     4    22    23    1
     5    23    17    1
     6    23    26    1
     7    31    17    2
     8    25    26    1
     9    25    28    1
    10     1    28    1
    11     1     9    1
    12    17    15    1
    13    10     9    1
    14    10     6    1
    15     9    13    1
    16     6     3    1
    17    15    14    2
    18    13     8    1
    19    14    18    1
    20     3     8    1
    21     3     4    1
    22     7     4   ar
    23     7    12   ar
    24     4     5   ar
    25    18    24   ar
    26    18    16   ar
    27    12    11   ar
    28    24    29   ar
    29    16    27   ar
    30     5     2   ar
    31    11     2   ar
    32    29    30   ar
    33    27    30   ar
    34    30    19    1
