@<TRIPOS>MOLECULE
1iqn_XMC_A_1.pdb
 42 47 0 0 0
SMALL
GASTEIGER

@<TRIPOS>ATOM
      1  C1         8.1800   25.5640    8.2130 C.ar  401  XMC401      0.0199
      2  C2         8.8250   24.3430    7.7700 C.ar  401  XMC401      0.1222
      3  C3         8.4110   24.7920   10.6650 C.ar  401  XMC401      0.0009
      4  C4         9.0630   23.5630   10.1840 C.ar  401  XMC401      0.0014
      5  C5         9.2580   23.3550    8.7870 C.ar  401  XMC401      0.0199
      6  C6         7.9520   25.8350    9.6300 C.ar  401  XMC401      0.0014
      7 CL7         7.3810   26.5510   14.0080 Cl    401  XMC401     -0.0822
      8  C8         7.3020   27.0650   10.1150 C.ar  401  XMC401      0.0009
      9  C9         8.1840   25.0610   12.0760 C.ar  401  XMC401      0.0114
     10  C10        7.1100   27.2710   11.5180 C.ar  401  XMC401      0.0114
     11  C11        7.5470   26.2740   12.5140 C.ar  401  XMC401      0.0577
     12  S12        9.0820   24.0380    6.0730 S.O2  401  XMC401      0.0638
     13  O13        9.1940   25.3690    5.2820 O.2   401  XMC401     -0.1528
     14  C14        5.2740   22.9030    4.6510 C.2   401  XMC401      0.2441
     15  O15        4.2030   23.4610    4.4190 O.2   401  XMC401     -0.2733
     16  C16        6.4840   23.7940    5.1260 C.3   401  XMC401      0.1806
     17  N17        7.7830   23.1100    5.4220 N.3   401  XMC401     -0.1440
     18  C18        6.8600   20.8390    4.8270 C.3   401  XMC401      0.1699
     19  C19        7.7310   20.7850    3.4720 C.2   401  XMC401      0.2454
     20  O20        7.3400   21.4610    2.5100 O.2   401  XMC401     -0.2730
     21  N21        8.9280   19.9870    3.3970 N.am  401  XMC401     -0.2730
     22  C22        9.5630   19.1040    4.4680 C.3   401  XMC401      0.1255
     23  C23       11.0800   19.4580    4.6640 C.3   401  XMC401      0.1636
     24  O24       11.8470   19.4640    3.4090 O.3   401  XMC401     -0.3501
     25  C25        9.7370   19.9710    2.1080 C.3   401  XMC401      0.1255
     26  C26       11.2430   20.3250    2.3840 C.3   401  XMC401      0.1636
     27  C27        7.6650   21.6850    5.8590 C.3   401  XMC401      0.1255
     28  N28        5.4980   21.4690    4.5290 N.am  401  XMC401     -0.2707
     29  O29       10.3640   23.2130    5.8590 O.2   401  XMC401     -0.1528
     30  C30        4.3570   20.5760    4.1010 C.3   401  XMC401      0.0940
     31  C31       -0.0390   17.7040   10.6340 C.ar  401  XMC401      0.1002
     32  N32        2.1720   18.3180    7.4480 N.pl3 401  XMC401     -0.3074
     33  C33        1.2070   17.6970    8.4350 C.ar  401  XMC401      0.0510
     34  C34        0.8850   18.3410    9.7340 C.ar  401  XMC401      0.0352
     35  C35        2.4910   17.6220    6.0950 C.3   401  XMC401      0.0908
     36  C36        0.5260   16.4080    8.1660 C.ar  401  XMC401      0.0352
     37  C37        2.8670   19.6670    7.7610 C.3   401  XMC401      0.0908
     38  C38        3.4330   19.9200    5.1930 C.3   401  XMC401      0.0233
     39  C39        3.3980   18.3590    5.0460 C.3   401  XMC401      0.0232
     40  N40       -0.6540   16.5000   10.3440 N.ar  401  XMC401     -0.2422
     41  C41       -0.3800   15.8680    9.1430 C.ar  401  XMC401      0.1002
     42  C42        3.7920   20.3130    6.6810 C.3   401  XMC401      0.0232
@<TRIPOS>BOND
     1    25    26    1
     2    25    21    1
     3    26    24    1
     4    20    19    2
     5    21    19   am
     6    21    22    1
     7    24    23    1
     8    19    18    1
     9    30    28    1
    10    30    38    1
    11    15    14    2
    12    22    23    1
    13    28    14   am
    14    28    18    1
    15    14    16    1
    16    18    27    1
    17    39    38    1
    18    39    35    1
    19    16    17    1
    20    38    42    1
    21    13    12    2
    22    17    27    1
    23    17    12    1
    24    29    12    2
    25    12     2    1
    26    35    32    1
    27    42    37    1
    28    32    37    1
    29    32    33    1
    30     2     1   ar
    31     2     5   ar
    32    36    33   ar
    33    36    41   ar
    34     1     6   ar
    35    33    34   ar
    36     5     4   ar
    37    41    40   ar
    38     6     8   ar
    39     6     3   ar
    40    34    31   ar
    41     8    10   ar
    42     4     3   ar
    43    40    31   ar
    44     3     9   ar
    45    10    11   ar
    46     9    11   ar
    47    11     7    1
