@<TRIPOS>MOLECULE
1iqp_ADP_A_1.pdb
 27 29 0 0 0
SMALL
GASTEIGER

@<TRIPOS>ATOM
      1  PB        31.6540   54.0720  163.3060 P.3   401  ADP401      0.5373
      2  O1B       32.5410   52.9320  163.6550 O.2   401  ADP401     -0.2221
      3  O2B       30.2060   53.8990  163.8530 O.3   401  ADP401     -0.1143
      4  O3B       32.2310   55.4220  163.7230 O.3   401  ADP401     -0.1143
      5  PA        31.2300   55.3750  160.6260 P.3   401  ADP401      0.2231
      6  O1A       30.0950   56.1700  161.1500 O.3   401  ADP401     -0.4370
      7  O2A       31.0900   54.8100  159.2970 O.2   401  ADP401     -0.5169
      8  O3A       31.4540   54.1380  161.7250 O.3   401  ADP401     -0.2261
      9  O5'       32.5710   56.2980  160.7170 O.3   401  ADP401     -0.3111
     10  C5'       33.8790   55.8020  160.2530 C.3   401  ADP401      0.1813
     11  C4'       34.4670   56.5100  159.0100 C.3   401  ADP401      0.1821
     12  O4'       34.2290   55.6300  157.8150 O.3   401  ADP401     -0.3135
     13  C3'       33.8320   57.8380  158.5800 C.3   401  ADP401      0.2184
     14  O3'       34.4980   58.9350  159.2270 O.3   401  ADP401     -0.2174
     15  C2'       34.1400   57.9040  157.0200 C.3   401  ADP401      0.2570
     16  O2'       35.4970   58.3340  156.6690 O.3   401  ADP401     -0.2130
     17  C1'       34.0300   56.4180  156.6210 C.3   401  ADP401      0.3186
     18  N9        32.6570   56.0740  156.0340 N.pl3 401  ADP401     -0.1439
     19  C8        31.7890   55.2160  156.5270 C.3   401  ADP401      0.3377
     20  N7        30.7210   55.1240  155.8420 N.2   401  ADP401     -0.2095
     21  C5        30.8960   56.0040  154.7910 C.2   401  ADP401      0.2526
     22  C6        30.0890   56.3930  153.6540 C.2   401  ADP401      0.4393
     23  N6        28.8490   55.8680  153.4220 N.pl3 401  ADP401      0.2180
     24  N1        30.5990   57.3210  152.7870 N.2   401  ADP401      0.0021
     25  C2        31.8190   57.8400  153.0140 C.3   401  ADP401      0.5254
     26  N3        32.6410   57.5360  154.0530 N.2   401  ADP401     -0.0055
     27  C4        32.1150   56.6080  154.9040 C.2   401  ADP401      0.3518
@<TRIPOS>BOND
     1    24    25    1
     2    24    22    2
     3    25    26    1
     4    23    22    1
     5    22    21    1
     6    26    27    2
     7    21    27    1
     8    21    20    2
     9    27    18    1
    10    20    19    1
    11    18    19    1
    12    18    17    1
    13    17    15    1
    14    17    12    1
    15    16    15    1
    16    15    13    1
    17    12    11    1
    18    13    11    1
    19    13    14    1
    20    11    10    1
    21     7     5    2
    22    10     9    1
    23     5     9    1
    24     5     6    1
    25     5     8    1
    26     8     1    1
    27     1     2    2
    28     1     4    1
    29     1     3    1
