@<TRIPOS>MOLECULE
1ir1_CAP_A_1.pdb
 21 20 0 0 0
SMALL
GASTEIGER

@<TRIPOS>ATOM
      1  C1       -36.6260   35.1930   28.8770 C.3   501  CAP501      0.1978
      2  C2       -35.9090   34.8850   30.2000 C.3   501  CAP501      0.2763
      3  C3       -35.7940   36.1940   31.0430 C.3   501  CAP501      0.2253
      4  C4       -37.0910   36.8980   31.5340 C.3   501  CAP501      0.2152
      5  C5       -36.9710   37.6190   32.9030 C.3   501  CAP501      0.1892
      6  C        -36.6290   33.7580   31.0440 C.2   501  CAP501      0.3967
      7  O1       -36.7380   34.0480   28.0410 O.3   501  CAP501     -0.2669
      8  O2       -34.5790   34.4480   29.8600 O.3   501  CAP501     -0.2086
      9  O3       -34.9950   35.9660   32.2060 O.3   501  CAP501     -0.2170
     10  O4       -37.4290   37.8090   30.5110 O.3   501  CAP501     -0.2176
     11  O5       -38.2040   38.2700   33.1860 O.3   501  CAP501     -0.2674
     12  O6       -35.9670   33.0570   31.8130 O.co2 501  CAP501     -0.2428
     13  O7       -37.8390   33.5700   30.9650 O.co2 501  CAP501     -0.2428
     14  P1       -37.4700   34.2130   26.6350 P.3   501  CAP501      0.5327
     15  P2       -38.2030   39.8520   33.4130 P.3   501  CAP501      0.5327
     16  O1P      -36.7300   35.2060   25.8450 O.2   501  CAP501     -0.2224
     17  O2P      -38.9020   34.5000   26.9570 O.3   501  CAP501     -0.1145
     18  O3P      -37.3640   32.7820   26.0170 O.3   501  CAP501     -0.1145
     19  O4P      -37.5060   40.5240   32.3010 O.2   501  CAP501     -0.2224
     20  O5P      -39.6390   40.1890   33.6250 O.3   501  CAP501     -0.1145
     21  O6P      -37.4020   40.0050   34.7760 O.3   501  CAP501     -0.1145
@<TRIPOS>BOND
     1    16    14    2
     2    18    14    1
     3    14    17    1
     4    14     7    1
     5     7     1    1
     6     1     2    1
     7     8     2    1
     8     2     3    1
     9     2     6    1
    10    10     4    1
    11    13     6   ar
    12     3     4    1
    13     3     9    1
    14     6    12   ar
    15     4     5    1
    16    19    15    2
    17     5    11    1
    18    11    15    1
    19    15    20    1
    20    15    21    1
