@<TRIPOS>MOLECULE
1ir2_CAP_A_1.pdb
 21 20 0 0 0
SMALL
GASTEIGER

@<TRIPOS>ATOM
      1  C1       -14.3430   12.4760  103.3530 C.3   501  CAP501      0.1978
      2  C2       -12.9040   13.0150  103.3240 C.3   501  CAP501      0.2763
      3  C3       -12.8420   14.2270  102.3390 C.3   501  CAP501      0.2253
      4  C4       -13.6570   15.5110  102.6610 C.3   501  CAP501      0.2152
      5  C5       -12.9650   16.8430  102.2710 C.3   501  CAP501      0.1892
      6  C        -12.3780   13.4630  104.7450 C.2   501  CAP501      0.3967
      7  O1       -14.4920   11.3300  104.1860 O.3   501  CAP501     -0.2669
      8  O2       -12.0740   11.9590  102.8040 O.3   501  CAP501     -0.2086
      9  O3       -11.4870   14.6350  102.1450 O.3   501  CAP501     -0.2170
     10  O4       -14.8750   15.3580  101.9640 O.3   501  CAP501     -0.2176
     11  O5       -13.8290   17.9300  102.5760 O.3   501  CAP501     -0.2674
     12  O6       -11.1660   13.5060  104.9610 O.co2 501  CAP501     -0.2428
     13  O7       -13.1520   13.8050  105.6390 O.co2 501  CAP501     -0.2428
     14  P1       -15.9480   10.6980  104.3120 P.3   501  CAP501      0.5327
     15  P2       -14.3980   18.8370  101.3950 P.3   501  CAP501      0.5327
     16  O1P      -16.4020   10.3000  102.9720 O.2   501  CAP501     -0.2224
     17  O2P      -16.7560   11.7090  105.0450 O.3   501  CAP501     -0.1145
     18  O3P      -15.7130    9.4630  105.2430 O.3   501  CAP501     -0.1145
     19  O4P      -15.0230   17.9990  100.3680 O.2   501  CAP501     -0.2224
     20  O5P      -15.2680   19.8390  102.0750 O.3   501  CAP501     -0.1145
     21  O6P      -13.0920   19.5380  100.8540 O.3   501  CAP501     -0.1145
@<TRIPOS>BOND
     1    19    15    2
     2    21    15    1
     3    15    20    1
     4    15    11    1
     5    10     4    1
     6     9     3    1
     7     5    11    1
     8     5     4    1
     9     3     4    1
    10     3     2    1
    11     8     2    1
    12    16    14    2
    13     2     1    1
    14     2     6    1
    15     1     7    1
    16     7    14    1
    17    14    17    1
    18    14    18    1
    19     6    12   ar
    20     6    13   ar
