@<TRIPOS>MOLECULE
1ir3_III_B_1.pdb
 48 48 0 0 0
SMALL
GASTEIGER

@<TRIPOS>ATOM
      1  N        -19.4010   23.2620   22.3980 N.3     8  GLY8       -0.1210
      2  CA       -19.7810   24.0070   21.2120 C.3     8  GLY8        0.1956
      3  C        -19.9250   25.4960   21.4750 C.2     8  GLY8        0.2612
      4  O        -19.6080   25.9840   22.5630 O.2     8  GLY8       -0.2717
      5  N        -20.4190   26.2150   20.4720 N.am    9  ASP9       -0.1959
      6  CA       -20.6160   27.6540   20.5700 C.3     9  ASP9        0.1840
      7  C        -21.8400   28.0300   21.3870 C.2     9  ASP9        0.2622
      8  O        -21.9990   29.1920   21.7510 O.2     9  ASP9       -0.2715
      9  CB       -20.7290   28.2690   19.1740 C.3     9  ASP9        0.1450
     10  CG       -19.4290   28.1970   18.3990 C.2     9  ASP9        0.3671
     11  OD1      -18.3460   28.1900   19.0280 O.co2   9  ASP9       -0.2456
     12  OD2      -19.4930   28.1510   17.1590 O.co2   9  ASP9       -0.2456
     13  N        -22.6940   27.0450   21.6700 N.am   10  TYR10      -0.1960
     14  CA       -23.9180   27.2710   22.4330 C.3    10  TYR10       0.1771
     15  C        -24.0260   26.3980   23.6730 C.2    10  TYR10       0.2619
     16  O        -23.4720   25.3020   23.7360 O.2    10  TYR10      -0.2715
     17  CB       -25.1470   27.0340   21.5470 C.3    10  TYR10       0.0574
     18  CG       -25.1500   27.8670   20.2920 C.ar   10  TYR10      -0.0198
     19  CD1      -24.4800   27.4380   19.1500 C.ar   10  TYR10      -0.0009
     20  CD2      -25.7680   29.1160   20.2660 C.ar   10  TYR10      -0.0009
     21  CE1      -24.4160   28.2320   18.0160 C.ar   10  TYR10       0.0417
     22  CE2      -25.7110   29.9140   19.1340 C.ar   10  TYR10       0.0417
     23  CZ       -25.0330   29.4690   18.0210 C.ar   10  TYR10       0.1957
     24  OH       -24.9470   30.2580   16.9100 O.3    10  TYR10      -0.2866
     25  N        -24.7530   26.9010   24.6580 N.am   11  MET11      -0.1963
     26  CA       -24.9820   26.1810   25.8990 C.3    11  MET11       0.1736
     27  C        -26.4910   26.1910   26.1410 C.2    11  MET11       0.2616
     28  O        -27.1360   27.2380   26.0340 O.2    11  MET11      -0.2715
     29  CB       -24.2590   26.8640   27.0600 C.3    11  MET11       0.0427
     30  CG       -24.3810   26.1200   28.3800 C.3    11  MET11       0.0599
     31  SD       -23.5340   26.9490   29.7240 S.3    11  MET11      -0.1393
     32  CE       -24.9040   27.5800   30.6810 C.3    11  MET11       0.0692
     33  N        -27.0540   25.0270   26.4520 N.am   12  ASN12      -0.1958
     34  CA       -28.4850   24.9400   26.7190 C.3    12  ASN12       0.1819
     35  C        -28.6930   25.4610   28.1360 C.2    12  ASN12       0.2621
     36  O        -28.2440   24.8450   29.1050 O.2    12  ASN12      -0.2715
     37  CB       -28.9710   23.4960   26.5810 C.3    12  ASN12       0.1195
     38  CG       -30.4840   23.3900   26.5000 C.2    12  ASN12       0.2630
     39  OD1      -31.0630   22.3860   26.9170 O.2    12  ASN12      -0.2716
     40  ND2      -31.1320   24.4160   25.9490 N.am   12  ASN12      -0.0877
     41  N        -29.3650   26.6040   28.2480 N.am   13  MET13      -0.1977
     42  CA       -29.6070   27.2350   29.5430 C.3    13  MET13       0.1605
     43  C        -30.9130   28.0360   29.5650 C.2    13  MET13       0.2287
     44  O        -31.5220   28.2730   28.5210 O.2    13  MET13      -0.2864
     45  CB       -28.4260   28.1540   29.9020 C.3    13  MET13       0.0413
     46  CG       -28.0860   29.1900   28.8360 C.3    13  MET13       0.0598
     47  SD       -26.7470   30.3160   29.3100 S.3    13  MET13      -0.1393
     48  CE       -27.5930   31.3830   30.4850 C.3    13  MET13       0.0692
@<TRIPOS>BOND
     1    24    23    1
     2    12    10   ar
     3    21    23   ar
     4    21    19   ar
     5    23    22   ar
     6    10    11   ar
     7    10     9    1
     8    22    20   ar
     9    19    18   ar
    10     9     6    1
    11    20    18   ar
    12    18    17    1
    13     5     6    1
    14     5     3   am
    15     6     7    1
    16     2     3    1
    17     2     1    1
    18     7    13   am
    19     7     8    2
    20     3     4    2
    21    17    14    1
    22    13    14    1
    23    14    15    1
    24    15    16    2
    25    15    25   am
    26    25    26    1
    27    26    27    1
    28    26    29    1
    29    40    38   am
    30    28    27    2
    31    27    33   am
    32    33    34    1
    33    38    37    1
    34    38    39    2
    35    37    34    1
    36    34    35    1
    37    29    30    1
    38    35    41   am
    39    35    36    2
    40    41    42    1
    41    30    31    1
    42    44    43    2
    43    46    47    1
    44    46    45    1
    45    47    48    1
    46    42    43    1
    47    42    45    1
    48    31    32    1
