@<TRIPOS>MOLECULE
1ir3_ANP_A_1.pdb
 31 33 0 0 0
SMALL
GASTEIGER

@<TRIPOS>ATOM
      1  PG       -23.1450   27.9410   12.7610 P.3   300  ANP300      0.4884
      2  O1G      -21.8760   27.2740   12.4160 O.3   300  ANP300     -0.1240
      3  O2G      -23.3600   29.2560   12.0980 O.2   300  ANP300     -0.2331
      4  O3G      -23.4590   27.9350   14.2260 O.3   300  ANP300     -0.1240
      5  PB       -25.7170   27.4290   11.1990 P.3   300  ANP300      0.4669
      6  O1B      -26.6740   26.2930   11.3080 O.2   300  ANP300     -0.2351
      7  O2B      -26.2170   28.7330   11.6620 O.3   300  ANP300     -0.1253
      8  N3B      -24.3160   26.9890   12.0170 N.3   300  ANP300     -0.0163
      9  PA       -25.9480   27.9420    8.4000 P.3   300  ANP300      0.2220
     10  O1A      -26.7780   26.8340    7.9370 O.2   300  ANP300     -0.5170
     11  O2A      -26.5820   29.2870    8.5310 O.3   300  ANP300     -0.4370
     12  O3A      -25.1650   27.5280    9.7330 O.3   300  ANP300     -0.2360
     13  O5'      -24.6780   28.1010    7.4210 O.3   300  ANP300     -0.3111
     14  C5'      -23.6690   27.0850    7.2630 C.3   300  ANP300      0.1813
     15  C4'      -22.4870   27.6050    6.4670 C.3   300  ANP300      0.1821
     16  O4'      -22.9280   27.8230    5.1320 O.3   300  ANP300     -0.3135
     17  C3'      -21.9570   28.9650    6.9350 C.3   300  ANP300      0.2184
     18  O3'      -20.9510   28.8580    7.9850 O.3   300  ANP300     -0.2174
     19  C2'      -21.2960   29.5060    5.6970 C.3   300  ANP300      0.2570
     20  O2'      -19.9590   28.9500    5.5010 O.3   300  ANP300     -0.2130
     21  C1'      -22.2230   28.9640    4.5960 C.3   300  ANP300      0.3186
     22  N9       -23.1810   30.0180    4.1730 N.pl3 300  ANP300     -0.1439
     23  C8       -24.3350   30.4190    4.7830 C.3   300  ANP300      0.3377
     24  N7       -24.9800   31.3390    4.1140 N.2   300  ANP300     -0.2095
     25  C5       -24.2070   31.5650    3.0010 C.2   300  ANP300      0.2526
     26  C6       -24.3500   32.4420    1.8940 C.2   300  ANP300      0.4393
     27  N6       -25.3560   33.3220    1.7330 N.pl3 300  ANP300      0.2180
     28  N1       -23.3880   32.3910    0.9670 N.2   300  ANP300      0.0021
     29  C2       -22.3640   31.5480    1.1320 C.3   300  ANP300      0.5254
     30  N3       -22.1140   30.7020    2.1040 N.2   300  ANP300     -0.0055
     31  C4       -23.1010   30.7620    3.0250 C.2   300  ANP300      0.3518
@<TRIPOS>BOND
     1    28    29    1
     2    28    26    2
     3    29    30    1
     4    27    26    1
     5    26    25    1
     6    30    31    2
     7    25    31    1
     8    25    24    2
     9    31    22    1
    10    24    23    1
    11    22    21    1
    12    22    23    1
    13    21    16    1
    14    21    19    1
    15    16    15    1
    16    20    19    1
    17    19    17    1
    18    15    17    1
    19    15    14    1
    20    17    18    1
    21    14    13    1
    22    13     9    1
    23    10     9    2
    24     9    11    1
    25     9    12    1
    26    12     5    1
    27     5     6    2
    28     5     7    1
    29     5     8    1
    30     8     1    1
    31     3     1    2
    32     2     1    1
    33     1     4    1
