@<TRIPOS>MOLECULE
1irc_HEM_A_1.pdb
 43 50 0 0 0
SMALL
GASTEIGER

@<TRIPOS>ATOM
      1 FE         -5.2560   30.6890   -8.2980 Fe    154  HEM154      0.0000
      2  CHA       -5.9540   33.7510   -9.0180 C.2   154  HEM154      0.0000
      3  CHB       -4.4920   31.5470   -4.9450 C.2   154  HEM154      0.0000
      4  CHC       -4.4390   27.4510   -7.3410 C.2   154  HEM154      0.0000
      5  CHD       -6.0510   29.7020  -11.3680 C.2   154  HEM154      0.0000
      6  NA        -5.1240   32.1650   -7.2850 N.2   154  HEM154      0.0000
      7  C1A       -5.5080   33.4000   -7.8030 C.2   154  HEM154      0.0000
      8  C2A       -5.4360   34.3950   -6.7710 C.2   154  HEM154      0.0000
      9  C3A       -5.0960   33.8220   -5.6520 C.2   154  HEM154      0.0000
     10  C4A       -4.8830   32.4340   -5.9130 C.2   154  HEM154      0.0000
     11  CMA       -4.8760   34.5080   -4.2860 C.3   154  HEM154      0.0000
     12  CAA       -5.8400   35.8640   -6.9390 C.3   154  HEM154      0.0000
     13  CBA       -7.2800   36.1980   -6.4380 C.3   154  HEM154      0.0000
     14  CGA       -8.3400   35.3230   -7.0430 C.2   154  HEM154      0.0000
     15  O1A       -8.5020   35.4620   -8.2850 O.co2 154  HEM154      0.0000
     16  O2A       -8.8230   34.4090   -6.3060 O.co2 154  HEM154      0.0000
     17  NB        -4.5700   29.6620   -6.4980 N.ar  154  HEM154      0.0000
     18  C1B       -4.3700   30.2250   -5.2400 C.ar  154  HEM154      0.0000
     19  C2B       -4.0050   29.2630   -4.2900 C.ar  154  HEM154      0.0000
     20  C3B       -3.9540   28.1090   -4.9140 C.ar  154  HEM154      0.0000
     21  C4B       -4.3420   28.3530   -6.3200 C.ar  154  HEM154      0.0000
     22  CMB       -3.7670   29.6710   -2.8520 C.3   154  HEM154      0.0000
     23  CAB       -3.6360   26.7290   -4.3040 C.2   154  HEM154      0.0000
     24  CBB       -2.5090   26.5030   -3.6310 C.2   154  HEM154      0.0000
     25  NC        -5.2370   29.0320   -9.0530 N.2   154  HEM154      0.0000
     26  C1C       -4.8260   27.7720   -8.6000 C.2   154  HEM154      0.0000
     27  C2C       -4.9200   26.7960   -9.6870 C.2   154  HEM154      0.0000
     28  C3C       -5.3290   27.4450  -10.7780 C.2   154  HEM154      0.0000
     29  C4C       -5.5240   28.8190  -10.4340 C.2   154  HEM154      0.0000
     30  CMC       -4.5040   25.3410   -9.5280 C.3   154  HEM154      0.0000
     31  CAC       -5.5800   26.9960  -12.2230 C.2   154  HEM154      0.0000
     32  CBC       -5.0790   25.8590  -12.6650 C.2   154  HEM154      0.0000
     33  ND        -5.8920   31.5080   -9.7990 N.ar  154  HEM154      0.0000
     34  C1D       -6.2200   31.0020  -11.0570 C.ar  154  HEM154      0.0000
     35  C2D       -6.6090   32.0540  -11.9510 C.ar  154  HEM154      0.0000
     36  C3D       -6.6090   33.1620  -11.2530 C.ar  154  HEM154      0.0000
     37  C4D       -6.1530   32.8410   -9.9520 C.ar  154  HEM154      0.0000
     38  CMD       -7.0130   31.8370  -13.3980 C.3   154  HEM154      0.0000
     39  CAD       -6.8150   34.5850  -11.6570 C.3   154  HEM154      0.0000
     40  CBD       -5.5650   35.4900  -11.4240 C.3   154  HEM154      0.0000
     41  CGD       -5.3180   36.6170  -12.4080 C.2   154  HEM154      0.0000
     42  O1D       -5.1700   36.2270  -13.5730 O.co2 154  HEM154      0.0000
     43  O2D       -5.3230   37.8410  -12.0180 O.co2 154  HEM154      0.0000
@<TRIPOS>BOND
     1    42    41   ar
     2    38    35    1
     3    32    31    2
     4    41    43   ar
     5    41    40    1
     6    31    28    1
     7    35    36   ar
     8    35    34   ar
     9    39    40    1
    10    39    36    1
    11     5    34    2
    12     5    29    1
    13    36    37   ar
    14    34    33   ar
    15    28    29    1
    16    28    27    2
    17    29    25    2
    18    37    33   ar
    19    37     2    2
    20    33     1    1
    21    27    30    1
    22    27    26    1
    23    25    26    1
    24    25     1    1
    25     2     7    1
    26    26     4    2
    27     1     6    1
    28     1    17    1
    29    15    14   ar
    30     7     6    2
    31     7     8    1
    32     4    21    1
    33     6    10    1
    34    14    13    1
    35    14    16   ar
    36    12     8    1
    37    12    13    1
    38     8     9    2
    39    17    21   ar
    40    17    18   ar
    41    21    20   ar
    42    10     9    1
    43    10     3    2
    44     9    11    1
    45    18     3    1
    46    18    19   ar
    47    20    23    1
    48    20    19   ar
    49    23    24    2
    50    19    22    1
