@<TRIPOS>MOLECULE
1ird_HEM_A_1.pdb
 43 50 0 0 0
SMALL
GASTEIGER

@<TRIPOS>ATOM
      1 FE         40.2230   29.4030   15.4150 Fe    142  HEM142      0.0000
      2  CHA       42.9640   28.4370   17.2500 C.2   142  HEM142      0.0000
      3  CHB       40.7810   32.5800   16.2940 C.2   142  HEM142      0.0000
      4  CHC       37.6630   30.3590   13.4140 C.2   142  HEM142      0.0000
      5  CHD       39.5440   26.1190   14.7950 C.2   142  HEM142      0.0000
      6  NA        41.6090   30.3230   16.5390 N.2   142  HEM142      0.0000
      7  C1A       42.7030   29.7270   17.2190 C.2   142  HEM142      0.0000
      8  C2A       43.4630   30.7580   17.9820 C.2   142  HEM142      0.0000
      9  C3A       42.7290   31.9490   17.7600 C.2   142  HEM142      0.0000
     10  C4A       41.7200   31.7040   16.8520 C.2   142  HEM142      0.0000
     11  CMA       43.1540   33.3420   18.2220 C.3   142  HEM142      0.0000
     12  CAA       44.5850   30.5670   18.8590 C.3   142  HEM142      0.0000
     13  CBA       45.7720   30.7530   18.0190 C.3   142  HEM142      0.0000
     14  CGA       47.2270   30.2440   18.9780 C.2   142  HEM142      0.0000
     15  O1A       47.0510   29.6940   20.0850 O.co2 142  HEM142      0.0000
     16  O2A       48.0840   31.0250   18.0460 O.co2 142  HEM142      0.0000
     17  NB        39.4470   31.2090   14.8830 N.ar  142  HEM142      0.0000
     18  C1B       39.7950   32.4400   15.3690 C.ar  142  HEM142      0.0000
     19  C2B       38.9790   33.4350   14.8300 C.ar  142  HEM142      0.0000
     20  C3B       38.0740   32.8290   13.9860 C.ar  142  HEM142      0.0000
     21  C4B       38.4350   31.3960   14.0350 C.ar  142  HEM142      0.0000
     22  CMB       39.1660   34.9390   15.0720 C.3   142  HEM142      0.0000
     23  CAB       36.9420   33.4010   13.2050 C.2   142  HEM142      0.0000
     24  CBB       36.2420   34.4240   13.5700 C.2   142  HEM142      0.0000
     25  NC        38.8860   28.4690   14.2070 N.2   142  HEM142      0.0000
     26  C1C       37.8880   29.0270   13.5070 C.2   142  HEM142      0.0000
     27  C2C       37.0270   28.0580   12.9940 C.2   142  HEM142      0.0000
     28  C3C       37.4820   26.8740   13.4220 C.2   142  HEM142      0.0000
     29  C4C       38.7040   27.1070   14.1810 C.2   142  HEM142      0.0000
     30  CMC       35.7750   28.3480   12.1320 C.3   142  HEM142      0.0000
     31  CAC       36.9900   25.5190   13.1600 C.3   142  HEM142      0.0000
     32  CBC       35.6460   25.1990   13.1140 C.3   142  HEM142      0.0000
     33  ND        41.0940   27.5720   15.9060 N.ar  142  HEM142      0.0000
     34  C1D       40.6020   26.3960   15.5560 C.ar  142  HEM142      0.0000
     35  C2D       41.4630   25.3900   16.2050 C.ar  142  HEM142      0.0000
     36  C3D       42.4440   25.9660   16.8460 C.ar  142  HEM142      0.0000
     37  C4D       42.2630   27.4500   16.5850 C.ar  142  HEM142      0.0000
     38  CMD       41.1180   23.8710   15.9810 C.3   142  HEM142      0.0000
     39  CAD       43.5980   25.3360   17.6310 C.3   142  HEM142      0.0000
     40  CBD       43.1220   24.9240   18.9350 C.3   142  HEM142      0.0000
     41  CGD       44.4320   24.3940   19.8500 C.3   142  HEM142      0.0000
     42  O1D       44.3650   24.0770   20.8100 O.2   142  HEM142      0.0000
     43  O2D       44.9570   23.2620   18.7600 O.2   142  HEM142      0.0000
@<TRIPOS>BOND
     1    30    27    1
     2    27    28    2
     3    27    26    1
     4    32    31    1
     5    31    28    1
     6    23    24    2
     7    23    20    1
     8     4    26    2
     9     4    21    1
    10    28    29    1
    11    26    25    1
    12    20    21   ar
    13    20    19   ar
    14    21    17   ar
    15    29    25    2
    16    29     5    1
    17    25     1    1
    18     5    34    2
    19    19    22    1
    20    19    18   ar
    21    17    18   ar
    22    17     1    1
    23    18     3    1
    24     1    33    1
    25     1     6    1
    26    34    33   ar
    27    34    35   ar
    28    33    37   ar
    29    38    35    1
    30    35    36   ar
    31     3    10    2
    32     6    10    1
    33     6     7    2
    34    37    36   ar
    35    37     2    2
    36    36    39    1
    37    10     9    1
    38     7     2    1
    39     7     8    1
    40    39    40    1
    41     9     8    2
    42     9    11    1
    43     8    12    1
    44    13    12    1
    45    13    14    1
    46    16    14   ar
    47    43    41    1
    48    40    41    1
    49    14    15   ar
    50    41    42    1
