@<TRIPOS>MOLECULE
1iri_E4P_A_1.pdb
 12 11 0 0 0
SMALL
GASTEIGER

@<TRIPOS>ATOM
      1  C1         9.9200   18.0520   80.4680 C.3   601  E4P601      0.2175
      2  O1        10.9930   17.5200   80.1860 O.3   601  E4P601     -0.2175
      3  C2        10.0190   19.5180   80.1240 C.3   601  E4P601      0.2174
      4  O2        10.9260   19.7930   79.0580 O.3   601  E4P601     -0.2175
      5  C3        10.5460   20.1530   81.3940 C.3   601  E4P601      0.2147
      6  O3         9.5040   20.0640   82.3340 O.3   601  E4P601     -0.2176
      7  C4        11.0030   21.5840   81.2270 C.3   601  E4P601      0.1892
      8  O4         9.9430   22.3700   80.7010 O.3   601  E4P601     -0.2674
      9  P         10.2520   23.8310   80.4120 P.3   601  E4P601      0.5327
     10  O1P       11.0130   24.4690   81.5430 O.3   601  E4P601     -0.1145
     11  O2P       11.0840   23.8180   79.1630 O.2   601  E4P601     -0.2224
     12  O3P        8.9710   24.5530   80.1800 O.3   601  E4P601     -0.1145
@<TRIPOS>BOND
     1     4     3    1
     2    11     9    2
     3     3     1    1
     4     3     5    1
     5    12     9    1
     6     2     1    1
     7     9     8    1
     8     9    10    1
     9     8     7    1
    10     7     5    1
    11     5     6    1
