@<TRIPOS>MOLECULE
1irj_CPS_B_1.pdb
 32 35 0 0 0
SMALL
GASTEIGER

@<TRIPOS>ATOM
      1  C1         3.9680   43.6950   18.7820 C.3   189  CPS189      0.0026
      2  C2         5.4920   43.6060   18.7400 C.3   189  CPS189      0.0004
      3  C3         5.8570   46.1090   19.1340 C.3   189  CPS189      0.0330
      4  C4         6.4360   47.6160   18.9520 C.3   189  CPS189      0.1519
      5  C5         7.9220   47.5560   18.7750 C.3   189  CPS189      0.0282
      6  C6         8.3110   46.4360   17.8430 C.3   189  CPS189      0.0048
      7  C7         9.7990   46.4650   17.6750 C.3   189  CPS189      0.0002
      8  C8        10.1710   48.0190   18.0200 C.3   189  CPS189      0.0001
      9  C9         8.7200   48.6690   18.4000 C.3   189  CPS189      0.0024
     10  C10        8.5520   46.9980   20.3170 C.3   189  CPS189      0.0025
     11  C11        6.1260   43.1960   20.1550 C.3   189  CPS189      0.0000
     12  C12        3.3040   43.9160   17.4370 C.3   189  CPS189      0.0329
     13  C13        3.6680   42.9160   16.4120 C.3   189  CPS189      0.1520
     14  C14        5.2280   42.8320   16.2320 C.3   189  CPS189      0.0330
     15  C15        5.8830   42.5610   17.6680 C.3   189  CPS189      0.0050
     16  C16        7.3440   42.4510   17.5020 C.3   189  CPS189      0.0330
     17  C17        8.1640   43.6940   17.1600 C.3   189  CPS189      0.1519
     18  C18        7.8510   45.0040   18.1030 C.3   189  CPS189      0.0306
     19  C19        6.1630   44.9360   18.2410 C.3   189  CPS189      0.0050
     20  C20        8.9530   49.8910   19.3900 C.3   189  CPS189      0.0006
     21  C21        7.7160   50.6070   19.8960 C.3   189  CPS189      0.0000
     22  C22        9.9010   50.9400   18.7320 C.3   189  CPS189      0.0096
     23  C23       10.1940   52.0740   19.5870 C.3   189  CPS189      0.0868
     24  C24       11.2000   52.9580   19.0970 C.2   189  CPS189      0.2414
     25  C25       12.8040   54.6760   19.9280 C.3   189  CPS189      0.1151
     26  C26       12.0080   55.7610   20.6410 C.3   189  CPS189      0.0234
     27  C27       11.3500   56.6630   19.6070 C.3   189  CPS189      0.0019
     28  N1        12.1620   53.3720   20.1350 N.am  189  CPS189     -0.2054
     29  O1        11.1070   53.5080   17.9980 O.2   189  CPS189     -0.2733
     30  O2         3.0220   43.1680   15.0560 O.3   189  CPS189     -0.2232
     31  O3         7.9450   44.1540   15.9440 O.3   189  CPS189     -0.2232
     32  O4         6.0060   48.0040   17.8740 O.3   189  CPS189     -0.2232
@<TRIPOS>BOND
     1    30    13    1
     2    31    17    1
     3    14    13    1
     4    14    15    1
     5    13    12    1
     6    17    16    1
     7    17    18    1
     8    12     1    1
     9    16    15    1
    10    15     2    1
    11     7     6    1
    12     7     8    1
    13     6    18    1
    14     6     5    1
    15    32     4    1
    16    29    24    2
    17     8     9    1
    18    18    19    1
    19    19     2    1
    20    19     3    1
    21     9     5    1
    22     9    20    1
    23    22    20    1
    24    22    23    1
    25     2     1    1
    26     2    11    1
    27     5     4    1
    28     5    10    1
    29     4     3    1
    30    24    23    1
    31    24    28   am
    32    20    21    1
    33    27    26    1
    34    25    28    1
    35    25    26    1
