@<TRIPOS>MOLECULE
1irv_HEM_A_1.pdb
 43 50 0 0 0
SMALL
GASTEIGER

@<TRIPOS>ATOM
      1 FE          2.7350   21.1730   13.3060 Fe    104  HEM104      0.0000
      2  CHA        4.8500   18.7690   14.3680 C.2   104  HEM104      0.0000
      3  CHB        3.8820   20.8080   10.0620 C.2   104  HEM104      0.0000
      4  CHC       -0.1680   22.5870   12.0650 C.2   104  HEM104      0.0000
      5  CHD        1.7620   21.7690   16.5060 C.2   104  HEM104      0.0000
      6  NA         4.1640   20.0790   12.4370 N.ar  104  HEM104      0.0000
      7  C1A        4.8600   19.0360   13.0190 C.ar  104  HEM104      0.0000
      8  C2A        5.6250   18.3210   12.0100 C.ar  104  HEM104      0.0000
      9  C3A        5.2770   18.8720   10.7960 C.ar  104  HEM104      0.0000
     10  C4A        4.3470   19.9330   11.0260 C.ar  104  HEM104      0.0000
     11  CMA        5.7860   18.4330    9.4110 C.3   104  HEM104      0.0000
     12  CAA        6.5400   17.1210   12.2660 C.3   104  HEM104      0.0000
     13  CBA        7.8600   17.5190   12.8070 C.3   104  HEM104      0.0000
     14  CGA        9.2140   17.0000   12.7010 C.2   104  HEM104      0.0000
     15  O1A       10.1440   17.8940   12.9830 O.co2 104  HEM104      0.0000
     16  O2A        9.5990   15.8130   12.4550 O.co2 104  HEM104      0.0000
     17  NB         1.9900   21.6490   11.4340 N.2   104  HEM104      0.0000
     18  C1B        2.7080   21.5230   10.2700 C.2   104  HEM104      0.0000
     19  C2B        1.9930   22.2610    9.2170 C.2   104  HEM104      0.0000
     20  C3B        0.8450   22.6590    9.7380 C.2   104  HEM104      0.0000
     21  C4B        0.8440   22.3140   11.1560 C.2   104  HEM104      0.0000
     22  CMB        2.5340   22.3560    7.7660 C.3   104  HEM104      0.0000
     23  CAB       -0.2620   23.4720    9.0650 C.3   104  HEM104      0.0000
     24  CBB       -0.8910   22.8030    7.8340 C.3   104  HEM104      0.0000
     25  NC         1.1150   22.0090   14.1220 N.ar  104  HEM104      0.0000
     26  C1C        0.0660   22.5750   13.4610 C.ar  104  HEM104      0.0000
     27  C2C       -0.6480   23.4530   14.4030 C.ar  104  HEM104      0.0000
     28  C3C       -0.1030   23.2840   15.6230 C.ar  104  HEM104      0.0000
     29  C4C        0.9660   22.3150   15.4690 C.ar  104  HEM104      0.0000
     30  CMC       -1.7970   24.3960   13.9220 C.3   104  HEM104      0.0000
     31  CAC       -0.5110   23.9300   16.9670 C.3   104  HEM104      0.0000
     32  CBC       -1.9770   24.1470   17.2910 C.3   104  HEM104      0.0000
     33  ND         3.2040   20.3650   15.1370 N.2   104  HEM104      0.0000
     34  C1D        2.7370   20.7790   16.3670 C.2   104  HEM104      0.0000
     35  C2D        3.3430   19.9150   17.4060 C.2   104  HEM104      0.0000
     36  C3D        4.1890   19.0890   16.8120 C.2   104  HEM104      0.0000
     37  C4D        4.0790   19.3290   15.3710 C.2   104  HEM104      0.0000
     38  CMD        2.9970   20.0830   18.9000 C.3   104  HEM104      0.0000
     39  CAD        5.1180   18.0310   17.4500 C.2   104  HEM104      0.0000
     40  CBD        4.5340   16.6790   17.6330 C.2   104  HEM104      0.0000
     41  CGD        5.1480   15.5460   18.4230 C.2   104  HEM104      0.0000
     42  O1D        6.2360   15.6320   19.0590 O.co2 104  HEM104      0.0000
     43  O2D        4.3910   14.5060   18.5020 O.co2 104  HEM104      0.0000
@<TRIPOS>BOND
     1    22    19    1
     2    24    23    1
     3    23    20    1
     4    19    20    2
     5    19    18    1
     6    11     9    1
     7    20    21    1
     8     3    18    1
     9     3    10    2
    10    18    17    2
    11     9    10   ar
    12     9     8   ar
    13    10     6   ar
    14    21    17    1
    15    21     4    2
    16    17     1    1
    17     8    12    1
    18     8     7   ar
    19     4    26    1
    20    12    13    1
    21     6     7   ar
    22     6     1    1
    23    16    14   ar
    24    14    13    1
    25    14    15   ar
    26     7     2    2
    27     1    25    1
    28     1    33    1
    29    26    25   ar
    30    26    27   ar
    31    30    27    1
    32    25    29   ar
    33     2    37    1
    34    27    28   ar
    35    33    37    2
    36    33    34    1
    37    37    36    1
    38    29    28   ar
    39    29     5    1
    40    28    31    1
    41    34     5    2
    42    34    35    1
    43    36    35    2
    44    36    39    1
    45    31    32    1
    46    35    38    1
    47    39    40    2
    48    40    41    1
    49    41    43   ar
    50    41    42   ar
