@<TRIPOS>MOLECULE
1irw_HEM_A_1.pdb
 43 50 0 0 0
SMALL
GASTEIGER

@<TRIPOS>ATOM
      1 FE          2.8110   20.9660   13.1760 Fe    104  HEM104      0.0000
      2  CHA        5.0620   18.6710   14.2620 C.2   104  HEM104      0.0000
      3  CHB        4.0090   20.7990   10.0020 C.2   104  HEM104      0.0000
      4  CHC        0.1590   22.7920   12.1240 C.2   104  HEM104      0.0000
      5  CHD        2.2700   21.9570   16.3710 C.2   104  HEM104      0.0000
      6  NA         4.2930   19.9660   12.3290 N.ar  104  HEM104      0.0000
      7  C1A        5.1120   19.0220   12.9140 C.ar  104  HEM104      0.0000
      8  C2A        5.8650   18.3650   11.8670 C.ar  104  HEM104      0.0000
      9  C3A        5.5230   18.8970   10.6880 C.ar  104  HEM104      0.0000
     10  C4A        4.5430   19.9410   10.9430 C.ar  104  HEM104      0.0000
     11  CMA        5.9850   18.5970    9.2340 C.3   104  HEM104      0.0000
     12  CAA        6.8230   17.1930   12.1310 C.3   104  HEM104      0.0000
     13  CBA        8.2610   17.6580   11.8460 C.3   104  HEM104      0.0000
     14  CGA        9.4310   16.9440   12.4480 C.2   104  HEM104      0.0000
     15  O1A       10.3600   17.6480   12.9110 O.co2 104  HEM104      0.0000
     16  O2A        9.4500   15.6980   12.3810 O.co2 104  HEM104      0.0000
     17  NB         2.1590   21.6230   11.3940 N.2   104  HEM104      0.0000
     18  C1B        2.8720   21.5490   10.2240 C.2   104  HEM104      0.0000
     19  C2B        2.1340   22.2950    9.1880 C.2   104  HEM104      0.0000
     20  C3B        1.0660   22.8440    9.7720 C.2   104  HEM104      0.0000
     21  C4B        1.1130   22.4530   11.1840 C.2   104  HEM104      0.0000
     22  CMB        2.6780   22.4260    7.7570 C.3   104  HEM104      0.0000
     23  CAB       -0.0650   23.7290    9.2120 C.3   104  HEM104      0.0000
     24  CBB       -1.2460   23.0880    8.4670 C.3   104  HEM104      0.0000
     25  NC         1.5050   22.1910   14.0780 N.ar  104  HEM104      0.0000
     26  C1C        0.4560   22.8530   13.4680 C.ar  104  HEM104      0.0000
     27  C2C       -0.2790   23.5620   14.4570 C.ar  104  HEM104      0.0000
     28  C3C        0.2390   23.2750   15.6640 C.ar  104  HEM104      0.0000
     29  C4C        1.4140   22.4490   15.4180 C.ar  104  HEM104      0.0000
     30  CMC       -1.5530   24.4150   14.0960 C.3   104  HEM104      0.0000
     31  CAC       -0.0960   23.8370   17.0720 C.3   104  HEM104      0.0000
     32  CBC       -1.4780   23.8200   17.6830 C.3   104  HEM104      0.0000
     33  ND         3.5500   20.4430   15.0210 N.2   104  HEM104      0.0000
     34  C1D        3.1220   20.8810   16.2390 C.2   104  HEM104      0.0000
     35  C2D        3.6870   20.0670   17.2910 C.2   104  HEM104      0.0000
     36  C3D        4.5000   19.1470   16.7040 C.2   104  HEM104      0.0000
     37  C4D        4.3970   19.3520   15.2580 C.2   104  HEM104      0.0000
     38  CMD        3.4280   20.1670   18.8060 C.3   104  HEM104      0.0000
     39  CAD        5.2690   18.0050   17.3730 C.2   104  HEM104      0.0000
     40  CBD        4.7280   16.6100   17.5310 C.2   104  HEM104      0.0000
     41  CGD        5.4150   15.6440   18.4530 C.2   104  HEM104      0.0000
     42  O1D        6.5540   15.9190   18.9820 O.co2 104  HEM104      0.0000
     43  O2D        4.8300   14.5510   18.7130 O.co2 104  HEM104      0.0000
@<TRIPOS>BOND
     1    22    19    1
     2    24    23    1
     3    19    20    2
     4    19    18    1
     5    23    20    1
     6    11     9    1
     7    20    21    1
     8     3    18    1
     9     3    10    2
    10    18    17    2
    11     9    10   ar
    12     9     8   ar
    13    10     6   ar
    14    21    17    1
    15    21     4    2
    16    17     1    1
    17    13    12    1
    18    13    14    1
    19     8    12    1
    20     8     7   ar
    21     4    26    1
    22     6     7   ar
    23     6     1    1
    24    16    14   ar
    25    14    15   ar
    26     7     2    2
    27     1    25    1
    28     1    33    1
    29    26    25   ar
    30    26    27   ar
    31    25    29   ar
    32    30    27    1
    33     2    37    1
    34    27    28   ar
    35    33    37    2
    36    33    34    1
    37    37    36    1
    38    29    28   ar
    39    29     5    1
    40    28    31    1
    41    34     5    2
    42    34    35    1
    43    36    35    2
    44    36    39    1
    45    31    32    1
    46    35    38    1
    47    39    40    2
    48    40    41    1
    49    41    43   ar
    50    41    42   ar
