@<TRIPOS>MOLECULE
1is0_III_C_1.pdb
 46 47 0 0 0
SMALL
GASTEIGER

@<TRIPOS>ATOM
      1  C1         6.1530   23.2890   15.6310 C.3   252  AY0252      0.1385
      2  O2         8.7810   24.1480   16.2120 O.2   252  AY0252     -0.2733
      3  O          8.9160   27.6660   19.6390 O.2   252  AY0252     -0.2733
      4  O4        12.1550   26.5770    9.3360 O.2   252  AY0252     -0.2114
      5  O5         9.6660   26.3070    9.6790 O.3   252  AY0252     -0.1039
      6  O6        11.2930   24.9470   11.1210 O.3   252  AY0252     -0.1039
      7  C2         9.1700   27.4180   12.8650 C.ar  252  AY0252      0.0371
      8  C3        11.3900   27.3910   13.8780 C.ar  252  AY0252      0.0371
      9  C4         8.6210   27.4240   14.1560 C.ar  252  AY0252     -0.0011
     10  C5        10.8360   27.3960   15.1820 C.ar  252  AY0252     -0.0011
     11  N          6.5880   24.6510   15.8960 N.am  252  AY0252     -0.2035
     12  O7        11.1660   27.4180   11.4500 O.3   252  AY0252     -0.3998
     13  C6         7.8370   24.9000   16.3810 C.2   252  AY0252      0.2418
     14  C          9.6870   26.8830   19.0660 C.2   252  AY0252      0.2421
     15  C8        10.5820   27.4060   12.7530 C.ar  252  AY0252      0.1490
     16  C9         9.4100   27.4180   15.3290 C.ar  252  AY0252     -0.0213
     17  C10        7.8950   26.2190   17.1280 C.3   252  AY0252      0.0916
     18  C11        9.3010   26.3550   17.6510 C.3   252  AY0252      0.0917
     19  C12        8.6370   27.4180   16.6660 C.3   252  AY0252      0.0406
     20  P1        11.0530   26.2160   10.3550 P.3   252  AY0252      0.5887
     21  N         10.7910   26.4520   19.6640 N.am  253  GLU253     -0.1978
     22  CA        11.1080   26.8760   21.0380 C.3   253  GLU253      0.1733
     23  C         11.4100   28.3380   21.3510 C.2   253  GLU253      0.2616
     24  O         11.8540   29.1030   20.5020 O.2   253  GLU253     -0.2715
     25  CB        12.2610   26.0410   21.6150 C.3   253  GLU253      0.0429
     26  CG        12.0580   24.5470   21.5810 C.3   253  GLU253      0.1163
     27  CD        10.9520   24.0780   22.5060 C.2   253  GLU253      0.3649
     28  OE1       11.0370   24.3060   23.7360 O.co2 253  GLU253     -0.2457
     29  OE2       10.0000   23.4660   21.9910 O.co2 253  GLU253     -0.2457
     30  N         11.1710   28.6930   22.6060 N.am  254  GLU254     -0.1963
     31  CA        11.4250   30.0400   23.1140 C.3   254  GLU254      0.1733
     32  C         12.4590   29.9630   24.2390 C.2   254  GLU254      0.2613
     33  O         12.5240   28.9550   24.9580 O.2   254  GLU254     -0.2715
     34  CB        10.1410   30.6410   23.6660 C.3   254  GLU254      0.0429
     35  CG         9.2500   31.2800   22.6450 C.3   254  GLU254      0.1163
     36  CD         7.9750   31.8210   23.2810 C.2   254  GLU254      0.3649
     37  OE1        8.0790   32.6100   24.2590 O.co2 254  GLU254     -0.2457
     38  OE2        6.8710   31.4530   22.8050 O.co2 254  GLU254     -0.2457
     39  N         13.2820   31.0050   24.3800 N.am  255  ILE255     -0.2031
     40  CA        14.2950   31.0520   25.4400 C.3   255  ILE255      0.1282
     41  C         13.8740   32.1740   26.3950 C.3   255  ILE255      0.2035
     42  CB        15.7210   31.4300   24.9130 C.3   255  ILE255      0.0226
     43  CG1       16.2120   30.4310   23.8760 C.3   255  ILE255      0.0018
     44  CG2       16.7330   31.4540   26.0710 C.3   255  ILE255      0.0018
     45  CD1       17.5600   30.8200   23.3240 C.3   255  ILE255      0.0001
     46  OXT       13.5320   33.2400   25.8240 O.3   255  ILE255     -0.2185
@<TRIPOS>BOND
     1     4    20    2
     2     5    20    1
     3    20     6    1
     4    20    12    1
     5    12    15    1
     6    15     7   ar
     7    15     8   ar
     8     7     9   ar
     9     8    10   ar
    10     9    16   ar
    11    10    16   ar
    12    16    19    1
    13     1    11    1
    14    11    13   am
    15     2    13    2
    16    13    17    1
    17    19    17    1
    18    19    18    1
    19    17    18    1
    20    18    14    1
    21    14     3    2
    22    14    21   am
    23    21    22    1
    24    24    23    2
    25    22    23    1
    26    22    25    1
    27    23    30   am
    28    26    25    1
    29    26    27    1
    30    29    27   ar
    31    27    28   ar
    32    30    31    1
    33    35    36    1
    34    35    34    1
    35    38    36   ar
    36    31    34    1
    37    31    32    1
    38    36    37   ar
    39    45    43    1
    40    43    42    1
    41    32    39   am
    42    32    33    2
    43    39    40    1
    44    42    40    1
    45    42    44    1
    46    40    41    1
    47    46    41    1
