@<TRIPOS>MOLECULE
1is3_LAT_A_1.pdb
 23 24 0 0 0
SMALL
GASTEIGER

@<TRIPOS>ATOM
      1  C1        25.5480   29.2390   16.8600 C.3   401  LAT401      0.2695
      2  C2        25.1260   29.9560   18.1360 C.3   401  LAT401      0.2406
      3  C3        25.6340   29.2150   19.3640 C.3   401  LAT401      0.2198
      4  C4        25.2030   27.7460   19.3090 C.3   401  LAT401      0.2144
      5  C5        25.6710   27.1410   17.9920 C.3   401  LAT401      0.1835
      6  C6        25.2550   25.7030   17.8360 C.3   401  LAT401      0.2142
      7  O1        24.9360   29.8660   15.7840 O.3   401  LAT401     -0.3257
      8  O2        25.6500   31.2700   18.1310 O.3   401  LAT401     -0.2149
      9  O3        25.1190   29.8290   20.5350 O.3   401  LAT401     -0.2174
     10  O4        23.7890   27.6310   19.4210 O.3   401  LAT401     -0.2176
     11  O5        25.1140   27.8720   16.8840 O.3   401  LAT401     -0.3256
     12  O6        25.7750   25.1580   16.6370 O.3   401  LAT401     -0.2176
     13  C1'       25.5150   30.1870   11.6680 C.3   401  LAT401      0.3023
     14  C2'       24.7540   28.9530   12.1440 C.3   401  LAT401      0.2433
     15  C3'       24.2440   29.2010   13.5630 C.3   401  LAT401      0.2168
     16  C4'       25.4230   29.5320   14.4720 C.3   401  LAT401      0.1804
     17  C5'       26.2040   30.7260   13.8950 C.3   401  LAT401      0.1804
     18  C6'       27.4560   31.0420   14.6850 C.3   401  LAT401      0.2141
     19  O1'       26.0190   29.9560   10.3970 O.3   401  LAT401     -0.1869
     20  O2'       23.6640   28.6920   11.2720 O.3   401  LAT401     -0.2148
     21  O3'       23.5630   28.0550   14.0390 O.3   401  LAT401     -0.2175
     22  O5'       26.6210   30.4420   12.5440 O.3   401  LAT401     -0.3237
     23  O6'       28.3070   29.9060   14.7620 O.3   401  LAT401     -0.2176
@<TRIPOS>BOND
     1    19    13    1
     2    20    14    1
     3    13    14    1
     4    13    22    1
     5    14    15    1
     6    22    17    1
     7    15    21    1
     8    15    16    1
     9    17    16    1
    10    17    18    1
    11    16     7    1
    12    18    23    1
    13     7     1    1
    14    12     6    1
    15     1    11    1
    16     1     2    1
    17    11     5    1
    18     6     5    1
    19     5     4    1
    20     8     2    1
    21     2     3    1
    22     4     3    1
    23     4    10    1
    24     3     9    1
