@<TRIPOS>MOLECULE
1is4_LAT_A_1.pdb
 23 24 0 0 0
SMALL
GASTEIGER

@<TRIPOS>ATOM
      1  C1        25.5310   29.2300   16.9030 C.3   401  LAT401      0.2695
      2  C2        25.1530   29.9720   18.1680 C.3   401  LAT401      0.2406
      3  C3        25.6530   29.2480   19.4090 C.3   401  LAT401      0.2198
      4  C4        25.2280   27.7900   19.3870 C.3   401  LAT401      0.2144
      5  C5        25.6600   27.1590   18.0780 C.3   401  LAT401      0.1835
      6  C6        25.2190   25.7160   17.9790 C.3   401  LAT401      0.2142
      7  O1        24.9140   29.8500   15.8300 O.3   401  LAT401     -0.3257
      8  O2        25.7100   31.2740   18.1260 O.3   401  LAT401     -0.2149
      9  O3        25.1110   29.8700   20.5560 O.3   401  LAT401     -0.2174
     10  O4        23.8140   27.6850   19.5350 O.3   401  LAT401     -0.2176
     11  O5        25.0770   27.8730   16.9690 O.3   401  LAT401     -0.3256
     12  O6        25.5980   25.1700   16.7320 O.3   401  LAT401     -0.2176
     13  C1'       25.5620   30.1710   11.7070 C.3   401  LAT401      0.3023
     14  C2'       24.7100   28.9920   12.1760 C.3   401  LAT401      0.2433
     15  C3'       24.2110   29.2430   13.5950 C.3   401  LAT401      0.2168
     16  C4'       25.3990   29.5270   14.5140 C.3   401  LAT401      0.1804
     17  C5'       26.1950   30.7070   13.9470 C.3   401  LAT401      0.1804
     18  C6'       27.4230   31.0720   14.7720 C.3   401  LAT401      0.2141
     19  O1'       26.0970   29.8640   10.4620 O.3   401  LAT401     -0.1869
     20  O2'       23.6040   28.8380   11.3020 O.3   401  LAT401     -0.2148
     21  O3'       23.5040   28.1070   14.0580 O.3   401  LAT401     -0.2175
     22  O5'       26.6500   30.3960   12.6130 O.3   401  LAT401     -0.3237
     23  O6'       28.3200   29.9720   14.8850 O.3   401  LAT401     -0.2176
@<TRIPOS>BOND
     1    19    13    1
     2    20    14    1
     3    13    14    1
     4    13    22    1
     5    14    15    1
     6    22    17    1
     7    15    21    1
     8    15    16    1
     9    17    16    1
    10    17    18    1
    11    16     7    1
    12    18    23    1
    13     7     1    1
    14    12     6    1
    15     1    11    1
    16     1     2    1
    17    11     5    1
    18     6     5    1
    19     5     4    1
    20     8     2    1
    21     2     3    1
    22     4     3    1
    23     4    10    1
    24     3     9    1
