@<TRIPOS>MOLECULE
1is7_PHE_K_1.pdb
 12 12 0 0 0
SMALL
GASTEIGER

@<TRIPOS>ATOM
      1  N         44.4380    3.4670   -3.4570 N.3   1009  PHE1009    -0.1205
      2  CA        45.0510    2.2390   -4.0390 C.3   1009  PHE1009     0.1986
      3  C         44.9310    1.0910   -3.0530 C.2   1009  PHE1009     0.3822
      4  O         44.5120    1.3510   -1.9060 O.co2 1009  PHE1009    -0.2440
      5  CB        46.5390    2.4330   -4.3490 C.3   1009  PHE1009     0.0569
      6  CG        46.8440    3.5530   -5.3120 C.ar  1009  PHE1009    -0.0202
      7  CD1       46.8530    4.8800   -4.8850 C.ar  1009  PHE1009    -0.0042
      8  CD2       47.2230    3.2720   -6.6210 C.ar  1009  PHE1009    -0.0042
      9  CE1       47.2460    5.9040   -5.7460 C.ar  1009  PHE1009    -0.0003
     10  CE2       47.6170    4.2930   -7.4880 C.ar  1009  PHE1009    -0.0003
     11  CZ        47.6310    5.6080   -7.0490 C.ar  1009  PHE1009    -0.0000
     12  OXT       45.2750   -0.0470   -3.4430 O.co2 1009  PHE1009    -0.2440
@<TRIPOS>BOND
     1    10    11   ar
     2    10     8   ar
     3    11     9   ar
     4     8     6   ar
     5     9     7   ar
     6     6     7   ar
     7     6     5    1
     8     5     2    1
     9     2     1    1
    10     2     3    1
    11    12     3   ar
    12     3     4   ar
