@<TRIPOS>MOLECULE
1is8_PHE_K_1.pdb
 12 12 0 0 0
SMALL
GASTEIGER

@<TRIPOS>ATOM
      1  N         -3.4990   -7.0290   54.1530 N.3   1009  PHE1009    -0.1205
      2  CA        -4.3610   -5.8520   54.4410 C.3   1009  PHE1009     0.1986
      3  C         -3.9110   -4.6400   53.6390 C.2   1009  PHE1009     0.3822
      4  O         -2.7470   -4.6360   53.2040 O.co2 1009  PHE1009    -0.2440
      5  CB        -4.3210   -5.5210   55.9330 C.3   1009  PHE1009     0.0569
      6  CG        -4.8310   -6.6260   56.8120 C.ar  1009  PHE1009    -0.0202
      7  CD1       -3.9520   -7.4330   57.5240 C.ar  1009  PHE1009    -0.0042
      8  CD2       -6.1940   -6.8640   56.9280 C.ar  1009  PHE1009    -0.0042
      9  CE1       -4.4280   -8.4540   58.3370 C.ar  1009  PHE1009    -0.0003
     10  CE2       -6.6740   -7.8880   57.7400 C.ar  1009  PHE1009    -0.0003
     11  CZ        -5.7920   -8.6800   58.4420 C.ar  1009  PHE1009    -0.0000
     12  OXT       -4.7190   -3.7090   53.4500 O.co2 1009  PHE1009    -0.2440
@<TRIPOS>BOND
     1     4     3   ar
     2    12     3   ar
     3     3     2    1
     4     1     2    1
     5     2     5    1
     6     5     6    1
     7     6     8   ar
     8     6     7   ar
     9     8    10   ar
    10     7     9   ar
    11    10    11   ar
    12     9    11   ar
