@<TRIPOS>MOLECULE
1isg_AGS_A_1.pdb
 31 33 0 0 0
SMALL
GASTEIGER

@<TRIPOS>ATOM
      1  PG         9.6680   63.7460   86.2860 P.3   1002  AGS1002     0.4340
      2  S1G        9.3470   64.5130   88.1210 S.3   1002  AGS1002     0.0416
      3  O2G       11.0610   64.1040   85.7180 O.2   1002  AGS1002    -0.2423
      4  O3G        9.5550   62.2290   86.3370 O.3   1002  AGS1002    -0.1305
      5  PB         8.5180   65.4310   84.1580 P.3   1002  AGS1002     0.2262
      6  O1B        9.9360   65.7180   83.7810 O.2   1002  AGS1002    -0.5168
      7  O2B        7.6290   66.5370   84.5730 O.3   1002  AGS1002    -0.4369
      8  O3B        8.4940   64.3050   85.3160 O.3   1002  AGS1002    -0.2405
      9  PA         7.8920   63.0770   82.4230 P.3   1002  AGS1002     0.2189
     10  O1A        6.4950   62.7370   81.9970 O.2   1002  AGS1002    -0.5170
     11  O2A        8.5460   62.2290   83.4650 O.3   1002  AGS1002    -0.4371
     12  O3A        7.9760   64.6170   82.9400 O.3   1002  AGS1002    -0.2701
     13  O5'        8.8600   63.0540   81.1340 O.3   1002  AGS1002    -0.3112
     14  C5'        9.6410   64.1720   80.5570 C.3   1002  AGS1002     0.1813
     15  C4'       11.1190   63.8260   80.2950 C.3   1002  AGS1002     0.1821
     16  O4'       11.9370   64.6630   81.2080 O.3   1002  AGS1002    -0.3135
     17  C3'       11.6240   62.3880   80.6470 C.3   1002  AGS1002     0.2184
     18  O3'       12.1220   61.8460   79.3920 O.3   1002  AGS1002    -0.2174
     19  C2'       12.6330   62.6990   81.7270 C.3   1002  AGS1002     0.2570
     20  O2'       13.5720   61.6560   81.9400 O.3   1002  AGS1002    -0.2130
     21  C1'       13.1950   63.9940   81.2200 C.3   1002  AGS1002     0.3186
     22  N9        14.2600   64.6950   82.1180 N.pl3 1002  AGS1002    -0.1439
     23  C8        15.3870   64.1620   82.7610 C.3   1002  AGS1002     0.3377
     24  N7        16.1140   64.9920   83.4630 N.2   1002  AGS1002    -0.2095
     25  C5        15.4320   66.1910   83.2860 C.2   1002  AGS1002     0.2526
     26  C6        15.6400   67.5760   83.7700 C.2   1002  AGS1002     0.4393
     27  N6        16.6660   67.8600   84.5490 N.pl3 1002  AGS1002     0.2180
     28  N1        14.7420   68.6160   83.4060 N.2   1002  AGS1002     0.0021
     29  C2        13.6650   68.3240   82.5940 C.3   1002  AGS1002     0.5254
     30  N3        13.3540   67.0640   82.0720 N.2   1002  AGS1002    -0.0055
     31  C4        14.2870   66.0360   82.4630 C.2   1002  AGS1002     0.3518
@<TRIPOS>BOND
     1    18    17    1
     2    15    14    1
     3    15    17    1
     4    15    16    1
     5    14    13    1
     6    17    19    1
     7    13     9    1
     8    16    21    1
     9    21    19    1
    10    21    22    1
    11    19    20    1
    12    10     9    2
    13    30    31    2
    14    30    29    1
    15    22    31    1
    16    22    23    1
    17     9    12    1
    18     9    11    1
    19    31    25    1
    20    29    28    1
    21    23    24    1
    22    12     5    1
    23    25    24    2
    24    25    26    1
    25    28    26    2
    26    26    27    1
    27     6     5    2
    28     5     7    1
    29     5     8    1
    30     8     1    1
    31     3     1    2
    32     1     4    1
    33     1     2    1
