@<TRIPOS>MOLECULE
1ish_ENP_A_1.pdb
 42 46 0 0 0
SMALL
GASTEIGER

@<TRIPOS>ATOM
      1  P1         9.2380    7.5940   85.8980 P.3   1001  ENP1001     0.2189
      2  O1         8.8620    6.3600   85.1170 O.2   1001  ENP1001    -0.5170
      3  O2         8.4570    7.5360   87.1820 O.3   1001  ENP1001    -0.4371
      4  O5'        8.8240    8.8960   85.0850 O.3   1001  ENP1001    -0.3112
      5  C5'        9.3120    9.0540   83.6980 C.3   1001  ENP1001     0.1813
      6  C4'        9.3950   10.5180   83.1280 C.3   1001  ENP1001     0.1820
      7  O4'       10.5870   11.1930   83.6120 O.3   1001  ENP1001    -0.3136
      8  C3'        9.4540   10.6190   81.5890 C.3   1001  ENP1001     0.2157
      9  O3'        8.5500   11.4740   81.1110 O.3   1001  ENP1001    -0.2175
     10  C2'       10.9230   11.0310   81.2740 C.3   1001  ENP1001     0.2314
     11  O2'       11.0480   11.8370   80.0360 O.3   1001  ENP1001    -0.2630
     12  C1'       11.4310   11.7480   82.5620 C.3   1001  ENP1001     0.3158
     13  N9        12.8710   11.4530   82.8930 N.pl3 1001  ENP1001    -0.1441
     14  C8        13.7420   12.3640   83.5330 C.3   1001  ENP1001     0.3376
     15  N7        15.0450   11.8980   83.7640 N.2   1001  ENP1001    -0.2134
     16  C5        14.8810   10.6830   83.2290 C.2   1001  ENP1001     0.1959
     17  C6        15.9460    9.6900   83.1750 C.ar  1001  ENP1001     0.1719
     18  N6        17.1590    9.9880   83.6800 N.ar  1001  ENP1001    -0.2233
     19  N1        15.6060    8.5150   82.6000 N.ar  1001  ENP1001    -0.2632
     20  C2        14.3580    8.1420   82.0530 C.3   1001  ENP1001     0.3777
     21  N3        13.3810    9.0570   82.1020 N.2   1001  ENP1001    -0.0363
     22  C4        13.6600   10.3160   82.6900 C.2   1001  ENP1001     0.3444
     23  O3        10.8200    7.6040   86.1630 O.3   1001  ENP1001    -0.2703
     24  P2        12.1160    6.7680   85.7050 P.3   1001  ENP1001     0.2189
     25  O4        12.1160    6.5580   84.2040 O.2   1001  ENP1001    -0.5170
     26  O5        12.1590    5.3970   86.3430 O.3   1001  ENP1001    -0.4371
     27  O9'       13.4490    7.5890   86.0650 O.3   1001  ENP1001    -0.3112
     28  C0'       14.5680    7.0200   86.8580 C.3   1001  ENP1001     0.1813
     29  C9'       15.9840    7.4070   86.2880 C.3   1001  ENP1001     0.1807
     30  O8'       16.1590    8.8370   86.1270 O.3   1001  ENP1001    -0.3237
     31  C8'       17.2610    6.9510   87.0860 C.3   1001  ENP1001     0.2168
     32  O7'       18.1750    6.4910   86.2180 O.3   1001  ENP1001    -0.2175
     33  C7'       17.6720    8.2800   87.8000 C.3   1001  ENP1001     0.2433
     34  O6'       18.9230    8.2640   88.2920 O.3   1001  ENP1001    -0.2148
     35  C6'       17.4520    9.1660   86.6410 C.3   1001  ENP1001     0.3023
     36  P3        10.5740   11.2500   78.6620 P.3   1001  ENP1001     0.5328
     37  O7         9.0860   11.4710   78.5230 O.3   1001  ENP1001    -0.1145
     38  O8        11.2260   11.9450   77.5060 O.2   1001  ENP1001    -0.2224
     39  O9        10.8170    9.7690   78.5310 O.3   1001  ENP1001    -0.1145
     40  C1        17.7030    8.7530   83.3560 C.ar  1001  ENP1001     0.1193
     41  C9        16.7820    7.8680   82.7140 C.ar  1001  ENP1001     0.1015
     42  O6        17.6080   10.5850   86.5550 O.3   1001  ENP1001    -0.1869
@<TRIPOS>BOND
     1    38    36    2
     2    37    36    1
     3    39    36    1
     4    36    11    1
     5    11    10    1
     6     9     8    1
     7    10     8    1
     8    10    12    1
     9     8     6    1
    10    20    21    1
    11    20    19    1
    12    21    22    2
    13    12    13    1
    14    12     7    1
    15    19    41   ar
    16    19    17   ar
    17    22    13    1
    18    22    16    1
    19    41    40   ar
    20    13    14    1
    21     6     7    1
    22     6     5    1
    23    17    16    1
    24    17    18   ar
    25    16    15    2
    26    40    18   ar
    27    14    15    1
    28     5     4    1
    29    25    24    2
    30     4     1    1
    31     2     1    2
    32    24    27    1
    33    24    23    1
    34    24    26    1
    35     1    23    1
    36     1     3    1
    37    27    28    1
    38    30    29    1
    39    30    35    1
    40    32    31    1
    41    29    28    1
    42    29    31    1
    43    42    35    1
    44    35    33    1
    45    31    33    1
    46    33    34    1
