@<TRIPOS>MOLECULE
1isi_ENQ_A_1.pdb
 38 42 0 0 0
SMALL
GASTEIGER

@<TRIPOS>ATOM
      1  N1        15.9260    8.7030   82.7870 N.ar  2001  ENQ2001    -0.2632
      2  O1         9.1370    6.2760   84.6160 O.2   2001  ENQ2001    -0.5170
      3  P1         9.2500    7.4850   85.6450 P.3   2001  ENQ2001     0.2189
      4  C2        14.7110    8.4560   82.1650 C.3   2001  ENQ2001     0.3777
      5  O2         7.9220    7.5080   86.4840 O.3   2001  ENQ2001    -0.2703
      6  P2         6.6690    8.3380   85.8400 P.3   2001  ENQ2001     0.2189
      7  N3        13.7290    9.3750   82.2250 N.2   2001  ENQ2001    -0.0363
      8  O3        10.4050    7.2840   86.5220 O.3   2001  ENQ2001    -0.4371
      9  C4        13.7590   12.6380   83.8590 C.3   2001  ENQ2001     0.3376
     10  O4         6.9330    9.9940   85.8200 O.3   2001  ENQ2001    -0.3112
     11  C5        15.0810   10.9420   83.5500 C.2   2001  ENQ2001     0.1959
     12  O5         5.4220    8.0600   86.7060 O.3   2001  ENQ2001    -0.4371
     13  C6        16.1660    9.8960   83.4790 C.ar  2001  ENQ2001     0.1719
     14  N6        17.3750    9.8630   83.9620 N.ar  2001  ENQ2001    -0.2233
     15  O6         6.3740    7.7480   84.4240 O.2   2001  ENQ2001    -0.5170
     16  N7        14.9620   12.1980   84.1220 N.2   2001  ENQ2001    -0.2134
     17  O7         3.3630    9.9340   81.1970 O.3   2001  ENQ2001    -0.1869
     18  C8        13.9100   10.6420   82.9280 C.2   2001  ENQ2001     0.3444
     19  C9        17.9550    8.6360   83.5920 C.ar  2001  ENQ2001     0.1193
     20  N9        13.0800   11.7010   83.1250 N.pl3 2001  ENQ2001    -0.1441
     21  C0'        5.0010   11.7330   81.5860 C.3   2001  ENQ2001     0.2433
     22  C1'       11.6860   11.8630   82.6680 C.3   2001  ENQ2001     0.3186
     23  C10       17.0450    7.9600   82.8780 C.ar  2001  ENQ2001     0.1015
     24  C2'       11.3230   11.2710   81.2840 C.3   2001  ENQ2001     0.2570
     25  O2'       10.9460   11.0830   83.6450 O.3   2001  ENQ2001    -0.3135
     26  C3'        9.9960   10.5270   81.5860 C.3   2001  ENQ2001     0.2184
     27  O3'        8.8520   11.2480   81.0970 O.3   2001  ENQ2001    -0.2174
     28  C4'        9.8070   10.4410   83.0700 C.3   2001  ENQ2001     0.1821
     29  O4'       11.0940   12.3310   80.3690 O.3   2001  ENQ2001    -0.2130
     30  C5'        9.6600    8.9640   83.4810 C.3   2001  ENQ2001     0.1813
     31  O5'        9.4680    8.9270   84.9190 O.3   2001  ENQ2001    -0.3112
     32  C6'        6.0100   10.9720   85.2230 C.3   2001  ENQ2001     0.1813
     33  O6'        4.4880   10.2140   83.2670 O.3   2001  ENQ2001    -0.3237
     34  C7'        5.7540   10.8080   83.6940 C.3   2001  ENQ2001     0.1807
     35  O7'        7.2250   12.4980   82.6560 O.3   2001  ENQ2001    -0.2175
     36  C8'        5.7880   12.1100   82.9020 C.3   2001  ENQ2001     0.2168
     37  O8'        5.8710   11.8590   80.4310 O.3   2001  ENQ2001    -0.2148
     38  C9'        4.6180   10.2390   81.8230 C.3   2001  ENQ2001     0.3023
@<TRIPOS>BOND
     1    29    24    1
     2    37    21    1
     3    27    26    1
     4    17    38    1
     5    24    26    1
     6    24    22    1
     7    21    38    1
     8    21    36    1
     9    26    28    1
    10    38    33    1
    11     4     7    1
    12     4     1    1
    13     7    18    2
    14    35    36    1
    15    22    20    1
    16    22    25    1
    17     1    23   ar
    18     1    13   ar
    19    23    19   ar
    20    36    34    1
    21    18    20    1
    22    18    11    1
    23    28    30    1
    24    28    25    1
    25    20     9    1
    26    33    34    1
    27    13    11    1
    28    13    14   ar
    29    30    31    1
    30    11    16    2
    31    19    14   ar
    32    34    32    1
    33     9    16    1
    34    15     6    2
    35     2     3    2
    36    31     3    1
    37    32    10    1
    38     3     5    1
    39     3     8    1
    40    10     6    1
    41     6     5    1
    42     6    12    1
