@<TRIPOS>MOLECULE
1isj_NMN_A_1.pdb
 22 23 0 0 0
SMALL
GASTEIGER

@<TRIPOS>ATOM
      1  O3P       12.5710   62.7280  150.4650 O.3   1001  NMN1001    -0.1145
      2  P         13.9400   62.2730  149.8510 P.3   1001  NMN1001     0.5327
      3  O1P       13.7870   62.3160  148.3190 O.2   1001  NMN1001    -0.2224
      4  O2P       14.2510   60.8350  150.2630 O.3   1001  NMN1001    -0.1145
      5  O5R       15.1840   63.2450  150.3100 O.3   1001  NMN1001    -0.2675
      6  C5R       16.3960   62.7830  151.1040 C.3   1001  NMN1001     0.1859
      7  C4R       17.7880   63.5120  150.8210 C.3   1001  NMN1001     0.1801
      8  O4R       17.8660   63.6870  149.3730 O.3   1001  NMN1001    -0.3327
      9  C3R       17.9210   64.9390  151.4650 C.3   1001  NMN1001     0.2158
     10  O3R       18.9070   65.0270  152.4110 O.3   1001  NMN1001    -0.2175
     11  C2R       18.1310   65.9270  150.2840 C.3   1001  NMN1001     0.2309
     12  O2R       19.3050   66.5890  150.3340 O.3   1001  NMN1001    -0.2158
     13  C1R       17.9670   65.0780  148.9580 C.3   1001  NMN1001     0.2263
     14  N1        16.6680   65.4490  148.1260 N.pl3 1001  NMN1001    -0.2787
     15  C2        16.1640   66.7720  148.1680 C.3   1001  NMN1001     0.1244
     16  C3        14.9560   67.1380  147.4130 C.2   1001  NMN1001     0.0544
     17  C7        14.4310   68.4540  147.4360 C.2   1001  NMN1001     0.2818
     18  O7        14.9940   69.4220  148.1350 O.2   1001  NMN1001    -0.2670
     19  N7        13.3160   68.7770  146.7330 N.am  1001  NMN1001    -0.0839
     20  C4        14.3130   66.0860  146.6260 C.2   1001  NMN1001     0.0033
     21  C5        14.8310   64.7300  146.5790 C.2   1001  NMN1001     0.0157
     22  C6        16.0190   64.4580  147.3490 C.2   1001  NMN1001     0.0633
@<TRIPOS>BOND
     1    21    20    1
     2    21    22    2
     3    20    16    2
     4    19    17   am
     5    22    14    1
     6    16    17    1
     7    16    15    1
     8    17    18    2
     9    14    15    1
    10    14    13    1
    11     3     2    2
    12    13     8    1
    13    13    11    1
    14     8     7    1
    15     2     4    1
    16     2     5    1
    17     2     1    1
    18    11    12    1
    19    11     9    1
    20     5     6    1
    21     7     6    1
    22     7     9    1
    23     9    10    1
