@<TRIPOS>MOLECULE
1iso_NAD_A_1.pdb
 23 25 0 0 0
SMALL
GASTEIGER

@<TRIPOS>ATOM
      1  PA       -91.0520  -66.4930   -5.2420 P.3   500  NAD500      0.5327
      2  O1A      -91.6650  -65.1950   -4.8880 O.3   500  NAD500     -0.1145
      3  O2A      -90.0950  -67.1290   -4.2990 O.3   500  NAD500     -0.1145
      4  O5B      -92.2500  -67.5360   -5.5180 O.3   500  NAD500     -0.2675
      5  C5B      -91.9700  -68.8310   -6.0730 C.3   500  NAD500      0.1860
      6  C4B      -93.2270  -69.6820   -6.1930 C.3   500  NAD500      0.1823
      7  O4B      -93.6540  -70.1080   -4.8820 O.3   500  NAD500     -0.3135
      8  C3B      -94.3870  -68.9220   -6.8240 C.3   500  NAD500      0.2184
      9  O3B      -95.1860  -69.7320   -7.7020 O.3   500  NAD500     -0.2174
     10  C2B      -95.1750  -68.4470   -5.6180 C.3   500  NAD500      0.2570
     11  O2B      -96.5520  -68.2080   -5.9290 O.3   500  NAD500     -0.2130
     12  C1B      -94.9680  -69.5680   -4.6160 C.3   500  NAD500      0.3186
     13  N9A      -95.1380  -69.1210   -3.2070 N.pl3 500  NAD500     -0.1439
     14  C8A      -94.2490  -68.5000   -2.4000 C.3   500  NAD500      0.3377
     15  N7A      -94.7360  -68.3300   -1.1580 N.2   500  NAD500     -0.2095
     16  C5A      -95.9460  -68.8590   -1.2320 C.2   500  NAD500      0.2526
     17  C6A      -96.8710  -68.9120   -0.1880 C.2   500  NAD500      0.4393
     18  N6A      -96.6020  -68.5420    1.0680 N.pl3 500  NAD500      0.2180
     19  N1A      -98.0600  -69.4670   -0.5190 N.2   500  NAD500      0.0021
     20  C2A      -98.3240  -69.9420   -1.7420 C.3   500  NAD500      0.5254
     21  N3A      -97.4340  -69.9020   -2.7320 N.2   500  NAD500     -0.0055
     22  C4A      -96.2290  -69.3530   -2.4940 C.2   500  NAD500      0.3518
     23  O3       -90.3590  -66.3310   -6.6970 O.2   500  NAD500     -0.2224
@<TRIPOS>BOND
     1     9     8    1
     2     8     6    1
     3     8    10    1
     4    23     1    2
     5     6     5    1
     6     6     7    1
     7     5     4    1
     8    11    10    1
     9    10    12    1
    10     4     1    1
    11     1     2    1
    12     1     3    1
    13     7    12    1
    14    12    13    1
    15    13    22    1
    16    13    14    1
    17    21    22    2
    18    21    20    1
    19    22    16    1
    20    14    15    1
    21    20    19    1
    22    16    15    2
    23    16    17    1
    24    19    17    2
    25    17    18    1
