@<TRIPOS>MOLECULE
1isr_GLU_A_1.pdb
 10 9 0 0 0
SMALL
GASTEIGER

@<TRIPOS>ATOM
      1  N         81.3830  -11.8970   61.4980 N.3   1001  GLU1001    -0.1208
      2  CA        80.9420  -12.0290   60.0800 C.3   1001  GLU1001     0.1949
      3  C         80.1810  -10.7890   59.6280 C.2   1001  GLU1001     0.3819
      4  O         79.9790  -10.6340   58.4050 O.co2 1001  GLU1001    -0.2441
      5  CB        80.0550  -13.2650   59.9200 C.3   1001  GLU1001     0.0424
      6  CG        80.7450  -14.5690   60.2820 C.3   1001  GLU1001     0.1161
      7  CD        79.8490  -15.7750   60.0820 C.2   1001  GLU1001     0.3649
      8  OE1       78.7820  -15.8350   60.7270 O.co2 1001  GLU1001    -0.2457
      9  OE2       80.2110  -16.6600   59.2790 O.co2 1001  GLU1001    -0.2457
     10  OXT       79.7990   -9.9870   60.5050 O.co2 1001  GLU1001    -0.2441
@<TRIPOS>BOND
     1     4     3   ar
     2     9     7   ar
     3     3     2    1
     4     3    10   ar
     5     5     2    1
     6     5     6    1
     7     2     1    1
     8     7     6    1
     9     7     8   ar
