@<TRIPOS>MOLECULE
1iss_MCG_A_1.pdb
 15 15 0 0 0
SMALL
GASTEIGER

@<TRIPOS>ATOM
      1  N         83.9080   71.0120  107.2220 N.3   1001  MCG1001    -0.1183
      2  CA        83.1230   70.7010  106.0080 C.3   1001  MCG1001     0.1885
      3  C         82.9290   69.2090  105.8730 C.2   1001  MCG1001     0.3838
      4  CB        83.8130   71.2460  104.7770 C.ar  1001  MCG1001     0.0037
      5  CG1       84.3410   70.3700  103.7950 C.ar  1001  MCG1001    -0.0022
      6  CG2       83.9670   72.6420  104.6230 C.ar  1001  MCG1001    -0.0022
      7  CD1       85.0290   70.8950  102.6840 C.ar  1001  MCG1001     0.0063
      8  CD2       84.6530   73.1570  103.5130 C.ar  1001  MCG1001     0.0063
      9  CE        85.1880   72.2870  102.5550 C.ar  1001  MCG1001     0.0798
     10  CZ        85.9320   72.8250  101.4480 C.2   1001  MCG1001     0.3878
     11  OH2       85.3600   73.6430  100.7010 O.co2 1001  MCG1001    -0.2406
     12  OH1       87.1170   72.4530  101.2970 O.co2 1001  MCG1001    -0.2406
     13  O         81.8970   68.8000  105.2940 O.co2 1001  MCG1001    -0.2438
     14  OXT       83.8120   68.4580  106.3460 O.co2 1001  MCG1001    -0.2438
     15  CM        81.6940   71.2940  106.1250 C.3   1001  MCG1001     0.0352
@<TRIPOS>BOND
     1    11    10   ar
     2    12    10   ar
     3    10     9    1
     4     9     7   ar
     5     9     8   ar
     6     7     5   ar
     7     8     6   ar
     8     5     4   ar
     9     6     4   ar
    10     4     2    1
    11    13     3   ar
    12     3     2    1
    13     3    14   ar
    14     2    15    1
    15     2     1    1
