@<TRIPOS>MOLECULE
1isv_XYP_A_1.pdb
 10 10 0 0 0
SMALL
GASTEIGER

@<TRIPOS>ATOM
      1  O4A        1.5680   56.2180   82.6030 O.3   1461  XYP1461    -0.1869
      2  C1B        1.6730   54.9590   83.1610 C.3   1461  XYP1461     0.3024
      3  C2B        3.1010   54.4400   82.9990 C.3   1461  XYP1461     0.2434
      4  C3B        3.2140   53.0830   83.6720 C.3   1461  XYP1461     0.2199
      5  C4B        2.8520   53.2440   85.1380 C.3   1461  XYP1461     0.2143
      6  C5B        1.4310   53.7870   85.2420 C.3   1461  XYP1461     0.1804
      7  O2B        3.4060   54.3150   81.6150 O.3   1461  XYP1461    -0.2148
      8  O3B        4.5500   52.6130   83.5580 O.3   1461  XYP1461    -0.2174
      9  O4B        2.9320   51.9860   85.7940 O.3   1461  XYP1461    -0.2176
     10  O5B        1.3440   55.0660   84.5600 O.3   1461  XYP1461    -0.3237
@<TRIPOS>BOND
     1     7     3    1
     2     1     2    1
     3     3     2    1
     4     3     4    1
     5     2    10    1
     6     8     4    1
     7     4     5    1
     8    10     6    1
     9     5     6    1
    10     5     9    1
