@<TRIPOS>MOLECULE
1isw_XYP_A_2.pdb
 10 10 0 0 0
SMALL
GASTEIGER

@<TRIPOS>ATOM
      1  O4A       36.5030   33.5010   48.5280 O.3   452  XYP452     -0.1869
      2  C1B       36.1540   32.4380   49.3430 C.3   452  XYP452      0.3024
      3  C2B       36.4560   31.1120   48.6340 C.3   452  XYP452      0.2434
      4  C3B       36.1180   29.9680   49.5690 C.3   452  XYP452      0.2199
      5  C4B       36.9520   30.1170   50.8240 C.3   452  XYP452      0.2143
      6  C5B       36.6360   31.4610   51.4790 C.3   452  XYP452      0.1804
      7  O2B       35.6750   31.0120   47.4520 O.3   452  XYP452     -0.2148
      8  O3B       36.4130   28.7310   48.9380 O.3   452  XYP452     -0.2174
      9  O4B       36.6510   29.0510   51.7360 O.3   452  XYP452     -0.2176
     10  O5B       36.9310   32.5370   50.5540 O.3   452  XYP452     -0.3237
@<TRIPOS>BOND
     1     7     3    1
     2     1     2    1
     3     3     2    1
     4     3     4    1
     5     8     4    1
     6     2    10    1
     7     4     5    1
     8    10     6    1
     9     5     6    1
    10     5     9    1
