@<TRIPOS>MOLECULE
1isx_XYP_A_2.pdb
 10 10 0 0 0
SMALL
GASTEIGER

@<TRIPOS>ATOM
      1  O4A       36.3230   33.3270   48.4140 O.3   452  XYP452     -0.1869
      2  C1B       35.9760   32.2600   49.2190 C.3   452  XYP452      0.3024
      3  C2B       36.3730   30.9550   48.5360 C.3   452  XYP452      0.2434
      4  C3B       36.0390   29.7950   49.4590 C.3   452  XYP452      0.2199
      5  C4B       36.8060   29.9880   50.7490 C.3   452  XYP452      0.2143
      6  C5B       36.3920   31.3170   51.3820 C.3   452  XYP452      0.1804
      7  O2B       35.6620   30.8260   47.3120 O.3   452  XYP452     -0.2148
      8  O3B       36.4170   28.5700   48.8490 O.3   452  XYP452     -0.2174
      9  O4B       36.5370   28.9100   51.6590 O.3   452  XYP452     -0.2176
     10  O5B       36.6810   32.4000   50.4680 O.3   452  XYP452     -0.3237
@<TRIPOS>BOND
     1     7     3    1
     2     1     2    1
     3     3     2    1
     4     3     4    1
     5     8     4    1
     6     2    10    1
     7     4     5    1
     8    10     6    1
     9     5     6    1
    10     5     9    1
