@<TRIPOS>MOLECULE
1isy_BGC_A_1.pdb
 12 12 0 0 0
SMALL
GASTEIGER

@<TRIPOS>ATOM
      1  C2         3.4220   54.3050   83.6810 C.3   1461  BGC1461     0.2434
      2  C3         3.4810   52.9330   84.3230 C.3   1461  BGC1461     0.2199
      3  C4         3.1040   53.0660   85.7830 C.3   1461  BGC1461     0.2144
      4  C5         1.6980   53.6520   85.8830 C.3   1461  BGC1461     0.1836
      5  C6         1.2590   53.8600   87.3190 C.3   1461  BGC1461     0.2142
      6  C1         2.0020   54.8630   83.8300 C.3   1461  BGC1461     0.3024
      7  O1         1.9390   56.1380   83.2910 O.3   1461  BGC1461    -0.1869
      8  O2         3.7580   54.2060   82.3020 O.3   1461  BGC1461    -0.2148
      9  O3         4.7970   52.4190   84.2150 O.3   1461  BGC1461    -0.2174
     10  O4         3.1380   51.7870   86.4020 O.3   1461  BGC1461    -0.2176
     11  O5         1.6570   54.9500   85.2290 O.3   1461  BGC1461    -0.3236
     12  O6         1.8080   55.0560   87.8530 O.3   1461  BGC1461    -0.2176
@<TRIPOS>BOND
     1     8     1    1
     2     7     6    1
     3     1     6    1
     4     1     2    1
     5     6    11    1
     6     9     2    1
     7     2     3    1
     8    11     4    1
     9     3     4    1
    10     3    10    1
    11     4     5    1
    12     5    12    1
