@<TRIPOS>MOLECULE
1isz_GAL_A_1.pdb
 12 12 0 0 0
SMALL
GASTEIGER

@<TRIPOS>ATOM
      1  C1         5.0770   56.9390   88.4380 C.3   461  GAL461      0.3024
      2  C2         5.4420   56.6040   86.9910 C.3   461  GAL461      0.2434
      3  C3         4.5560   55.4760   86.5050 C.3   461  GAL461      0.2199
      4  C4         4.7720   54.2700   87.4090 C.3   461  GAL461      0.2144
      5  C5         4.4200   54.6630   88.8510 C.3   461  GAL461      0.1836
      6  C6         4.6510   53.5330   89.8310 C.3   461  GAL461      0.2142
      7  O1         5.9110   57.9380   88.9120 O.3   461  GAL461     -0.1869
      8  O2         5.2580   57.7480   86.1720 O.3   461  GAL461     -0.2148
      9  O3         4.9010   55.1480   85.1680 O.3   461  GAL461     -0.2174
     10  O4         6.1250   53.8440   87.3360 O.3   461  GAL461     -0.2176
     11  O5         5.2560   55.7730   89.2740 O.3   461  GAL461     -0.3236
     12  O6         3.5060   52.7020   89.9320 O.3   461  GAL461     -0.2176
@<TRIPOS>BOND
     1     9     3    1
     2     8     2    1
     3     3     2    1
     4     3     4    1
     5     2     1    1
     6    10     4    1
     7     4     5    1
     8     1     7    1
     9     1    11    1
    10     5    11    1
    11     5     6    1
    12     6    12    1
