@<TRIPOS>MOLECULE
1it0_LAT_A_1.pdb
 12 12 0 0 0
SMALL
GASTEIGER

@<TRIPOS>ATOM
      1  C1         5.0590   57.2060   88.3870 C.3   461  LAT461      0.3024
      2  C2         5.4560   56.8010   86.9630 C.3   461  LAT461      0.2434
      3  C3         4.4810   55.7540   86.4570 C.3   461  LAT461      0.2199
      4  C4         4.5340   54.5560   87.3940 C.3   461  LAT461      0.2144
      5  C5         4.1590   55.0140   88.8070 C.3   461  LAT461      0.1836
      6  C6         4.2230   53.8880   89.8190 C.3   461  LAT461      0.2142
      7  O1         5.9630   58.1330   88.8840 O.3   461  LAT461     -0.1869
      8  O2         5.4280   57.9360   86.1110 O.3   461  LAT461     -0.2148
      9  O3         4.8430   55.3610   85.1420 O.3   461  LAT461     -0.2174
     10  O4         5.8420   53.9990   87.3960 O.3   461  LAT461     -0.2176
     11  O5         5.0820   56.0470   89.2530 O.3   461  LAT461     -0.3236
     12  O6         4.1540   54.3880   91.1460 O.3   461  LAT461     -0.2176
@<TRIPOS>BOND
     1     9     3    1
     2     8     2    1
     3     3     2    1
     4     3     4    1
     5     2     1    1
     6     4    10    1
     7     4     5    1
     8     1     7    1
     9     1    11    1
    10     5    11    1
    11     5     6    1
    12     6    12    1
