@<TRIPOS>MOLECULE
1it2_HEM_A_1.pdb
 43 50 0 0 0
SMALL
GASTEIGER

@<TRIPOS>ATOM
      1 FE         31.4220   32.1060   33.7410 Fe    147  HEM147      0.0000
      2  CHA       33.8780   32.1760   36.1860 C.2   147  HEM147      0.0000
      3  CHB       33.8440   31.7530   31.3240 C.2   147  HEM147      0.0000
      4  CHC       29.0800   32.6870   31.2840 C.2   147  HEM147      0.0000
      5  CHD       29.1530   33.1490   36.1110 C.2   147  HEM147      0.0000
      6  NA        33.3990   31.9630   33.7640 N.ar  147  HEM147      0.0000
      7  C1A       34.2640   31.9350   34.8610 C.ar  147  HEM147      0.0000
      8  C2A       35.6460   31.6600   34.4740 C.ar  147  HEM147      0.0000
      9  C3A       35.6450   31.5370   33.1090 C.ar  147  HEM147      0.0000
     10  C4A       34.2650   31.7750   32.6680 C.ar  147  HEM147      0.0000
     11  CMA       36.8570   31.1910   32.2450 C.3   147  HEM147      0.0000
     12  CAA       36.8590   31.5110   35.4230 C.3   147  HEM147      0.0000
     13  CBA       37.1310   30.0460   35.7700 C.3   147  HEM147      0.0000
     14  CGA       38.0390   29.8650   36.9840 C.2   147  HEM147      0.0000
     15  O1A       38.4300   28.7110   37.2580 O.co2 147  HEM147      0.0000
     16  O2A       38.3600   30.8620   37.6630 O.co2 147  HEM147      0.0000
     17  NB        31.4360   32.1170   31.7310 N.2   147  HEM147      0.0000
     18  C1B       32.5200   31.8940   30.8970 C.2   147  HEM147      0.0000
     19  C2B       32.1100   31.9100   29.4850 C.2   147  HEM147      0.0000
     20  C3B       30.7700   32.2080   29.4500 C.2   147  HEM147      0.0000
     21  C4B       30.3650   32.3410   30.8690 C.2   147  HEM147      0.0000
     22  CMB       33.0340   31.5910   28.3040 C.3   147  HEM147      0.0000
     23  CAB       29.9140   32.3420   28.3380 C.3   147  HEM147      0.0000
     24  CBB       30.2430   32.7340   27.0160 C.3   147  HEM147      0.0000
     25  NC        29.5260   32.6920   33.7250 N.ar  147  HEM147      0.0000
     26  C1C       28.6780   32.8600   32.6160 C.ar  147  HEM147      0.0000
     27  C2C       27.3550   33.3070   33.0130 C.ar  147  HEM147      0.0000
     28  C3C       27.3680   33.4540   34.3890 C.ar  147  HEM147      0.0000
     29  C4C       28.7140   33.0760   34.7920 C.ar  147  HEM147      0.0000
     30  CMC       26.1700   33.5130   32.0860 C.3   147  HEM147      0.0000
     31  CAC       26.3430   33.8530   35.2820 C.3   147  HEM147      0.0000
     32  CBC       24.9930   34.1230   35.0090 C.3   147  HEM147      0.0000
     33  ND        31.4930   32.5670   35.7190 N.2   147  HEM147      0.0000
     34  C1D       30.4390   32.9330   36.5370 C.2   147  HEM147      0.0000
     35  C2D       30.8470   33.0200   37.9480 C.2   147  HEM147      0.0000
     36  C3D       32.1720   32.7440   37.9700 C.2   147  HEM147      0.0000
     37  C4D       32.5800   32.4870   36.5860 C.2   147  HEM147      0.0000
     38  CMD       29.9300   33.2980   39.1410 C.3   147  HEM147      0.0000
     39  CAD       33.0670   32.6700   39.2020 C.3   147  HEM147      0.0000
     40  CBD       33.8430   33.9620   39.3790 C.3   147  HEM147      0.0000
     41  CGD       34.7760   33.9230   40.5720 C.2   147  HEM147      0.0000
     42  O1D       34.3760   33.3890   41.6290 O.co2 147  HEM147      0.0000
     43  O2D       35.9070   34.4310   40.4510 O.co2 147  HEM147      0.0000
@<TRIPOS>BOND
     1    24    23    1
     2    22    19    1
     3    23    20    1
     4    20    19    2
     5    20    21    1
     6    19    18    1
     7    21     4    2
     8    21    17    1
     9    18     3    1
    10    18    17    2
    11     4    26    1
    12     3    10    2
    13    17     1    1
    14    30    27    1
    15    11     9    1
    16    26    27   ar
    17    26    25   ar
    18    10     9   ar
    19    10     6   ar
    20    27    28   ar
    21     9     8   ar
    22    25     1    1
    23    25    29   ar
    24     1     6    1
    25     1    33    1
    26     6     7   ar
    27    28    29   ar
    28    28    31    1
    29     8     7   ar
    30     8    12    1
    31    29     5    1
    32     7     2    2
    33    32    31    1
    34    12    13    1
    35    33    34    1
    36    33    37    2
    37    13    14    1
    38     5    34    2
    39     2    37    1
    40    34    35    1
    41    37    36    1
    42    14    15   ar
    43    14    16   ar
    44    35    36    2
    45    35    38    1
    46    36    39    1
    47    39    40    1
    48    40    41    1
    49    43    41   ar
    50    41    42   ar
