@<TRIPOS>MOLECULE
1it3_HEM_A_1.pdb
 43 50 0 0 0
SMALL
GASTEIGER

@<TRIPOS>ATOM
      1 FE          5.1630   -0.6200  -38.4920 Fe    147  HEM147      0.0000
      2  CHA        2.5290   -1.3160  -36.3560 C.2   147  HEM147      0.0000
      3  CHB        7.4150   -2.0120  -36.2310 C.2   147  HEM147      0.0000
      4  CHC        7.7980    0.1490  -40.5810 C.2   147  HEM147      0.0000
      5  CHD        2.9470    0.9540  -40.6960 C.2   147  HEM147      0.0000
      6  NA         4.9980   -1.4930  -36.6990 N.2   147  HEM147      0.0000
      7  C1A        3.8280   -1.6960  -35.9490 C.2   147  HEM147      0.0000
      8  C2A        4.1310   -2.2990  -34.6600 C.2   147  HEM147      0.0000
      9  C3A        5.4720   -2.4490  -34.6100 C.2   147  HEM147      0.0000
     10  C4A        6.0290   -1.9870  -35.8840 C.2   147  HEM147      0.0000
     11  CMA        6.2230   -2.9510  -33.3830 C.3   147  HEM147      0.0000
     12  CAA        3.1470   -2.7620  -33.5800 C.3   147  HEM147      0.0000
     13  CBA        2.2240   -3.8990  -34.0260 C.3   147  HEM147      0.0000
     14  CGA        1.4340   -4.5100  -32.8770 C.2   147  HEM147      0.0000
     15  O1A        1.0520   -5.6970  -32.9820 O.co2 147  HEM147      0.0000
     16  O2A        1.1970   -3.8060  -31.8710 O.co2 147  HEM147      0.0000
     17  NB         7.1740   -0.8920  -38.4290 N.ar  147  HEM147      0.0000
     18  C1B        7.9510   -1.4980  -37.4290 C.ar  147  HEM147      0.0000
     19  C2B        9.3700   -1.5480  -37.8210 C.ar  147  HEM147      0.0000
     20  C3B        9.4390   -0.9850  -39.0530 C.ar  147  HEM147      0.0000
     21  C4B        8.1010   -0.5640  -39.4120 C.ar  147  HEM147      0.0000
     22  CMB       10.5780   -2.1000  -37.0470 C.3   147  HEM147      0.0000
     23  CAB       10.5560   -0.9250  -39.8880 C.3   147  HEM147      0.0000
     24  CBB       11.7580   -0.2570  -39.6140 C.3   147  HEM147      0.0000
     25  NC         5.3370    0.3560  -40.2290 N.2   147  HEM147      0.0000
     26  C1C        6.5180    0.6310  -40.9240 C.2   147  HEM147      0.0000
     27  C2C        6.2590    1.4220  -42.1230 C.2   147  HEM147      0.0000
     28  C3C        4.8860    1.5650  -42.2040 C.2   147  HEM147      0.0000
     29  C4C        4.3190    0.9180  -41.0250 C.2   147  HEM147      0.0000
     30  CMC        7.3300    1.9130  -43.1130 C.3   147  HEM147      0.0000
     31  CAC        4.1430    2.1690  -43.2250 C.3   147  HEM147      0.0000
     32  CBC        4.3370    3.4790  -43.6600 C.3   147  HEM147      0.0000
     33  ND         3.1840   -0.2260  -38.5090 N.ar  147  HEM147      0.0000
     34  C1D        2.4310    0.4760  -39.4820 C.ar  147  HEM147      0.0000
     35  C2D        1.0390    0.6210  -39.0570 C.ar  147  HEM147      0.0000
     36  C3D        0.9220   -0.0430  -37.8650 C.ar  147  HEM147      0.0000
     37  C4D        2.2350   -0.5900  -37.5350 C.ar  147  HEM147      0.0000
     38  CMD       -0.0580    1.4160  -39.7680 C.3   147  HEM147      0.0000
     39  CAD       -0.3040   -0.0790  -36.9690 C.3   147  HEM147      0.0000
     40  CBD       -0.1440    0.8940  -35.8020 C.3   147  HEM147      0.0000
     41  CGD       -1.4060    1.0240  -34.9650 C.2   147  HEM147      0.0000
     42  O1D       -2.5050    1.1010  -35.5580 O.co2 147  HEM147      0.0000
     43  O2D       -1.2990    1.0510  -33.7170 O.co2 147  HEM147      0.0000
@<TRIPOS>BOND
     1    32    31    1
     2    31    28    1
     3    30    27    1
     4    28    27    2
     5    28    29    1
     6    27    26    1
     7    29     5    1
     8    29    25    2
     9    26     4    2
    10    26    25    1
    11     5    34    2
    12     4    21    1
    13    25     1    1
    14    23    24    1
    15    23    20    1
    16    38    35    1
    17    34    35   ar
    18    34    33   ar
    19    21    20   ar
    20    21    17   ar
    21    35    36   ar
    22    20    19   ar
    23    33     1    1
    24    33    37   ar
    25     1    17    1
    26     1     6    1
    27    17    18   ar
    28    36    37   ar
    29    36    39    1
    30    19    18   ar
    31    19    22    1
    32    37     2    2
    33    18     3    1
    34    39    40    1
    35     6     7    2
    36     6    10    1
    37     2     7    1
    38     3    10    2
    39     7     8    1
    40    10     9    1
    41    40    41    1
    42    42    41   ar
    43    41    43   ar
    44     8     9    2
    45     8    12    1
    46     9    11    1
    47    13    12    1
    48    13    14    1
    49    15    14   ar
    50    14    16   ar
