@<TRIPOS>MOLECULE
1it7_GUN_A_1.pdb
 11 12 0 0 0
SMALL
GASTEIGER

@<TRIPOS>ATOM
      1  N9        35.9780   39.0070   75.4360 N.2   602  GUN602     -0.1802
      2  C8        34.9830   38.6370   74.5430 C.3   602  GUN602      0.2633
      3  N7        34.1200   37.7640   74.9970 N.2   602  GUN602     -0.2212
      4  C5        34.5400   37.5100   76.2830 C.2   602  GUN602      0.2482
      5  C6        33.9740   36.6300   77.2680 C.1   602  GUN602      0.2442
      6  O6        32.9750   35.9080   77.1520 O.2   602  GUN602     -0.2063
      7  N1        34.7030   36.6450   78.4810 N.2   602  GUN602     -0.2474
      8  C2        35.8400   37.4160   78.7180 C.1   602  GUN602      0.2608
      9  N2        36.3790   37.2820   79.9310 N.pl3 602  GUN602     -0.0220
     10  N3        36.3890   38.2580   77.8030 N.2   602  GUN602     -0.2682
     11  C4        35.6860   38.2610   76.5910 C.1   602  GUN602      0.1289
@<TRIPOS>BOND
     1     2     3    1
     2     2     1    1
     3     3     4    2
     4     1    11    2
     5     4    11    1
     6     4     5    1
     7    11    10    2
     8     6     5    2
     9     5     7    2
    10    10     8    2
    11     7     8    2
    12     8     9    1
