@<TRIPOS>MOLECULE
1it8_PQ0_A_1.pdb
 13 14 0 0 0
SMALL
GASTEIGER

@<TRIPOS>ATOM
      1  N1        34.5090   36.9820   79.3280 N.2   602  PQ0602     -0.2525
      2  C2        35.5940   37.8440   79.5550 C.1   602  PQ0602      0.2602
      3  N3        36.0060   38.6450   78.6030 N.2   602  PQ0602     -0.2733
      4  C4        35.3450   38.6590   77.2780 C.1   602  PQ0602      0.0984
      5  C5        34.3030   37.8450   77.0200 C.3   602  PQ0602      0.2491
      6  C6        33.8380   36.9380   78.1050 C.1   602  PQ0602      0.2111
      7  O6        32.9050   36.2080   77.8770 O.2   602  PQ0602     -0.2120
      8  C7        33.9550   38.1640   75.6230 C.2   602  PQ0602      0.0975
      9  C10       32.9210   37.5810   74.8390 C.1   602  PQ0602      0.0999
     10  N11       32.1510   37.0260   74.1530 N.1   602  PQ0602     -0.1910
     11  C8        34.8070   39.0970   75.2520 C.2   602  PQ0602      0.1183
     12  N9        35.6090   39.3710   76.2300 N.2   602  PQ0602     -0.1837
     13  N2        36.1600   37.8200   80.7110 N.pl3 602  PQ0602     -0.0221
@<TRIPOS>BOND
     1    10     9    3
     2     9     8    1
     3    11     8    2
     4    11    12    1
     5     8     5    1
     6    12     4    2
     7     5     4    1
     8     5     6    1
     9     4     3    2
    10     7     6    2
    11     6     1    2
    12     3     2    2
    13     1     2    2
    14     2    13    1
