@<TRIPOS>MOLECULE
1itc_GLC_A_10.pdb
 12 12 0 0 0
SMALL
GASTEIGER

@<TRIPOS>ATOM
      1  C1        22.1300  -21.7610   -8.2590 C.3   612  GLC612      0.3024
      2  C2        20.7450  -22.3330   -7.9290 C.3   612  GLC612      0.2434
      3  C3        19.6710  -21.2350   -7.9930 C.3   612  GLC612      0.2199
      4  C4        20.0750  -20.0470   -7.1050 C.3   612  GLC612      0.2144
      5  C5        21.4530  -19.5650   -7.5820 C.3   612  GLC612      0.1836
      6  C6        22.0090  -18.3440   -6.8700 C.3   612  GLC612      0.2142
      7  O1        22.1610  -21.3400   -9.5840 O.3   612  GLC612     -0.1869
      8  O2        20.4290  -23.3580   -8.8570 O.3   612  GLC612     -0.2148
      9  O3        18.4100  -21.7550   -7.5780 O.3   612  GLC612     -0.2174
     10  O4        19.0950  -18.9890   -7.2320 O.3   612  GLC612     -0.2176
     11  O5        22.4180  -20.6280   -7.4230 O.3   612  GLC612     -0.3236
     12  O6        21.5830  -18.3060   -5.5160 O.3   612  GLC612     -0.2176
@<TRIPOS>BOND
     1     7     1    1
     2     8     2    1
     3     1     2    1
     4     1    11    1
     5     3     2    1
     6     3     9    1
     7     3     4    1
     8     5    11    1
     9     5     4    1
    10     5     6    1
    11    10     4    1
    12     6    12    1
