@<TRIPOS>MOLECULE
1ith_HEM_A_1.pdb
 43 50 0 0 0
SMALL
GASTEIGER

@<TRIPOS>ATOM
      1 FE         12.2270   47.6350    7.9500 Fe    143  HEM143      0.0000
      2  CHA       14.6310   49.7920    6.9450 C.2   143  HEM143      0.0000
      3  CHB       14.2170   46.5860   10.4690 C.2   143  HEM143      0.0000
      4  CHC        9.9800   45.3260    8.8160 C.2   143  HEM143      0.0000
      5  CHD       10.3120   48.5860    5.4530 C.2   143  HEM143      0.0000
      6  NA        14.1970   47.9320    8.4400 N.2   143  HEM143      0.0000
      7  C1A       14.9630   48.9330    8.0000 C.2   143  HEM143      0.0000
      8  C2A       16.1670   48.9850    8.7110 C.2   143  HEM143      0.0000
      9  C3A       16.0570   48.0080    9.7040 C.2   143  HEM143      0.0000
     10  C4A       14.7830   47.4810    9.5600 C.2   143  HEM143      0.0000
     11  CMA       17.1100   47.5500   10.6860 C.3   143  HEM143      0.0000
     12  CAA       17.3510   49.9190    8.4760 C.3   143  HEM143      0.0000
     13  CBA       17.2350   51.2880    9.1850 C.3   143  HEM143      0.0000
     14  CGA       16.8950   51.2380   10.6800 C.2   143  HEM143      0.0000
     15  O1A       17.8060   50.9850   11.4810 O.co2 143  HEM143      0.0000
     16  O2A       15.7210   51.4250   11.0680 O.co2 143  HEM143      0.0000
     17  NB        12.1900   46.0940    9.3600 N.ar  143  HEM143      0.0000
     18  C1B       13.0120   45.9130   10.3610 C.ar  143  HEM143      0.0000
     19  C2B       12.5550   44.9410   11.2480 C.ar  143  HEM143      0.0000
     20  C3B       11.3770   44.4880   10.6650 C.ar  143  HEM143      0.0000
     21  C4B       11.1530   45.3250    9.5830 C.ar  143  HEM143      0.0000
     22  CMB       13.2940   44.4280   12.4990 C.3   143  HEM143      0.0000
     23  CAB       10.5090   43.4510   11.0220 C.3   143  HEM143      0.0000
     24  CBB       10.5200   42.6640   12.2450 C.3   143  HEM143      0.0000
     25  NC        10.5600   46.8620    7.0700 N.2   143  HEM143      0.0000
     26  C1C        9.7030   46.0010    7.6270 C.2   143  HEM143      0.0000
     27  C2C        8.5320   45.8270    6.8930 C.2   143  HEM143      0.0000
     28  C3C        8.6240   46.8410    5.9220 C.2   143  HEM143      0.0000
     29  C4C        9.8560   47.4670    6.1340 C.2   143  HEM143      0.0000
     30  CMC        7.4400   44.7650    7.1550 C.3   143  HEM143      0.0000
     31  CAC        7.7120   47.2640    4.9460 C.3   143  HEM143      0.0000
     32  CBC        6.3350   46.8680    4.7820 C.3   143  HEM143      0.0000
     33  ND        12.4930   48.8650    6.3510 N.ar  143  HEM143      0.0000
     34  C1D       11.5440   49.2140    5.4900 C.ar  143  HEM143      0.0000
     35  C2D       11.9650   50.2060    4.6140 C.ar  143  HEM143      0.0000
     36  C3D       13.3010   50.3590    4.8900 C.ar  143  HEM143      0.0000
     37  C4D       13.5080   49.7070    6.1020 C.ar  143  HEM143      0.0000
     38  CMD       11.2040   50.7930    3.4400 C.3   143  HEM143      0.0000
     39  CAD       14.3260   50.7220    3.8770 C.3   143  HEM143      0.0000
     40  CBD       15.2260   51.8660    4.1620 C.3   143  HEM143      0.0000
     41  CGD       16.0500   51.9770    2.9140 C.2   143  HEM143      0.0000
     42  O1D       15.4830   52.3940    1.8830 O.co2 143  HEM143      0.0000
     43  O2D       17.1880   51.5120    2.9280 O.co2 143  HEM143      0.0000
@<TRIPOS>BOND
     1    42    41   ar
     2    41    43   ar
     3    41    40    1
     4    38    35    1
     5    39    40    1
     6    39    36    1
     7    35    36   ar
     8    35    34   ar
     9    32    31    1
    10    36    37   ar
    11    31    28    1
    12     5    34    2
    13     5    29    1
    14    34    33   ar
    15    28    29    1
    16    28    27    2
    17    37    33   ar
    18    37     2    2
    19    29    25    2
    20    33     1    1
    21    27    30    1
    22    27    26    1
    23     2     7    1
    24    25    26    1
    25    25     1    1
    26    26     4    2
    27     1     6    1
    28     1    17    1
    29     7     6    2
    30     7     8    1
    31     6    10    1
    32    12     8    1
    33    12    13    1
    34     8     9    2
    35     4    21    1
    36    13    14    1
    37    17    21   ar
    38    17    18   ar
    39    10     9    1
    40    10     3    2
    41    21    20   ar
    42     9    11    1
    43    18     3    1
    44    18    19   ar
    45    20    23    1
    46    20    19   ar
    47    14    16   ar
    48    14    15   ar
    49    23    24    1
    50    19    22    1
