@<TRIPOS>MOLECULE
1itk_HEM_A_1.pdb
 43 50 0 0 0
SMALL
GASTEIGER

@<TRIPOS>ATOM
      1 FE          6.5610   -9.8730   21.3300 Fe    800  HEM800      0.0000
      2  CHA        8.2510  -12.2500   22.7220 C.2   800  HEM800      0.0000
      3  CHB        5.6730   -8.7840   24.2430 C.2   800  HEM800      0.0000
      4  CHC        5.3580   -7.1720   20.0210 C.2   800  HEM800      0.0000
      5  CHD        8.0320  -10.6640   18.5690 C.2   800  HEM800      0.0000
      6  NA         6.8830  -10.5140   23.4120 N.2   800  HEM800      0.0000
      7  C1A        7.6870  -11.5630   23.7930 C.2   800  HEM800      0.0000
      8  C2A        7.5470  -11.6260   25.2290 C.2   800  HEM800      0.0000
      9  C3A        6.7090  -10.6830   25.7380 C.2   800  HEM800      0.0000
     10  C4A        6.2970   -9.9800   24.5330 C.2   800  HEM800      0.0000
     11  CMA        6.3970  -10.3040   27.1490 C.3   800  HEM800      0.0000
     12  CAA        8.3720  -12.7380   25.8570 C.3   800  HEM800      0.0000
     13  CBA        9.8510  -12.4900   26.2730 C.3   800  HEM800      0.0000
     14  CGA       10.1750  -13.6870   26.9460 C.2   800  HEM800      0.0000
     15  O1A        9.7390  -14.1000   28.0960 O.co2 800  HEM800      0.0000
     16  O2A       10.9880  -14.4410   26.3690 O.co2 800  HEM800      0.0000
     17  NB         5.5730   -8.1000   22.0590 N.ar  800  HEM800      0.0000
     18  C1B        5.1490   -7.8550   23.3490 C.ar  800  HEM800      0.0000
     19  C2B        4.2420   -6.7420   23.5090 C.ar  800  HEM800      0.0000
     20  C3B        4.1170   -6.2920   22.2280 C.ar  800  HEM800      0.0000
     21  C4B        4.9210   -7.1100   21.3380 C.ar  800  HEM800      0.0000
     22  CMB        3.8220   -6.1680   24.8380 C.3   800  HEM800      0.0000
     23  CAB        3.4680   -5.0310   21.7260 C.3   800  HEM800      0.0000
     24  CBB        2.0310   -4.6460   22.1390 C.3   800  HEM800      0.0000
     25  NC         6.7410   -9.0040   19.3460 N.2   800  HEM800      0.0000
     26  C1C        6.1250   -7.7730   19.0720 C.2   800  HEM800      0.0000
     27  C2C        6.4020   -7.4390   17.6870 C.2   800  HEM800      0.0000
     28  C3C        7.1420   -8.4730   17.2550 C.2   800  HEM800      0.0000
     29  C4C        7.3890   -9.4860   18.2420 C.2   800  HEM800      0.0000
     30  CMC        6.0380   -6.1140   17.0520 C.3   800  HEM800      0.0000
     31  CAC        7.9640   -8.7270   15.9970 C.3   800  HEM800      0.0000
     32  CBC        7.3380   -8.5160   14.5940 C.3   800  HEM800      0.0000
     33  ND         7.9990  -11.3210   20.6740 N.ar  800  HEM800      0.0000
     34  C1D        8.3360  -11.7440   19.3970 C.ar  800  HEM800      0.0000
     35  C2D        8.8940  -13.0570   19.1120 C.ar  800  HEM800      0.0000
     36  C3D        8.8780  -13.4490   20.4060 C.ar  800  HEM800      0.0000
     37  C4D        8.3580  -12.4500   21.3430 C.ar  800  HEM800      0.0000
     38  CMD        9.1560  -13.7340   17.7990 C.3   800  HEM800      0.0000
     39  CAD        9.2710  -14.8430   20.8180 C.3   800  HEM800      0.0000
     40  CBD       10.7080  -14.9280   21.4930 C.3   800  HEM800      0.0000
     41  CGD       11.2870  -16.1880   21.7390 C.2   800  HEM800      0.0000
     42  O1D       12.3670  -16.2130   22.4100 O.co2 800  HEM800      0.0000
     43  O2D       10.7630  -17.2460   21.2990 O.co2 800  HEM800      0.0000
@<TRIPOS>BOND
     1    32    31    1
     2    31    28    1
     3    30    27    1
     4    28    27    2
     5    28    29    1
     6    27    26    1
     7    38    35    1
     8    29     5    1
     9    29    25    2
    10     5    34    2
    11    26    25    1
    12    26     4    2
    13    35    34   ar
    14    35    36   ar
    15    25     1    1
    16    34    33   ar
    17     4    21    1
    18    36    39    1
    19    36    37   ar
    20    33     1    1
    21    33    37   ar
    22    39    40    1
    23    43    41   ar
    24     1    17    1
    25     1     6    1
    26    21    17   ar
    27    21    20   ar
    28    37     2    2
    29    40    41    1
    30    23    24    1
    31    23    20    1
    32    41    42   ar
    33    17    18   ar
    34    20    19   ar
    35     2     7    1
    36    18    19   ar
    37    18     3    1
    38     6     7    2
    39     6    10    1
    40    19    22    1
    41     7     8    1
    42     3    10    2
    43    10     9    1
    44     8     9    2
    45     8    12    1
    46     9    11    1
    47    12    13    1
    48    13    14    1
    49    16    14   ar
    50    14    15   ar
