@<TRIPOS>MOLECULE
1ito_E6C_A_1.pdb
 22 21 0 0 0
SMALL
GASTEIGER

@<TRIPOS>ATOM
      1  O1        11.7620   17.2230   -6.9280 O.3   700  E6C700     -0.2126
      2  C2        11.8650   19.4320   -7.9520 C.3   700  E6C700      0.1564
      3  C3        12.5080   18.0560   -7.7750 C.3   700  E6C700      0.2403
      4  C4        13.9330   18.0400   -7.2170 C.2   700  E6C700      0.2728
      5  O5        14.8620   18.5440   -7.8180 O.2   700  E6C700     -0.2706
      6  N6        14.0020   17.4200   -6.0100 N.am  700  E6C700     -0.1956
      7  C7        15.2410   17.3290   -5.3590 C.3   700  E6C700      0.1728
      8  C8        15.6030   15.8680   -5.2110 C.2   700  E6C700      0.2612
      9  O9        14.8920   15.1770   -4.5030 O.2   700  E6C700     -0.2715
     10  N10       16.6660   15.3450   -5.8620 N.am  700  E6C700     -0.2040
     11  C11       17.8090   14.8130   -5.1270 C.3   700  E6C700      0.1152
     12  C12       17.8140   13.2790   -5.4130 C.3   700  E6C700      0.0234
     13  C13       17.7920   12.8070   -6.9030 C.3   700  E6C700      0.0018
     14  C14       17.2090   11.3830   -7.0170 C.3   700  E6C700      0.0001
     15  C15       19.3030   12.8080   -7.4260 C.3   700  E6C700      0.0001
     16  C16       10.4410   19.2650   -8.5730 C.2   700  E6C700      0.3680
     17  O17       10.3940   19.1230   -9.7850 O.co2 700  E6C700     -0.2455
     18  O18        9.4890   19.3110   -7.8280 O.co2 700  E6C700     -0.2455
     19  C19       15.3680   18.1070   -4.0470 C.3   700  E6C700      0.0311
     20  C20       16.2900   19.3540   -4.3410 C.3   700  E6C700      0.0022
     21  C21       15.4480   20.5970   -4.7170 C.3   700  E6C700      0.0001
     22  C22       17.0630   19.6920   -3.0380 C.3   700  E6C700      0.0001
@<TRIPOS>BOND
     1    17    16   ar
     2    16     2    1
     3    16    18   ar
     4     2     3    1
     5     5     4    2
     6     3     4    1
     7     3     1    1
     8    15    13    1
     9     4     6   am
    10    14    13    1
    11    13    12    1
    12     6     7    1
    13    10     8   am
    14    10    11    1
    15    12    11    1
    16     7     8    1
    17     7    19    1
    18     8     9    2
    19    21    20    1
    20    20    19    1
    21    20    22    1
