@<TRIPOS>MOLECULE
1itu_CIL_A_1.pdb
 16 16 0 0 0
SMALL
GASTEIGER

@<TRIPOS>ATOM
      1  C1       -11.9420   11.0220    5.0620 C.3   451  CIL451      0.0096
      2  C2       -13.2540   11.1670    4.3510 C.3   451  CIL451      0.0786
      3  C3       -12.8620   12.1610    5.3950 C.3   451  CIL451      0.0087
      4  C4       -12.4550   13.5510    4.9650 C.3   451  CIL451      0.0005
      5  C5       -13.5990   12.1240    6.7080 C.3   451  CIL451      0.0005
      6  C6       -13.2650   11.5560    2.9470 C.2   451  CIL451      0.2453
      7  N7       -14.4770   11.4920    2.2940 N.am  451  CIL451     -0.1728
      8  C8       -14.6450   11.8180    0.9850 C.2   451  CIL451      0.1486
      9  C9       -15.5490   12.7340    0.6080 C.2   451  CIL451     -0.0028
     10  O10      -12.2450   11.9150    2.3750 O.2   451  CIL451     -0.2730
     11  C11      -13.8130   11.1530   -0.1070 C.2   451  CIL451      0.4025
     12  O12      -13.4290   11.8060   -1.0820 O.co2 451  CIL451     -0.2391
     13  O13      -13.5310    9.9710   -0.0250 O.co2 451  CIL451     -0.2391
     14  C14      -16.4350   13.4680    1.5620 C.3   451  CIL451      0.0276
     15  C15      -16.0630   14.9420    1.5210 C.3   451  CIL451      0.0047
     16  C16      -17.1400   15.7690    2.2170 C.3   451  CIL451      0.0004
@<TRIPOS>BOND
     1    12    11   ar
     2    11    13   ar
     3    11     8    1
     4     9     8    2
     5     9    14    1
     6     8     7    1
     7    15    14    1
     8    15    16    1
     9     7     6   am
    10    10     6    2
    11     6     2    1
    12     2     1    1
    13     2     3    1
    14     4     3    1
    15     1     3    1
    16     3     5    1
