@<TRIPOS>MOLECULE
1itw_ICT_A_1.pdb
 13 12 0 0 0
SMALL
GASTEIGER

@<TRIPOS>ATOM
      1  C1         0.8720    1.0970    6.8590 C.2   743  ICT743      0.3952
      2  O1         1.6200    0.2200    6.2980 O.co2 743  ICT743     -0.2428
      3  O2         0.7680    2.2600    6.3840 O.co2 743  ICT743     -0.2428
      4  C2         0.0900    0.7940    8.1180 C.3   743  ICT743      0.2651
      5  O7        -0.8240    1.9530    8.1800 O.3   743  ICT743     -0.2103
      6  C3         1.1570    0.6830    9.1640 C.3   743  ICT743      0.1561
      7  C4         0.4160    0.3350   10.5150 C.3   743  ICT743      0.1285
      8  C5         1.3360   -0.4190   11.4910 C.2   743  ICT743      0.3655
      9  O3         2.5430   -0.7000   11.2970 O.co2 743  ICT743     -0.2456
     10  O4         0.7270   -0.7190   12.5480 O.co2 743  ICT743     -0.2456
     11  C6         1.9580    1.8050    9.6870 C.2   743  ICT743      0.3680
     12  O5         2.9860    1.9440    9.0530 O.co2 743  ICT743     -0.2455
     13  O6         1.7520    2.6480   10.5600 O.co2 743  ICT743     -0.2455
@<TRIPOS>BOND
     1     2     1   ar
     2     3     1   ar
     3     1     4    1
     4     4     5    1
     5     4     6    1
     6    12    11   ar
     7     6    11    1
     8     6     7    1
     9    11    13   ar
    10     7     8    1
    11     9     8   ar
    12     8    10   ar
