@<TRIPOS>MOLECULE
1itz_TPP_A_1.pdb
 26 27 0 0 0
SMALL
GASTEIGER

@<TRIPOS>ATOM
      1  N1'      -13.7830   75.0620   41.6350 N.2   1002  TPP1002    -0.1861
      2  C2'      -12.7590   74.4410   42.2580 C.1   1002  TPP1002     0.0663
      3  CM2      -11.7210   73.7860   41.3640 C.3   1002  TPP1002     0.1291
      4  N3'      -12.6250   74.3860   43.5980 N.2   1002  TPP1002    -0.3368
      5  C4'      -13.5890   75.0040   44.3330 C.2   1002  TPP1002     0.2292
      6  N4'      -13.4120   74.9330   45.7020 N.pl3 1002  TPP1002    -0.0925
      7  C5'      -14.7210   75.6960   43.7480 C.2   1002  TPP1002     0.0654
      8  C6'      -14.7500   75.6790   42.3410 C.2   1002  TPP1002     0.1115
      9  C7'      -15.7810   76.3750   44.5870 C.3   1002  TPP1002     0.1237
     10  N3       -16.5980   75.4180   45.3440 N.pl3 1002  TPP1002    -0.2970
     11  C2       -16.2910   75.0280   46.6530 C.3   1002  TPP1002     0.1543
     12  S1       -17.4840   73.8630   47.2570 S.3   1002  TPP1002    -0.0951
     13  C5       -18.3430   73.9580   45.7200 C.2   1002  TPP1002     0.0164
     14  C4       -17.8100   74.7940   44.7750 C.2   1002  TPP1002     0.0279
     15  CM4      -18.3370   75.0820   43.3380 C.3   1002  TPP1002     0.0473
     16  C6       -19.5710   73.1010   45.6610 C.3   1002  TPP1002     0.0661
     17  C7       -19.2880   71.6310   45.4520 C.3   1002  TPP1002     0.1544
     18  O7       -20.3600   70.9420   46.1210 O.3   1002  TPP1002    -0.3134
     19  PA       -20.1320   69.5520   46.6980 P.3   1002  TPP1002     0.2230
     20  O1A      -18.6940   69.1170   46.4370 O.3   1002  TPP1002    -0.4370
     21  O2A      -21.0470   68.6070   46.0320 O.2   1002  TPP1002    -0.5169
     22  O3A      -20.3640   69.5790   48.2210 O.3   1002  TPP1002    -0.2261
     23  PB       -21.5760   69.9140   49.1760 P.3   1002  TPP1002     0.5373
     24  O1B      -22.4480   68.6860   49.0490 O.3   1002  TPP1002    -0.1143
     25  O2B      -20.8980   70.0360   50.5130 O.3   1002  TPP1002    -0.1143
     26  O3B      -22.3160   71.1310   48.8070 O.2   1002  TPP1002    -0.2221
@<TRIPOS>BOND
     1     3     2    1
     2     1     2    2
     3     1     8    1
     4     2     4    2
     5     8     7    2
     6    15    14    1
     7     4     5    2
     8     7     5    1
     9     7     9    1
    10     5     6    1
    11     9    10    1
    12    14    10    1
    13    14    13    2
    14    10    11    1
    15    17    16    1
    16    17    18    1
    17    16    13    1
    18    13    12    1
    19    21    19    2
    20    18    19    1
    21    20    19    1
    22    11    12    1
    23    19    22    1
    24    22    23    1
    25    26    23    2
    26    24    23    1
    27    23    25    1
