@<TRIPOS>MOLECULE
1iub_FUL_A_1.pdb
 11 11 0 0 0
SMALL
GASTEIGER

@<TRIPOS>ATOM
      1  C1        25.4370    6.8320   38.9590 C.3   401  FUL401      0.3023
      2  C2        26.9250    7.1310   39.3350 C.3   401  FUL401      0.2434
      3  O2        27.6350    5.9140   39.5660 O.3   401  FUL401     -0.2148
      4  C3        27.5460    7.9330   38.1740 C.3   401  FUL401      0.2198
      5  O3        28.9280    8.2000   38.4080 O.3   401  FUL401     -0.2174
      6  C4        26.7250    9.2560   37.9760 C.3   401  FUL401      0.2118
      7  O4        26.7720   10.0440   39.1770 O.3   401  FUL401     -0.2177
      8  C5        25.2500    8.8740   37.6750 C.3   401  FUL401      0.1509
      9  C6        24.3140   10.0730   37.5370 C.3   401  FUL401      0.0350
     10  O5        24.7070    8.0590   38.7440 O.3   401  FUL401     -0.3264
     11  O1        24.8200    6.1510   39.9770 O.3   401  FUL401     -0.1869
@<TRIPOS>BOND
     1     9     8    1
     2     8     6    1
     3     8    10    1
     4     6     4    1
     5     6     7    1
     6     4     5    1
     7     4     2    1
     8    10     1    1
     9     1     2    1
    10     1    11    1
    11     2     3    1
