@<TRIPOS>MOLECULE
1iuc_FUL_A_1.pdb
 11 11 0 0 0
SMALL
GASTEIGER

@<TRIPOS>ATOM
      1  C1        25.0100    7.5120   38.4750 C.3   401  FUL401      0.3023
      2  C2        26.4830    7.7740   38.8160 C.3   401  FUL401      0.2434
      3  O2        27.1680    6.5450   39.0200 O.3   401  FUL401     -0.2148
      4  C3        27.1300    8.5460   37.6750 C.3   401  FUL401      0.2198
      5  O3        28.4950    8.8100   37.9760 O.3   401  FUL401     -0.2174
      6  C4        26.3540    9.8520   37.4610 C.3   401  FUL401      0.2118
      7  O4        26.4040   10.6340   38.6480 O.3   401  FUL401     -0.2177
      8  C5        24.8930    9.5110   37.1490 C.3   401  FUL401      0.1509
      9  C6        24.0250   10.7430   36.9630 C.3   401  FUL401      0.0350
     10  O5        24.3220    8.7520   38.2380 O.3   401  FUL401     -0.3264
     11  O1        24.3980    6.9020   39.5500 O.3   401  FUL401     -0.1869
@<TRIPOS>BOND
     1     9     8    1
     2     8     6    1
     3     8    10    1
     4     6     4    1
     5     6     7    1
     6     4     5    1
     7     4     2    1
     8    10     1    1
     9     1     2    1
    10     1    11    1
    11     2     3    1
