@<TRIPOS>MOLECULE
1iuc_FUC_A_1.pdb
 11 11 0 0 0
SMALL
GASTEIGER

@<TRIPOS>ATOM
      1  C1        25.6090   37.4670   29.6120 C.3   403  FUC403      0.3023
      2  C2        26.7550   37.8890   30.5850 C.3   403  FUC403      0.2434
      3  C3        26.1780   38.5950   31.8300 C.3   403  FUC403      0.2198
      4  C4        25.1280   37.6560   32.5180 C.3   403  FUC403      0.2118
      5  C5        23.9970   37.3550   31.4960 C.3   403  FUC403      0.1509
      6  C6        22.9070   36.4350   32.0480 C.3   403  FUC403      0.0350
      7  O1        25.0220   38.5830   29.0530 O.3   403  FUC403     -0.1869
      8  O2        27.7150   38.7200   29.9380 O.3   403  FUC403     -0.2148
      9  O3        27.2420   38.9650   32.7090 O.3   403  FUC403     -0.2174
     10  O4        25.7420   36.4220   32.8770 O.3   403  FUC403     -0.2177
     11  O5        24.5610   36.7020   30.3080 O.3   403  FUC403     -0.3264
@<TRIPOS>BOND
     1     7     1    1
     2     1    11    1
     3     1     2    1
     4     8     2    1
     5    11     5    1
     6     2     3    1
     7     5     6    1
     8     5     4    1
     9     3     4    1
    10     3     9    1
    11     4    10    1
