@<TRIPOS>MOLECULE
1iud_MAL_A_1.pdb
 23 24 0 0 0
SMALL
GASTEIGER

@<TRIPOS>ATOM
      1  C1        10.7260   29.9270   20.0060 C.3   400  MAL400      0.2695
      2  C2        12.0450   29.7950   20.7590 C.3   400  MAL400      0.2406
      3  C3        11.7460   30.5310   22.0790 C.3   400  MAL400      0.2198
      4  C4        11.4710   31.9770   21.6870 C.3   400  MAL400      0.2144
      5  C5        10.1130   32.0780   20.9450 C.3   400  MAL400      0.1835
      6  C6         9.7600   33.4160   20.3110 C.3   400  MAL400      0.2142
      7  O1         9.8190   29.3690   20.8110 O.3   400  MAL400     -0.3257
      8  O2        12.3770   28.4840   21.2300 O.3   400  MAL400     -0.2149
      9  O3        12.7380   30.2680   23.0570 O.3   400  MAL400     -0.2174
     10  O4        11.5710   32.7610   22.8780 O.3   400  MAL400     -0.2176
     11  O5        10.0890   31.2050   19.8940 O.3   400  MAL400     -0.3256
     12  O6         8.4620   33.3590   19.7600 O.3   400  MAL400     -0.2176
     13  C1'        7.1650   26.7060   20.8910 C.3   400  MAL400      0.3023
     14  C2'        8.2720   26.4280   19.9800 C.3   400  MAL400      0.2433
     15  C3'        9.3840   27.3460   20.4700 C.3   400  MAL400      0.2168
     16  C4'        8.8260   28.6960   20.2080 C.3   400  MAL400      0.1804
     17  C5'        7.5630   28.9770   21.0160 C.3   400  MAL400      0.1804
     18  C6'        7.0450   30.4310   20.8880 C.3   400  MAL400      0.2141
     19  O1'        6.4220   25.6070   20.9190 O.3   400  MAL400     -0.1869
     20  O2'        8.6820   25.0880   20.0200 O.3   400  MAL400     -0.2148
     21  O3'       10.6710   27.1320   19.9210 O.3   400  MAL400     -0.2175
     22  O5'        6.5540   27.9570   20.6160 O.3   400  MAL400     -0.3237
     23  O6'        5.6710   30.4130   21.1480 O.3   400  MAL400     -0.2176
@<TRIPOS>BOND
     1    12     6    1
     2    11     1    1
     3    11     5    1
     4    21    15    1
     5    14    20    1
     6    14    15    1
     7    14    13    1
     8     1     2    1
     9     1     7    1
    10    16    15    1
    11    16     7    1
    12    16    17    1
    13     6     5    1
    14    22    13    1
    15    22    17    1
    16     2     8    1
    17     2     3    1
    18    18    17    1
    19    18    23    1
    20    13    19    1
    21     5     4    1
    22     4     3    1
    23     4    10    1
    24     3     9    1
