@<TRIPOS>MOLECULE
1ius_PAB_A_1.pdb
 10 10 0 0 0
SMALL
GASTEIGER

@<TRIPOS>ATOM
      1  C1'       17.4110   96.9980   45.8070 C.2   396  PAB396      0.3878
      2  O1'       18.2170   97.7260   46.3340 O.co2 396  PAB396     -0.2406
      3  O2'       16.4650   97.5990   45.3020 O.co2 396  PAB396     -0.2406
      4  C1        17.5430   95.5910   45.7760 C.ar  396  PAB396      0.0799
      5  C2        18.5590   94.8760   46.3490 C.ar  396  PAB396      0.0080
      6  C3        18.5890   93.4880   46.3430 C.ar  396  PAB396      0.0183
      7  C4        17.5660   92.7880   45.7410 C.ar  396  PAB396      0.0891
      8  C5        16.5580   93.4890   45.1630 C.ar  396  PAB396      0.0183
      9  C6        16.5510   94.8600   45.1830 C.ar  396  PAB396      0.0080
     10  N4        17.4780   91.4720   45.6820 N.pl3 396  PAB396     -0.1281
@<TRIPOS>BOND
     1     8     9   ar
     2     8     7   ar
     3     9     4   ar
     4     3     1   ar
     5    10     7    1
     6     7     6   ar
     7     4     1    1
     8     4     5   ar
     9     1     2   ar
    10     6     5   ar
