@<TRIPOS>MOLECULE
1iut_PAB_A_1.pdb
 10 10 0 0 0
SMALL
GASTEIGER

@<TRIPOS>ATOM
      1  C1'       17.3920   96.9870   45.4610 C.2   396  PAB396      0.3878
      2  O1'       18.2170   97.7100   46.0180 O.co2 396  PAB396     -0.2406
      3  O2'       16.4320   97.5880   44.9980 O.co2 396  PAB396     -0.2406
      4  C1        17.4850   95.5580   45.3890 C.ar  396  PAB396      0.0799
      5  C2        18.5270   94.8410   45.9760 C.ar  396  PAB396      0.0080
      6  C3        18.5520   93.4640   45.9830 C.ar  396  PAB396      0.0183
      7  C4        17.5180   92.7580   45.3900 C.ar  396  PAB396      0.0891
      8  C5        16.4740   93.4440   44.7960 C.ar  396  PAB396      0.0183
      9  C6        16.4610   94.8260   44.7970 C.ar  396  PAB396      0.0080
     10  N4        17.4710   91.4310   45.3650 N.pl3 396  PAB396     -0.1281
@<TRIPOS>BOND
     1     8     9   ar
     2     8     7   ar
     3     9     4   ar
     4     3     1   ar
     5    10     7    1
     6     4     1    1
     7     4     5   ar
     8     7     6   ar
     9     1     2   ar
    10     5     6   ar
