@<TRIPOS>MOLECULE
1iuu_PAB_A_1.pdb
 10 10 0 0 0
SMALL
GASTEIGER

@<TRIPOS>ATOM
      1  C1'       17.4240   96.9450   45.4250 C.2   396  PAB396      0.3878
      2  O1'       18.2150   97.6730   46.0150 O.co2 396  PAB396     -0.2406
      3  O2'       16.4670   97.5340   44.8970 O.co2 396  PAB396     -0.2406
      4  C1        17.5330   95.5260   45.3790 C.ar  396  PAB396      0.0799
      5  C2        18.5600   94.8220   45.9760 C.ar  396  PAB396      0.0080
      6  C3        18.5830   93.4640   45.9870 C.ar  396  PAB396      0.0183
      7  C4        17.5610   92.7390   45.3930 C.ar  396  PAB396      0.0891
      8  C5        16.5280   93.4120   44.7970 C.ar  396  PAB396      0.0183
      9  C6        16.5240   94.7830   44.7950 C.ar  396  PAB396      0.0080
     10  N4        17.5390   91.4130   45.3570 N.pl3 396  PAB396     -0.1281
@<TRIPOS>BOND
     1     9     8   ar
     2     9     4   ar
     3     8     7   ar
     4     3     1   ar
     5    10     7    1
     6     4     1    1
     7     4     5   ar
     8     7     6   ar
     9     1     2   ar
    10     5     6   ar
