@<TRIPOS>MOLECULE
1iuw_PHB_A_1.pdb
 10 10 0 0 0
SMALL
GASTEIGER

@<TRIPOS>ATOM
      1  C1'       17.3430   96.9660   45.5260 C.2   396  PHB396      0.3878
      2  O1'       18.1790   97.6510   46.0780 O.co2 396  PHB396     -0.2406
      3  O2'       16.3940   97.5340   45.0050 O.co2 396  PHB396     -0.2406
      4  C1        17.4220   95.5680   45.5020 C.ar  396  PHB396      0.0800
      5  C2        18.4490   94.8760   46.1110 C.ar  396  PHB396      0.0099
      6  C3        18.4810   93.4960   46.1230 C.ar  396  PHB396      0.0422
      7  C4        17.4690   92.7610   45.5160 C.ar  396  PHB396      0.1958
      8  C5        16.4300   93.4230   44.8990 C.ar  396  PHB396      0.0422
      9  C6        16.4120   94.8240   44.8950 C.ar  396  PHB396      0.0099
     10  O4        17.4350   91.3810   45.5010 O.3   396  PHB396     -0.2866
@<TRIPOS>BOND
     1     9     8   ar
     2     9     4   ar
     3     8     7   ar
     4     3     1   ar
     5    10     7    1
     6     4     1    1
     7     4     5   ar
     8     7     6   ar
     9     1     2   ar
    10     5     6   ar
