@<TRIPOS>MOLECULE
1iux_PHB_A_1.pdb
 10 10 0 0 0
SMALL
GASTEIGER

@<TRIPOS>ATOM
      1  C1'       17.3170   96.6350   45.4820 C.2   396  PHB396      0.3874
      2  O1'       18.1390   97.3070   46.0750 O.co2 396  PHB396     -0.2406
      3  O2'       16.3330   97.2490   45.0390 O.co2 396  PHB396     -0.2406
      4  C1        17.4130   95.2300   45.4350 C.2   396  PHB396      0.0761
      5  C2        18.4100   94.4700   46.0790 C.2   396  PHB396     -0.0114
      6  C3        18.4130   93.0800   46.0580 C.3   396  PHB396      0.0953
      7  C4        17.4180   92.3670   45.3980 C.2   396  PHB396      0.1775
      8  C5        16.4230   93.0890   44.7620 C.2   396  PHB396      0.0380
      9  C6        16.4260   94.5040   44.7790 C.2   396  PHB396      0.0092
     10  O4        17.3750   91.1270   45.3410 O.2   396  PHB396     -0.2910
@<TRIPOS>BOND
     1     8     9    2
     2     8     7    1
     3     9     4    1
     4     3     1   ar
     5    10     7    2
     6     7     6    1
     7     4     1    1
     8     4     5    2
     9     1     2   ar
    10     6     5    1
