@<TRIPOS>MOLECULE
1iv2_CDP_A_1.pdb
 25 26 0 0 0
SMALL
GASTEIGER

@<TRIPOS>ATOM
      1  O3B      -16.1550   83.0070   48.2990 O.3   1601  CDP1601    -0.1143
      2  PB       -14.8150   83.5420   47.8690 P.3   1601  CDP1601     0.5373
      3  O1B      -13.9680   82.3120   47.9050 O.3   1601  CDP1601    -0.1143
      4  O2B      -15.0230   84.1100   46.4510 O.2   1601  CDP1601    -0.2221
      5  O3A      -14.1570   84.6430   48.6730 O.3   1601  CDP1601    -0.2261
      6  PA       -14.8060   85.5360   49.8340 P.3   1601  CDP1601     0.2231
      7  O1A      -14.0820   85.3680   51.2280 O.3   1601  CDP1601    -0.4370
      8  O2A      -16.2280   85.7360   49.8540 O.2   1601  CDP1601    -0.5169
      9  O5'      -14.1750   86.9080   49.2220 O.3   1601  CDP1601    -0.3111
     10  C5'      -14.5300   87.3150   47.9310 C.3   1601  CDP1601     0.1813
     11  C4'      -13.7170   88.5010   47.6710 C.3   1601  CDP1601     0.1799
     12  O4'      -13.8120   89.7130   48.4460 O.3   1601  CDP1601    -0.3320
     13  C3'      -12.1880   88.2500   47.5210 C.3   1601  CDP1601     0.2158
     14  O3'      -11.7210   87.2890   46.5470 O.3   1601  CDP1601    -0.2175
     15  C2'      -11.5310   89.5580   47.8720 C.3   1601  CDP1601     0.2319
     16  O2'      -11.5830   90.1440   46.5970 O.3   1601  CDP1601    -0.2157
     17  C1'      -12.6460   90.4870   48.2100 C.3   1601  CDP1601     0.2400
     18  N1       -12.5780   90.8610   49.7150 N.am  1601  CDP1601    -0.1778
     19  C2       -12.3590   92.2310   50.0970 C.1   1601  CDP1601     0.2756
     20  O2       -12.1950   93.1140   49.2210 O.2   1601  CDP1601    -0.1925
     21  N3       -12.2980   92.6070   51.3920 N.2   1601  CDP1601    -0.3024
     22  C4       -12.4860   91.6550   52.4470 C.2   1601  CDP1601     0.2346
     23  N4       -12.4520   92.0270   53.7500 N.pl3 1601  CDP1601    -0.0921
     24  C5       -12.7270   90.2710   52.1470 C.2   1601  CDP1601     0.0687
     25  C6       -12.7650   89.9340   50.8060 C.2   1601  CDP1601     0.0836
@<TRIPOS>BOND
     1     4     2    2
     2    14    13    1
     3    16    15    1
     4    13    11    1
     5    13    15    1
     6    11    10    1
     7    11    12    1
     8     2     3    1
     9     2     1    1
    10     2     5    1
    11    15    17    1
    12    10     9    1
    13    17    12    1
    14    17    18    1
    15     5     6    1
    16    20    19    2
    17     9     6    1
    18    18    19   am
    19    18    25    1
    20     6     8    2
    21     6     7    1
    22    19    21    2
    23    25    24    2
    24    21    22    2
    25    24    22    1
    26    22    23    1
