@<TRIPOS>MOLECULE
1iv4_C5P_A_1.pdb
 21 22 0 0 0
SMALL
GASTEIGER

@<TRIPOS>ATOM
      1  O3P       -6.6490   66.3980   61.8470 O.2   1602  C5P1602    -0.2224
      2  P         -6.0760   64.9680   62.1690 P.3   1602  C5P1602     0.5327
      3  O1P       -6.9450   64.1980   63.0270 O.3   1602  C5P1602    -0.1145
      4  O2P       -4.5410   64.9710   62.5960 O.3   1602  C5P1602    -0.1145
      5  O5'       -5.9110   64.1880   60.7730 O.3   1602  C5P1602    -0.2675
      6  C5'       -5.4380   62.8710   60.7160 C.3   1602  C5P1602     0.1859
      7  C4'       -5.3850   62.4630   59.3160 C.3   1602  C5P1602     0.1801
      8  O4'       -6.5740   62.2130   58.5400 O.3   1602  C5P1602    -0.3320
      9  C3'       -4.4300   63.2200   58.3620 C.3   1602  C5P1602     0.2158
     10  O3'       -3.0020   63.3540   58.5660 O.3   1602  C5P1602    -0.2175
     11  C2'       -4.9880   62.9700   56.9790 C.3   1602  C5P1602     0.2319
     12  O2'       -4.3370   61.7610   56.6810 O.3   1602  C5P1602    -0.2157
     13  C1'       -6.2520   62.2270   57.1640 C.3   1602  C5P1602     0.2400
     14  N1        -7.4630   63.1370   56.8370 N.am  1602  C5P1602    -0.1778
     15  C2        -8.3210   62.7860   55.7300 C.1   1602  C5P1602     0.2756
     16  N3        -9.4080   63.5160   55.3700 N.2   1602  C5P1602    -0.3024
     17  C4        -9.7750   64.6840   56.1000 C.2   1602  C5P1602     0.2346
     18  C5        -8.9750   65.1120   57.2150 C.2   1602  C5P1602     0.0687
     19  C6        -7.8830   64.3220   57.5420 C.2   1602  C5P1602     0.0836
     20  O2        -8.0430   61.7750   55.0650 O.2   1602  C5P1602    -0.1925
     21  N4       -10.8660   65.3920   55.7610 N.pl3 1602  C5P1602    -0.0921
@<TRIPOS>BOND
     1    20    15    2
     2    16    15    2
     3    16    17    2
     4    15    14   am
     5    21    17    1
     6    17    18    1
     7    12    11    1
     8    14    13    1
     9    14    19    1
    10    11    13    1
    11    11     9    1
    12    13     8    1
    13    18    19    2
    14     9    10    1
    15     9     7    1
    16     8     7    1
    17     7     6    1
    18     6     5    1
    19     5     2    1
    20     1     2    2
    21     2     4    1
    22     2     3    1
