@<TRIPOS>MOLECULE
1ivb_ST1_A_1.pdb
 19 19 0 0 0
SMALL
GASTEIGER

@<TRIPOS>ATOM
      1  C'        33.3920  -12.7620   66.3470 C.2   471  ST1471      0.3879
      2  O1'       32.5670  -13.6780   66.2460 O.co2 471  ST1471     -0.2406
      3  O2'       34.4230  -12.9070   67.0230 O.co2 471  ST1471     -0.2406
      4  C1        33.1200  -11.5660   65.6790 C.ar  471  ST1471      0.0845
      5  C2        34.1050  -10.6210   65.4600 C.ar  471  ST1471      0.0446
      6  C3        33.8380   -9.4600   64.7540 C.ar  471  ST1471      0.1488
      7  O3        34.8280   -8.4990   64.5990 O.3   471  ST1471     -0.5042
      8  C4        32.5640   -9.2280   64.2350 C.ar  471  ST1471      0.1072
      9  N4        32.3740   -8.1100   63.3700 N.am  471  ST1471     -0.2802
     10  C4'       31.4340   -7.2400   63.7450 C.2   471  ST1471      0.2267
     11  O4'       31.3760   -6.7750   64.8850 O.2   471  ST1471     -0.2748
     12  CM4       30.4910   -6.7140   62.6930 C.3   471  ST1471      0.0949
     13  C5        31.5400  -10.2250   64.4780 C.ar  471  ST1471      0.1594
     14  N5        30.2850  -10.1570   63.8910 N.pl3 471  ST1471      0.0590
     15  ON1       30.2290  -10.8620   62.9080 O.2   471  ST1471     -0.1261
     16  ON2       29.5200   -9.4330   64.5190 O.2   471  ST1471     -0.1261
     17  C6        31.8560  -11.3360   65.1860 C.ar  471  ST1471      0.0321
     18  HO3       34.4480   -7.7120   64.1950 H     471  ST1471      0.2922
     19  HN4       32.9000   -7.9820   62.5570 H     471  ST1471      0.1550
@<TRIPOS>BOND
     1    19     9    1
     2    12    10    1
     3    15    14    2
     4     9    10   am
     5     9     8    1
     6    10    11    2
     7    14    13    1
     8    14    16    2
     9    18     7    1
    10     8    13   ar
    11     8     6   ar
    12    13    17   ar
    13     7     6    1
    14     6     5   ar
    15    17     4   ar
    16     5     4   ar
    17     4     1    1
    18     2     1   ar
    19     1     3   ar
