@<TRIPOS>MOLECULE
1ivb_NAG_A_1.pdb
 28 28 0 0 0
SMALL
GASTEIGER

@<TRIPOS>ATOM
      1  C1        40.6210  -17.9330   33.0960 C.3   467  NAG467      0.1078
      2  C2        41.2850  -19.2760   33.1800 C.3   467  NAG467      0.0801
      3  C3        42.7750  -19.0620   33.0880 C.3   467  NAG467      0.1043
      4  C4        43.1750  -18.3230   31.7040 C.3   467  NAG467      0.1110
      5  C5        42.5300  -16.8330   31.6880 C.3   467  NAG467      0.1104
      6  C6        42.6830  -16.1470   30.3250 C.3   467  NAG467      0.0729
      7  C7        41.1820  -21.2920   34.3990 C.2   467  NAG467      0.2103
      8  C8        40.9870  -22.1440   35.6340 C.3   467  NAG467      0.0122
      9  N2        41.0140  -19.9790   34.4120 N.am  467  NAG467     -0.3075
     10  O3        43.3460  -20.3220   33.1890 O.3   467  NAG467     -0.3872
     11  O4        44.5590  -18.3020   31.6450 O.3   467  NAG467     -0.3865
     12  O5        41.0910  -16.9180   31.9640 O.3   467  NAG467     -0.3639
     13  O6        41.7730  -15.0420   30.2600 O.3   467  NAG467     -0.3924
     14  O7        41.4430  -21.8840   33.3630 O.2   467  NAG467     -0.2761
     15  H1        40.9480  -17.3920   33.9940 H     467  NAG467      0.0642
     16  H2        40.9500  -19.8270   32.2810 H     467  NAG467      0.0551
     17  H3        43.1440  -18.4240   33.9070 H     467  NAG467      0.0639
     18  H4        42.7800  -18.9060   30.8570 H     467  NAG467      0.0646
     19  H5        42.9980  -16.2170   32.4700 H     467  NAG467      0.0646
     20  H61       42.4820  -16.8520   29.5060 H     467  NAG467      0.0584
     21  H62       43.7230  -15.7990   30.2120 H     467  NAG467      0.0584
     22  H81       41.8180  -22.8480   35.7260 H     467  NAG467      0.0322
     23  H82       40.0570  -22.7210   35.5540 H     467  NAG467      0.0322
     24  H83       40.9600  -21.5220   36.5400 H     467  NAG467      0.0322
     25  HN2       40.7530  -19.4860   35.2160 H     467  NAG467      0.1491
     26  HO3       42.8770  -20.9570   32.6310 H     467  NAG467      0.2100
     27  HO4       44.8560  -19.0330   32.2070 H     467  NAG467      0.2100
     28  HO6       41.0520  -15.2170   30.8780 H     467  NAG467      0.2095
@<TRIPOS>BOND
     1    20     6    1
     2    21     6    1
     3    13     6    1
     4    13    28    1
     5     6     5    1
     6    18     4    1
     7    11     4    1
     8    11    27    1
     9     5     4    1
    10     5    12    1
    11     5    19    1
    12     4     3    1
    13    12     1    1
    14    16     2    1
    15    26    10    1
    16     3     2    1
    17     3    10    1
    18     3    17    1
    19     1     2    1
    20     1    15    1
    21     2     9    1
    22    14     7    2
    23     7     9   am
    24     7     8    1
    25     9    25    1
    26    23     8    1
    27     8    22    1
    28     8    24    1
