@<TRIPOS>MOLECULE
1ivc_FUL_A_1.pdb
 21 21 0 0 0
SMALL
GASTEIGER

@<TRIPOS>ATOM
      1  C1        65.3920    9.0400  -21.6090 C.3   477  FUL477      0.1160
      2  C2        64.5400    8.0810  -20.6370 C.3   477  FUL477      0.1121
      3  O2        63.7420    8.8250  -19.7390 O.3   477  FUL477     -0.3865
      4  C3        63.7010    7.1500  -21.6130 C.3   477  FUL477      0.1117
      5  O3        62.6850    6.2850  -20.9630 O.3   477  FUL477     -0.3865
      6  C4        64.6760    6.2380  -22.4050 C.3   477  FUL477      0.1093
      7  O4        64.7950    5.0740  -21.5860 O.3   477  FUL477     -0.3866
      8  C5        66.1710    6.8070  -22.6690 C.3   477  FUL477      0.0848
      9  C6        67.3660    6.4450  -21.7500 C.3   477  FUL477     -0.0361
     10  O5        66.0440    8.2820  -22.7480 O.3   477  FUL477     -0.3657
     11  H1        64.7600    9.7950  -22.1040 H     477  FUL477      0.0650
     12  H2        65.2040    7.4610  -20.0260 H     477  FUL477      0.0647
     13  HO2       62.9440    8.3020  -19.5780 H     477  FUL477      0.2100
     14  H3        63.1810    7.8050  -22.3320 H     477  FUL477      0.0647
     15  HO3       62.9620    5.3690  -21.1150 H     477  FUL477      0.2100
     16  H4        64.2080    5.9650  -23.3670 H     477  FUL477      0.0646
     17  HO4       65.4150    5.2690  -20.8760 H     477  FUL477      0.2100
     18  H5        66.4530    6.5020  -23.6900 H     477  FUL477      0.0620
     19  H61       67.2060    6.7320  -20.7060 H     477  FUL477      0.0255
     20  H62       67.5590    5.3620  -21.7980 H     477  FUL477      0.0255
     21  H63       68.2690    6.9650  -22.1010 H     477  FUL477      0.0255
@<TRIPOS>BOND
     1    18     8    1
     2    16     6    1
     3    10     8    1
     4    10     1    1
     5     8     6    1
     6     8     9    1
     7     6     4    1
     8     6     7    1
     9    14     4    1
    10    11     1    1
    11    21     9    1
    12    20     9    1
    13     9    19    1
    14     4     5    1
    15     4     2    1
    16     1     2    1
    17     7    17    1
    18    15     5    1
    19     2    12    1
    20     2     3    1
    21     3    13    1
