@<TRIPOS>MOLECULE
1ivc_ST2_A_1.pdb
 19 19 0 0 0
SMALL
GASTEIGER

@<TRIPOS>ATOM
      1  C'        49.5200   22.8930  -20.4860 C.2   471  ST2471      0.3879
      2  O1'       50.6240   22.5360  -20.0020 O.co2 471  ST2471     -0.2406
      3  O2'       48.9740   23.9900  -20.1850 O.co2 471  ST2471     -0.2406
      4  C1        48.9080   22.0650  -21.4490 C.ar  471  ST2471      0.0841
      5  C2        47.5760   21.6720  -21.3290 C.ar  471  ST2471      0.0221
      6  C3        46.9480   20.8810  -22.3200 C.ar  471  ST2471      0.0584
      7  N3        45.6050   20.5600  -22.1930 N.pl3 471  ST2471     -0.3559
      8  C4        47.6840   20.4600  -23.4710 C.ar  471  ST2471      0.0975
      9  N4        47.0780   19.7080  -24.4980 N.am  471  ST2471     -0.2806
     10  C4'       46.6160   18.5270  -24.0590 C.2   471  ST2471      0.2267
     11  O4'       47.3750   17.6680  -23.5990 O.2   471  ST2471     -0.2748
     12  CM4       45.1360   18.1940  -24.1730 C.3   471  ST2471      0.0949
     13  C5        49.0390   20.8530  -23.5860 C.ar  471  ST2471      0.1484
     14  O5        49.7960   20.4650  -24.6910 O.3   471  ST2471     -0.5042
     15  C6        49.6300   21.6470  -22.5760 C.ar  471  ST2471      0.0446
     16 HN31       45.1750   20.0430  -22.9010 H     471  ST2471      0.1424
     17 HN32       45.1410   20.8690  -21.3880 H     471  ST2471      0.1424
     18  HN4       47.0300   20.0020  -25.4280 H     471  ST2471      0.1550
     19  HO5       50.6830   20.8150  -24.5890 H     471  ST2471      0.2922
@<TRIPOS>BOND
     1    18     9    1
     2    14    19    1
     3    14    13    1
     4     9    10   am
     5     9     8    1
     6    12    10    1
     7    10    11    2
     8    13     8   ar
     9    13    15   ar
    10     8     6   ar
    11    16     7    1
    12    15     4   ar
    13     6     7    1
    14     6     5   ar
    15     7    17    1
    16     4     5   ar
    17     4     1    1
    18     1     3   ar
    19     1     2   ar
