@<TRIPOS>MOLECULE
1ivc_MAN_A_1.pdb
 22 22 0 0 0
SMALL
GASTEIGER

@<TRIPOS>ATOM
      1  C1        47.9950    4.8730  -38.0940 C.3   483  MAN483      0.1161
      2  C2        47.5950    4.3220  -36.5680 C.3   483  MAN483      0.1121
      3  C3        48.8280    4.1910  -35.5750 C.3   483  MAN483      0.1118
      4  C4        50.2620    3.9890  -36.2660 C.3   483  MAN483      0.1117
      5  C5        50.5140    4.7410  -37.8370 C.3   483  MAN483      0.1105
      6  C6        50.7690    3.4720  -38.8670 C.3   483  MAN483      0.0729
      7  O2        46.9780    2.9830  -36.7020 O.3   483  MAN483     -0.3865
      8  O3        48.6810    2.9570  -34.7380 O.3   483  MAN483     -0.3865
      9  O4        51.2190    4.4810  -35.2460 O.3   483  MAN483     -0.3865
     10  O5        49.2850    5.5330  -38.3010 O.3   483  MAN483     -0.3631
     11  O6        49.5850    2.6140  -39.1080 O.3   483  MAN483     -0.3924
     12  H1        47.9390    3.9990  -38.7210 H     483  MAN483      0.0650
     13  H2        46.8740    4.9510  -36.0430 H     483  MAN483      0.0647
     14  H3        48.8540    5.0880  -34.9320 H     483  MAN483      0.0647
     15  H4        50.4360    2.9080  -36.3860 H     483  MAN483      0.0647
     16  H5        51.3650    5.4290  -37.7580 H     483  MAN483      0.0646
     17  H61       51.5720    2.8490  -38.4440 H     483  MAN483      0.0584
     18  H62       51.1000    3.6830  -39.8790 H     483  MAN483      0.0584
     19  HO2       47.6060    2.4260  -37.1860 H     483  MAN483      0.2100
     20  HO3       47.8160    2.5790  -34.9530 H     483  MAN483      0.2100
     21  HO4       50.9940    4.0230  -34.4280 H     483  MAN483      0.2100
     22  HO6       49.5730    2.4330  -40.0630 H     483  MAN483      0.2095
@<TRIPOS>BOND
     1    22    11    1
     2    18     6    1
     3    11     6    1
     4     6    17    1
     5     6     5    1
     6    12     1    1
     7    10     1    1
     8    10     5    1
     9     1     2    1
    10     5    16    1
    11     5     4    1
    12    19     7    1
    13     7     2    1
    14     2    13    1
    15     2     3    1
    16    15     4    1
    17     4     3    1
    18     4     9    1
    19     3    14    1
    20     3     8    1
    21     9    21    1
    22    20     8    1
