@<TRIPOS>MOLECULE
1ivc_NAG_A_1.pdb
 27 27 0 0 0
SMALL
GASTEIGER

@<TRIPOS>ATOM
      1  C1        13.0730   21.3160  -10.7310 C.3   472  NAG472      0.1078
      2  C2        11.5960   21.4550  -11.1210 C.3   472  NAG472      0.0802
      3  C3        10.5110   21.1420  -10.0090 C.3   472  NAG472      0.1076
      4  C4        10.9070   19.8290   -9.1260 C.3   472  NAG472      0.1493
      5  C5        12.3640   19.9690   -8.6620 C.3   472  NAG472      0.1137
      6  C6        12.7330   18.6340   -8.0650 C.3   472  NAG472      0.0730
      7  C7        11.7030   23.5110  -12.4940 C.2   472  NAG472      0.2103
      8  C8        11.5700   25.0430  -12.3370 C.3   472  NAG472      0.0122
      9  N2        11.5290   22.8960  -11.3230 N.am  472  NAG472     -0.3075
     10  O3         9.2020   20.9130  -10.6890 O.3   472  NAG472     -0.3871
     11  O4        10.1130   19.4300   -7.9350 O.3   472  NAG472     -0.2256
     12  O5        13.2480   20.1770   -9.7960 O.3   472  NAG472     -0.3638
     13  O6        12.4970   17.6020   -9.0490 O.3   472  NAG472     -0.3924
     14  O7        11.9280   22.9070  -13.5680 O.2   472  NAG472     -0.2761
     15  H1        13.4680   22.1840  -10.1680 H     472  NAG472      0.0642
     16  H2        11.3550   20.8850  -12.0340 H     472  NAG472      0.0551
     17  H3        10.4700   21.9970   -9.3140 H     472  NAG472      0.0641
     18  H4        10.7940   18.9930   -9.8330 H     472  NAG472      0.0682
     19  H5        12.4840   20.7860   -7.9310 H     472  NAG472      0.0647
     20  H61       12.1860   18.4260   -7.1470 H     472  NAG472      0.0584
     21  H62       13.7990   18.6420   -7.7910 H     472  NAG472      0.0584
     22  H81       11.8230   25.3770  -11.3200 H     472  NAG472      0.0322
     23  H82       10.5560   25.3750  -12.5890 H     472  NAG472      0.0322
     24  H83       12.2640   25.5420  -13.0290 H     472  NAG472      0.0322
     25  HN2       11.3420   23.4490  -10.5380 H     472  NAG472      0.1491
     26  HO3        8.5310   21.0320  -10.0110 H     472  NAG472      0.2100
     27  HO6       12.9020   17.9180   -9.8670 H     472  NAG472      0.2095
@<TRIPOS>BOND
     1    14     7    2
     2    24     8    1
     3    23     8    1
     4     7     8    1
     5     7     9   am
     6     8    22    1
     7    16     2    1
     8     9     2    1
     9     9    25    1
    10     2     1    1
    11     2     3    1
    12     1    15    1
    13     1    12    1
    14    10    26    1
    15    10     3    1
    16     3    17    1
    17     3     4    1
    18    27    13    1
    19    18     4    1
    20    12     5    1
    21     4     5    1
    22     4    11    1
    23    13     6    1
    24     5     6    1
    25     5    19    1
    26     6    21    1
    27     6    20    1
