@<TRIPOS>MOLECULE
1ivd_MAN_A_1.pdb
 22 22 0 0 0
SMALL
GASTEIGER

@<TRIPOS>ATOM
      1  C1        48.4120    4.4420  -36.7900 C.3   483  MAN483      0.1161
      2  C2        48.4910    4.1830  -35.2320 C.3   483  MAN483      0.1121
      3  C3        49.8390    3.6280  -34.7460 C.3   483  MAN483      0.1118
      4  C4        50.5780    2.9600  -35.9250 C.3   483  MAN483      0.1117
      5  C5        50.9200    4.3260  -36.8580 C.3   483  MAN483      0.1105
      6  C6        51.7260    4.1520  -38.1530 C.3   483  MAN483      0.0729
      7  O2        47.5810    3.2490  -34.7750 O.3   483  MAN483     -0.3865
      8  O3        49.7470    2.6800  -33.7100 O.3   483  MAN483     -0.3865
      9  O4        51.6670    2.0920  -35.3900 O.3   483  MAN483     -0.3865
     10  O5        49.6350    5.0780  -37.2650 O.3   483  MAN483     -0.3631
     11  O6        51.7820    5.4780  -38.7190 O.3   483  MAN483     -0.3924
     12  H1        48.3460    3.5010  -37.3660 H     483  MAN483      0.0650
     13  H2        48.2980    5.1410  -34.7230 H     483  MAN483      0.0647
     14  H3        50.4410    4.4610  -34.3410 H     483  MAN483      0.0647
     15  H4        49.9020    2.2740  -36.4570 H     483  MAN483      0.0647
     16  H5        51.5070    5.0330  -36.2430 H     483  MAN483      0.0646
     17  H61       51.2530    3.3640  -38.7510 H     483  MAN483      0.0584
     18  H62       52.7340    3.7960  -37.8980 H     483  MAN483      0.0584
     19  HO2       47.9420    2.8430  -33.9760 H     483  MAN483      0.2100
     20  HO3       50.6050    2.2260  -33.6940 H     483  MAN483      0.2100
     21  HO4       52.0020    1.5220  -36.0890 H     483  MAN483      0.2100
     22  HO6       50.8810    5.8200  -38.7960 H     483  MAN483      0.2095
@<TRIPOS>BOND
     1    22    11    1
     2    17     6    1
     3    11     6    1
     4     6    18    1
     5     6     5    1
     6    12     1    1
     7    10     5    1
     8    10     1    1
     9     5    16    1
    10     5     4    1
    11     1     2    1
    12    15     4    1
    13    21     9    1
    14     4     9    1
    15     4     3    1
    16     2     7    1
    17     2     3    1
    18     2    13    1
    19     7    19    1
    20     3    14    1
    21     3     8    1
    22     8    20    1
