@<TRIPOS>MOLECULE
1ivd_NAG_A_1.pdb
 26 26 0 0 0
SMALL
GASTEIGER

@<TRIPOS>ATOM
      1  C1        65.1900   11.0270  -16.8520 C.3   474  NAG474      0.1079
      2  C2        66.3860   10.2960  -16.0840 C.3   474  NAG474      0.0802
      3  C3        67.7680   10.8080  -16.5070 C.3   474  NAG474      0.1076
      4  C4        67.8490   10.7970  -18.0200 C.3   474  NAG474      0.1495
      5  C5        66.6190   11.4230  -18.7730 C.3   474  NAG474      0.1170
      6  C6        66.7440   11.2420  -20.3340 C.3   474  NAG474      0.1116
      7  C7        65.6300    9.9400  -13.7350 C.2   474  NAG474      0.2103
      8  C8        66.0500   10.0040  -12.2650 C.3   474  NAG474      0.0122
      9  N2        66.5360   10.2930  -14.6360 N.am  474  NAG474     -0.3075
     10  O3        68.8900   10.0810  -15.9670 O.3   474  NAG474     -0.3871
     11  O4        68.9850   11.6410  -18.3560 O.3   474  NAG474     -0.2256
     12  O5        65.3780   10.7860  -18.2800 O.3   474  NAG474     -0.3637
     13  O6        65.6460   10.4220  -20.8950 O.3   474  NAG474     -0.2320
     14  O7        64.5020    9.5760  -14.0410 O.2   474  NAG474     -0.2761
     15  H1        65.1540   12.0880  -16.7340 H     474  NAG474      0.0642
     16  H2        66.3260    9.2340  -16.3790 H     474  NAG474      0.0551
     17  H3        67.8580   11.8530  -16.1830 H     474  NAG474      0.0641
     18  H4        67.9870    9.7610  -18.3770 H     474  NAG474      0.0682
     19  H5        66.5780   12.4930  -18.5610 H     474  NAG474      0.0648
     20  H61       67.7190   10.8310  -20.6270 H     474  NAG474      0.0618
     21  H62       66.6620   12.2220  -20.8220 H     474  NAG474      0.0618
     22  H81       66.0800   11.0430  -11.9080 H     474  NAG474      0.0322
     23  H82       67.0480    9.5630  -12.1260 H     474  NAG474      0.0322
     24  H83       65.3490    9.4390  -11.6350 H     474  NAG474      0.0322
     25  HN2       67.4260   10.5480  -14.3120 H     474  NAG474      0.1491
     26  HO3       69.6820   10.3930  -16.4340 H     474  NAG474      0.2100
@<TRIPOS>BOND
     1    13     6    1
     2    21     6    1
     3    20     6    1
     4     6     5    1
     5     5    19    1
     6     5    12    1
     7     5     4    1
     8    18     4    1
     9    11     4    1
    10    12     1    1
    11     4     3    1
    12     1    15    1
    13     1     2    1
    14     3    17    1
    15     3     2    1
    16     3    10    1
    17    26    10    1
    18    16     2    1
    19     2     9    1
    20     9    25    1
    21     9     7   am
    22    14     7    2
    23     7     8    1
    24     8    23    1
    25     8    22    1
    26     8    24    1
