@<TRIPOS>MOLECULE
1ivd_ST1_A_1.pdb
 19 19 0 0 0
SMALL
GASTEIGER

@<TRIPOS>ATOM
      1  C'        48.6830   23.1710  -20.3780 C.2   471  ST1471      0.3879
      2  O1'       49.3150   24.1360  -20.8860 O.co2 471  ST1471     -0.2406
      3  O2'       48.7680   22.8780  -19.1660 O.co2 471  ST1471     -0.2406
      4  C1        47.8290   22.4080  -21.1900 C.ar  471  ST1471      0.0845
      5  C2        47.2560   21.2230  -20.7190 C.ar  471  ST1471      0.0446
      6  C3        46.3710   20.4830  -21.5030 C.ar  471  ST1471      0.1488
      7  O3        45.7380   19.3780  -20.9710 O.3   471  ST1471     -0.5042
      8  C4        46.0570   20.9200  -22.7960 C.ar  471  ST1471      0.1072
      9  N4        45.1780   20.2130  -23.6090 N.am  471  ST1471     -0.2802
     10  C4'       45.7830   19.1450  -24.1360 C.2   471  ST1471      0.2267
     11  O4'       46.4270   19.2210  -25.1850 O.2   471  ST1471     -0.2748
     12  CM4       45.6550   17.7960  -23.4490 C.3   471  ST1471      0.0949
     13  C5        46.6230   22.0860  -23.2740 C.ar  471  ST1471      0.1594
     14  N5        46.3780   22.4620  -24.5540 N.pl3 471  ST1471      0.0590
     15  ON1       45.2750   22.9490  -24.6670 O.2   471  ST1471     -0.1261
     16  ON2       47.3170   22.2080  -25.2560 O.2   471  ST1471     -0.1261
     17  C6        47.5050   22.8310  -22.4770 C.ar  471  ST1471      0.0321
     18  HO3       45.0420   19.0810  -21.5570 H     471  ST1471      0.2922
     19  HN4       44.2670   20.4870  -23.8190 H     471  ST1471      0.1550
@<TRIPOS>BOND
     1    16    14    2
     2    11    10    2
     3    15    14    2
     4    14    13    1
     5    10     9   am
     6    10    12    1
     7    19     9    1
     8     9     8    1
     9    13     8   ar
    10    13    17   ar
    11     8     6   ar
    12    17     4   ar
    13    18     7    1
    14     6     7    1
    15     6     5   ar
    16     4     5   ar
    17     4     1    1
    18     2     1   ar
    19     1     3   ar
