@<TRIPOS>MOLECULE
1ive_MAN_B_1.pdb
 22 22 0 0 0
SMALL
GASTEIGER

@<TRIPOS>ATOM
      1  C1        54.6740    1.9550  -38.8540 C.3   483  MAN483      0.1161
      2  C2        53.6170    0.7260  -38.6960 C.3   483  MAN483      0.1121
      3  C3        53.6790    0.0950  -37.1460 C.3   483  MAN483      0.1118
      4  C4        55.0970   -0.4270  -36.8540 C.3   483  MAN483      0.1117
      5  C5        56.3070    0.3050  -37.6630 C.3   483  MAN483      0.1105
      6  C6        56.7480   -0.5320  -38.8630 C.3   483  MAN483      0.0729
      7  O2        53.8140   -0.2770  -39.6940 O.3   483  MAN483     -0.3865
      8  O3        52.7380   -0.9900  -36.8460 O.3   483  MAN483     -0.3865
      9  O4        55.3240   -0.1980  -35.4790 O.3   483  MAN483     -0.3865
     10  O5        55.9600    1.7360  -38.1620 O.3   483  MAN483     -0.3631
     11  O6        56.7910   -1.9130  -38.4330 O.3   483  MAN483     -0.3924
     12  H1        55.0260    2.0380  -39.8820 H     483  MAN483      0.0650
     13  H2        52.6080    1.1370  -38.8180 H     483  MAN483      0.0647
     14  H3        53.4700    0.9490  -36.4830 H     483  MAN483      0.0647
     15  H4        55.0750   -1.5130  -37.0170 H     483  MAN483      0.0647
     16  H5        57.1670    0.3910  -36.9800 H     483  MAN483      0.0646
     17  H61       57.7590   -0.1940  -39.1460 H     483  MAN483      0.0584
     18  H62       56.1300   -0.3700  -39.7530 H     483  MAN483      0.0584
     19  HO2       53.3310   -1.0720  -39.4270 H     483  MAN483      0.2100
     20  HO3       52.9590   -1.3470  -35.9750 H     483  MAN483      0.2100
     21  HO4       55.6260    0.7060  -35.3400 H     483  MAN483      0.2100
     22  HO6       56.9950   -2.4930  -39.1750 H     483  MAN483      0.2095
@<TRIPOS>BOND
     1    12     1    1
     2    18     6    1
     3     7    19    1
     4     7     2    1
     5    22    11    1
     6    17     6    1
     7     6    11    1
     8     6     5    1
     9     1     2    1
    10     1    10    1
    11    13     2    1
    12     2     3    1
    13    10     5    1
    14     5    16    1
    15     5     4    1
    16     3     4    1
    17     3     8    1
    18     3    14    1
    19    15     4    1
    20     4     9    1
    21     8    20    1
    22     9    21    1
