@<TRIPOS>MOLECULE
1ive_NAG_A_1.pdb
 27 27 0 0 0
SMALL
GASTEIGER

@<TRIPOS>ATOM
      1  C1        13.5770   21.6490  -10.8810 C.3   472  NAG472      0.1078
      2  C2        12.0790   21.7040  -11.0980 C.3   472  NAG472      0.0802
      3  C3        11.4400   21.7390   -9.6800 C.3   472  NAG472      0.1076
      4  C4        11.8010   20.2450   -9.0940 C.3   472  NAG472      0.1493
      5  C5        13.2560   20.0240   -8.8650 C.3   472  NAG472      0.1137
      6  C6        13.6240   18.4420   -8.7810 C.3   472  NAG472      0.0730
      7  C7        11.9140   23.2150  -13.1300 C.2   472  NAG472      0.2103
      8  C8        11.8960   24.7030  -13.3960 C.3   472  NAG472      0.0122
      9  N2        11.9270   22.9830  -11.8190 N.am  472  NAG472     -0.3075
     10  O3        10.0330   22.1200   -9.8020 O.3   472  NAG472     -0.3871
     11  O4        11.2230   19.8130   -7.8520 O.3   472  NAG472     -0.2256
     12  O5        14.0150   20.6060   -9.9850 O.3   472  NAG472     -0.3638
     13  O6        12.5060   17.5600   -8.5430 O.3   472  NAG472     -0.3924
     14  O7        11.9030   22.3200  -13.9790 O.2   472  NAG472     -0.2761
     15  H1        13.9170   22.5900  -10.4060 H     472  NAG472      0.0642
     16  H2        11.7510   20.8380  -11.6930 H     472  NAG472      0.0551
     17  H3        11.9360   22.4900   -9.0420 H     472  NAG472      0.0641
     18  H4        11.4820   19.5020   -9.8420 H     472  NAG472      0.0682
     19  H5        13.5650   20.5310   -7.9340 H     472  NAG472      0.0647
     20  H61       14.3660   18.3030   -7.9780 H     472  NAG472      0.0584
     21  H62       14.1290   18.1480   -9.7160 H     472  NAG472      0.0584
     22  H81       11.6200   24.8810  -14.4440 H     472  NAG472      0.0322
     23  H82       12.8980   25.1200  -13.2320 H     472  NAG472      0.0322
     24  H83       11.1660   25.2170  -12.7570 H     472  NAG472      0.0322
     25  HN2       11.8320   23.8050  -11.2960 H     472  NAG472      0.1491
     26  HO3        9.9220   22.8750  -10.4020 H     472  NAG472      0.2100
     27  HO6       11.9680   17.9900   -7.8620 H     472  NAG472      0.2095
@<TRIPOS>BOND
     1    22     8    1
     2    14     7    2
     3     8    23    1
     4     8     7    1
     5     8    24    1
     6     7     9   am
     7     9    25    1
     8     9     2    1
     9    16     2    1
    10     2     1    1
    11     2     3    1
    12     1    15    1
    13     1    12    1
    14    26    10    1
    15    12     5    1
    16    18     4    1
    17    10     3    1
    18    21     6    1
    19     3     4    1
    20     3    17    1
    21     4     5    1
    22     4    11    1
    23     5     6    1
    24     5    19    1
    25     6    13    1
    26     6    20    1
    27    13    27    1
