@<TRIPOS>MOLECULE
1ive_ST3_A_1.pdb
 17 17 0 0 0
SMALL
GASTEIGER

@<TRIPOS>ATOM
      1  C'        49.9690   23.3040  -20.5790 C.2   471  ST3471      0.3878
      2  O1'       49.6200   24.5050  -20.4940 O.co2 471  ST3471     -0.2406
      3  O2'       51.0820   22.8760  -20.2030 O.co2 471  ST3471     -0.2406
      4  C1        49.0960   22.4080  -21.1930 C.ar  471  ST3471      0.0811
      5  C2        48.9150   22.4580  -22.5620 C.ar  471  ST3471      0.0219
      6  C3        48.0130   21.6420  -23.1890 C.ar  471  ST3471      0.0554
      7  N3        47.8740   21.7230  -24.5530 N.pl3 471  ST3471     -0.3560
      8  C4        47.2480   20.7310  -22.4430 C.ar  471  ST3471      0.0634
      9  N4        46.3420   19.8720  -23.0760 N.am  471  ST3471     -0.2830
     10  C4'       46.9950   18.9230  -23.7570 C.2   471  ST3471      0.2266
     11  O4'       47.4720   19.1400  -24.8740 O.2   471  ST3471     -0.2748
     12  CM4       47.1590   17.5310  -23.1480 C.3   471  ST3471      0.0949
     13  C5        47.4300   20.6720  -21.0740 C.ar  471  ST3471      0.0161
     14  C6        48.3480   21.4960  -20.4560 C.ar  471  ST3471      0.0079
     15 HN31       48.4220   22.3740  -25.0340 H     471  ST3471      0.1424
     16 HN32       47.2330   21.1200  -24.9860 H     471  ST3471      0.1424
     17  HN4       45.3750   19.9840  -23.0760 H     471  ST3471      0.1549
@<TRIPOS>BOND
     1    15     7    1
     2    16     7    1
     3    11    10    2
     4     7     6    1
     5    10    12    1
     6    10     9   am
     7     6     5   ar
     8     6     8   ar
     9     9    17    1
    10     9     8    1
    11     5     4   ar
    12     8    13   ar
    13     4     1    1
    14     4    14   ar
    15    13    14   ar
    16     1     2   ar
    17     1     3   ar
