@<TRIPOS>MOLECULE
1ivf_NAG_A_1.pdb
 27 27 0 0 0
SMALL
GASTEIGER

@<TRIPOS>ATOM
      1  C1        12.6650   21.2590  -17.0660 C.3   484  NAG484      0.1078
      2  C2        12.2230   22.4480  -17.9150 C.3   484  NAG484      0.0802
      3  C3        11.1310   23.1760  -17.2340 C.3   484  NAG484      0.1076
      4  C4         9.9610   22.1800  -17.1950 C.3   484  NAG484      0.1493
      5  C5        10.3580   20.9720  -16.2920 C.3   484  NAG484      0.1137
      6  C6         9.3130   19.8300  -16.2090 C.3   484  NAG484      0.0730
      7  C7        13.7820   23.5840  -19.3410 C.2   484  NAG484      0.2103
      8  C8        14.9200   24.5960  -19.3940 C.3   484  NAG484      0.0122
      9  N2        13.2990   23.3820  -18.1250 N.am  484  NAG484     -0.3075
     10  O3        10.8760   24.3790  -17.9490 O.3   484  NAG484     -0.3871
     11  O4         8.8480   22.9060  -16.6890 O.3   484  NAG484     -0.2256
     12  O5        11.5530   20.3940  -16.8080 O.3   484  NAG484     -0.3638
     13  O6         8.5570   19.8620  -15.0200 O.3   484  NAG484     -0.3924
     14  O7        13.3520   22.9940  -20.3310 O.2   484  NAG484     -0.2761
     15  H1        13.0900   21.5790  -16.0970 H     484  NAG484      0.0642
     16  H2        11.8430   22.0360  -18.8690 H     484  NAG484      0.0551
     17  H3        11.4120   23.4360  -16.1990 H     484  NAG484      0.0641
     18  H4         9.7420   21.8150  -18.2090 H     484  NAG484      0.0682
     19  H5        10.5940   21.3200  -15.2720 H     484  NAG484      0.0647
     20  H61        8.6550   19.8280  -17.0850 H     484  NAG484      0.0584
     21  H62        9.8230   18.8560  -16.2370 H     484  NAG484      0.0584
     22  H81       15.3670   24.6080  -20.3970 H     484  NAG484      0.0322
     23  H82       15.7050   24.3300  -18.6710 H     484  NAG484      0.0322
     24  H83       14.5140   25.5930  -19.1760 H     484  NAG484      0.0322
     25  HN2       13.6360   23.8960  -17.3620 H     484  NAG484      0.1491
     26  HO3        9.9410   24.5560  -17.8240 H     484  NAG484      0.2100
     27  HO6        8.2840   20.7660  -14.7840 H     484  NAG484      0.2095
@<TRIPOS>BOND
     1    22     8    1
     2    14     7    2
     3     8     7    1
     4     8    24    1
     5     8    23    1
     6     7     9   am
     7    16     2    1
     8    18     4    1
     9     9     2    1
    10     9    25    1
    11    10    26    1
    12    10     3    1
    13     2     3    1
    14     2     1    1
    15     3     4    1
    16     3    17    1
    17     4    11    1
    18     4     5    1
    19    20     6    1
    20     1    12    1
    21     1    15    1
    22    12     5    1
    23     5     6    1
    24     5    19    1
    25    21     6    1
    26     6    13    1
    27    13    27    1
