@<TRIPOS>MOLECULE
1ivf_FUL_A_1.pdb
 21 21 0 0 0
SMALL
GASTEIGER

@<TRIPOS>ATOM
      1  C1        64.7100    8.6470  -21.1130 C.3   477  FUL477      0.1160
      2  C2        63.7860    7.5800  -20.4900 C.3   477  FUL477      0.1121
      3  O2        62.6410    8.0690  -19.7860 O.3   477  FUL477     -0.3865
      4  C3        63.3510    6.6390  -21.6250 C.3   477  FUL477      0.1117
      5  O3        62.5900    5.6060  -20.9920 O.3   477  FUL477     -0.3865
      6  C4        64.6160    6.0030  -22.4140 C.3   477  FUL477      0.1093
      7  O4        65.2160    4.9240  -21.6800 O.3   477  FUL477     -0.3866
      8  C5        65.7230    7.1130  -22.7340 C.3   477  FUL477      0.0848
      9  C6        67.1010    6.5410  -23.0640 C.3   477  FUL477     -0.0361
     10  O5        65.9270    7.9750  -21.6060 O.3   477  FUL477     -0.3657
     11  H1        64.2390    9.2130  -21.9350 H     477  FUL477      0.0650
     12  H2        64.3920    6.9960  -19.7800 H     477  FUL477      0.0647
     13  HO2       62.1010    7.2960  -19.5870 H     477  FUL477      0.2100
     14  H3        62.7150    7.1950  -22.3300 H     477  FUL477      0.0647
     15  HO3       63.2120    4.8720  -20.8710 H     477  FUL477      0.2100
     16  H4        64.2550    5.6050  -23.3770 H     477  FUL477      0.0646
     17  HO4       66.1600    4.9070  -21.8640 H     477  FUL477      0.2100
     18  H5        65.3810    7.7290  -23.5830 H     477  FUL477      0.0620
     19  H61       67.0130    5.7770  -23.8540 H     477  FUL477      0.0255
     20  H62       67.7690    7.3330  -23.4400 H     477  FUL477      0.0255
     21  H63       67.5860    6.0840  -22.1880 H     477  FUL477      0.0255
@<TRIPOS>BOND
     1    19     9    1
     2    18     8    1
     3    20     9    1
     4    16     6    1
     5     9     8    1
     6     9    21    1
     7     8     6    1
     8     8    10    1
     9     6     7    1
    10     6     4    1
    11    14     4    1
    12    11     1    1
    13    17     7    1
    14     4     5    1
    15     4     2    1
    16    10     1    1
    17     1     2    1
    18     5    15    1
    19     2     3    1
    20     2    12    1
    21     3    13    1
