@<TRIPOS>MOLECULE
1ivf_BMA_B_1.pdb
 21 21 0 0 0
SMALL
GASTEIGER

@<TRIPOS>ATOM
      1  C1        40.1870   -0.1250  -44.5580 C.3   480  BMA480      0.1162
      2  C2        41.0660   -1.3940  -44.3870 C.3   480  BMA480      0.1154
      3  C3        41.6120   -1.8050  -45.7910 C.3   480  BMA480      0.1501
      4  C4        40.3820   -2.0560  -46.6250 C.3   480  BMA480      0.1150
      5  C5        39.5650   -0.7500  -46.7380 C.3   480  BMA480      0.1106
      6  C6        38.3940   -0.6210  -47.6190 C.3   480  BMA480      0.0729
      7  O2        40.1300   -2.2860  -43.8810 O.3   480  BMA480     -0.3864
      8  O3        42.5820   -2.8380  -46.1680 O.3   480  BMA480     -0.2256
      9  O4        40.8530   -2.5010  -47.8520 O.3   480  BMA480     -0.3864
     10  O5        39.1180   -0.4050  -45.4270 O.3   480  BMA480     -0.3631
     11  O6        37.7240    0.5460  -47.1770 O.3   480  BMA480     -0.3924
     12  H1        40.7070    0.7050  -45.0430 H     480  BMA480      0.0650
     13  H2        41.8700   -1.1880  -43.6630 H     480  BMA480      0.0648
     14  H3        42.1250   -0.9070  -46.1750 H     480  BMA480      0.0682
     15  H4        39.7560   -2.8590  -46.1930 H     480  BMA480      0.0648
     16  H5        40.2350    0.0460  -47.1180 H     480  BMA480      0.0646
     17  H61       37.7550   -1.5110  -47.5210 H     480  BMA480      0.0584
     18  H62       38.6860   -0.5600  -48.6830 H     480  BMA480      0.0584
     19  HO2       39.4640   -1.7620  -43.4120 H     480  BMA480      0.2100
     20  HO4       41.4280   -3.2560  -47.6660 H     480  BMA480      0.2100
     21  HO6       37.5070    0.4320  -46.2430 H     480  BMA480      0.2095
@<TRIPOS>BOND
     1    18     6    1
     2     9    20    1
     3     9     4    1
     4     6    17    1
     5     6    11    1
     6     6     5    1
     7    11    21    1
     8    16     5    1
     9     5     4    1
    10     5    10    1
    11     4    15    1
    12     4     3    1
    13    14     3    1
    14     8     3    1
    15     3     2    1
    16    10     1    1
    17    12     1    1
    18     1     2    1
    19     2     7    1
    20     2    13    1
    21     7    19    1
