@<TRIPOS>MOLECULE
1ivf_DAN_A_1.pdb
 36 36 0 0 0
SMALL
GASTEIGER

@<TRIPOS>ATOM
      1  C1        49.2270   23.2090  -20.0740 C.2   471  DAN471      0.4202
      2  C2        48.3810   22.4370  -20.8090 C.2   471  DAN471      0.2076
      3  C3        47.8250   21.2310  -20.3720 C.2   471  DAN471     -0.0049
      4  C4        46.6730   20.4840  -21.0720 C.3   471  DAN471      0.0990
      5  C5        46.6830   20.7660  -22.5140 C.3   471  DAN471      0.0920
      6  C6        46.7210   22.3540  -22.6770 C.3   471  DAN471      0.1495
      7  C7        46.7660   22.5520  -24.2470 C.3   471  DAN471      0.1217
      8  C8        46.4100   23.9590  -24.6470 C.3   471  DAN471      0.1075
      9  C9        46.7520   24.3610  -26.1450 C.3   471  DAN471      0.0727
     10  C10       45.6190   19.2400  -24.1300 C.2   471  DAN471      0.2103
     11  C11       44.3720   18.5740  -24.6780 C.3   471  DAN471      0.0122
     12  N5        45.5180   20.0870  -23.1060 N.am  471  DAN471     -0.3062
     13  O1A       50.4650   23.0490  -20.0490 O.co2 471  DAN471     -0.2372
     14  O1B       48.6440   24.0470  -19.3610 O.co2 471  DAN471     -0.2372
     15  O4        46.7100   19.0720  -20.9470 O.3   471  DAN471     -0.3857
     16  O6        47.9830   22.9080  -22.0760 O.2   471  DAN471     -0.4774
     17  O7        48.0430   22.2500  -24.6570 O.3   471  DAN471     -0.3854
     18  O8        45.0120   24.0490  -24.5280 O.3   471  DAN471     -0.3868
     19  O9        45.5930   24.2700  -27.0180 O.3   471  DAN471     -0.3924
     20  O10       46.6900   18.9600  -24.6780 O.2   471  DAN471     -0.2761
     21  H3        48.2810   20.7960  -19.4710 H     471  DAN471      0.0637
     22  H4        45.7330   20.8470  -20.6200 H     471  DAN471      0.0659
     23  H5        47.6280   20.3890  -22.9380 H     471  DAN471      0.0565
     24  H6        45.8280   22.8240  -22.2390 H     471  DAN471      0.0780
     25  H7        46.0580   21.8930  -24.7720 H     471  DAN471      0.0658
     26  H8        46.9060   24.6590  -23.9500 H     471  DAN471      0.0643
     27  H91       47.5520   23.7180  -26.5320 H     471  DAN471      0.0584
     28  H92       47.1740   25.3710  -26.1520 H     471  DAN471      0.0584
     29 H111       43.4650   18.9590  -24.1960 H     471  DAN471      0.0322
     30 H112       44.4360   17.4910  -24.4920 H     471  DAN471      0.0322
     31 H113       44.3190   18.7210  -25.7630 H     471  DAN471      0.0322
     32  HN5       44.6610   20.2550  -22.7030 H     471  DAN471      0.1492
     33  HO4       46.3310   18.6250  -21.7180 H     471  DAN471      0.2103
     34  HO7       48.6020   22.4070  -23.8790 H     471  DAN471      0.2101
     35  HO8       44.7410   24.3840  -25.3870 H     471  DAN471      0.2100
     36  HO9       45.7520   23.5420  -27.6310 H     471  DAN471      0.2095
@<TRIPOS>BOND
     1    36    19    1
     2    19     9    1
     3    27     9    1
     4    28     9    1
     5     9     8    1
     6    31    11    1
     7    35    18    1
     8    25     7    1
     9    11    30    1
    10    11    29    1
    11    11    10    1
    12    20    10    2
    13    17     7    1
    14    17    34    1
    15     8    18    1
    16     8     7    1
    17     8    26    1
    18     7     6    1
    19    10    12   am
    20    12    32    1
    21    12     5    1
    22    23     5    1
    23     6     5    1
    24     6    24    1
    25     6    16    1
    26     5     4    1
    27    16     2    1
    28    33    15    1
    29     4    15    1
    30     4    22    1
    31     4     3    1
    32     2     3    2
    33     2     1    1
    34     3    21    1
    35     1    13   ar
    36     1    14   ar
