@<TRIPOS>MOLECULE
1ivg_NAG_A_1.pdb
 27 27 0 0 0
SMALL
GASTEIGER

@<TRIPOS>ATOM
      1  C1        13.4840   21.7560  -10.5740 C.3   472  NAG472      0.1078
      2  C2        12.1610   22.2420  -10.9820 C.3   472  NAG472      0.0802
      3  C3        11.1860   22.3910   -9.8100 C.3   472  NAG472      0.1076
      4  C4        11.0420   21.0210   -9.0830 C.3   472  NAG472      0.1493
      5  C5        12.5180   20.6980   -8.6580 C.3   472  NAG472      0.1137
      6  C6        13.0080   19.5690   -7.7750 C.3   472  NAG472      0.0730
      7  C7        11.9190   23.7330  -12.8620 C.2   472  NAG472      0.2103
      8  C8        12.0590   25.0880  -13.4860 C.3   472  NAG472      0.0122
      9  N2        12.2980   23.5520  -11.6000 N.am  472  NAG472     -0.3075
     10  O3         9.9280   22.8600  -10.3280 O.3   472  NAG472     -0.3871
     11  O4        10.0450   21.1130   -7.9940 O.3   472  NAG472     -0.2256
     12  O5        13.2720   20.5570   -9.8540 O.3   472  NAG472     -0.3638
     13  O6        12.6140   18.3520   -8.3590 O.3   472  NAG472     -0.3924
     14  O7        11.4540   22.8270  -13.5570 O.2   472  NAG472     -0.2761
     15  H1        14.0480   22.4570   -9.9300 H     472  NAG472      0.0642
     16  H2        11.7200   21.4820  -11.6540 H     472  NAG472      0.0551
     17  H3        11.5540   23.1460   -9.0970 H     472  NAG472      0.0641
     18  H4        10.7540   20.2490   -9.8150 H     472  NAG472      0.0682
     19  H5        12.8900   21.5800   -8.1040 H     472  NAG472      0.0647
     20  H61       12.7580   19.7000   -6.7130 H     472  NAG472      0.0584
     21  H62       14.1110   19.5740   -7.7610 H     472  NAG472      0.0584
     22  H81       13.1100   25.3650  -13.5360 H     472  NAG472      0.0322
     23  H82       11.5370   25.8360  -12.8720 H     472  NAG472      0.0322
     24  H83       11.6060   25.1040  -14.4880 H     472  NAG472      0.0322
     25  HN2       12.6580   24.3020  -11.0890 H     472  NAG472      0.1491
     26  HO3        9.2620   22.6500   -9.6710 H     472  NAG472      0.2100
     27  HO6       11.6800   18.2390   -8.1740 H     472  NAG472      0.2095
@<TRIPOS>BOND
     1    24     8    1
     2    14     7    2
     3    22     8    1
     4     8    23    1
     5     8     7    1
     6     7     9   am
     7    16     2    1
     8     9    25    1
     9     9     2    1
    10     2     1    1
    11     2     3    1
    12     1    15    1
    13     1    12    1
    14    10     3    1
    15    10    26    1
    16    12     5    1
    17    18     4    1
    18     3    17    1
    19     3     4    1
    20     4     5    1
    21     4    11    1
    22     5    19    1
    23     5     6    1
    24    13    27    1
    25    13     6    1
    26     6    21    1
    27     6    20    1
