@<TRIPOS>MOLECULE
1ivg_FUL_A_1.pdb
 21 21 0 0 0
SMALL
GASTEIGER

@<TRIPOS>ATOM
      1  C1        66.4660    8.3830  -20.8110 C.3   477  FUL477      0.1160
      2  C2        65.2840    7.6390  -20.2200 C.3   477  FUL477      0.1121
      3  O2        64.2850    8.5230  -19.7490 O.3   477  FUL477     -0.3865
      4  C3        64.6400    6.7290  -21.2630 C.3   477  FUL477      0.1117
      5  O3        63.6620    5.9460  -20.5630 O.3   477  FUL477     -0.3865
      6  C4        65.7440    5.8520  -21.9540 C.3   477  FUL477      0.1093
      7  O4        66.2040    4.9000  -21.0470 O.3   477  FUL477     -0.3866
      8  C5        66.9870    6.6790  -22.4210 C.3   477  FUL477      0.0848
      9  C6        68.1550    5.8700  -22.9500 C.3   477  FUL477     -0.0361
     10  O5        67.4900    7.4540  -21.3120 O.3   477  FUL477     -0.3657
     11  H1        66.1580    8.9990  -21.6780 H     477  FUL477      0.0650
     12  H2        65.6510    7.0240  -19.3820 H     477  FUL477      0.0647
     13  HO2       63.4810    7.9860  -19.6910 H     477  FUL477      0.2100
     14  H3        64.1480    7.3510  -22.0290 H     477  FUL477      0.0647
     15  HO3       64.1200    5.1340  -20.2990 H     477  FUL477      0.2100
     16  H4        65.2900    5.3440  -22.8210 H     477  FUL477      0.0646
     17  HO4       66.9570    5.2990  -20.5890 H     477  FUL477      0.2100
     18  H5        66.6690    7.3600  -23.2310 H     477  FUL477      0.0620
     19  H61       67.8330    5.2590  -23.8070 H     477  FUL477      0.0255
     20  H62       68.9720    6.5280  -23.2800 H     477  FUL477      0.0255
     21  H63       68.5450    5.1880  -22.1790 H     477  FUL477      0.0255
@<TRIPOS>BOND
     1    19     9    1
     2    20     9    1
     3    18     8    1
     4     9     8    1
     5     9    21    1
     6    16     6    1
     7     8     6    1
     8     8    10    1
     9    14     4    1
    10     6     4    1
    11     6     7    1
    12    11     1    1
    13    10     1    1
    14     4     5    1
    15     4     2    1
    16     7    17    1
    17     1     2    1
    18     5    15    1
    19     2     3    1
    20     2    12    1
    21     3    13    1
