@<TRIPOS>MOLECULE
1ivg_MAN_B_1.pdb
 21 21 0 0 0
SMALL
GASTEIGER

@<TRIPOS>ATOM
      1  C1        41.7960   -1.8700  -43.1280 C.3   481  MAN481      0.1195
      2  C2        41.6770   -2.4110  -41.6450 C.3   481  MAN481      0.1504
      3  C3        40.9420   -3.7640  -41.8250 C.3   481  MAN481      0.1151
      4  C4        41.7580   -4.7740  -42.6380 C.3   481  MAN481      0.1118
      5  C5        41.9210   -4.2660  -44.0930 C.3   481  MAN481      0.1105
      6  C6        40.9700   -5.1410  -44.9820 C.3   481  MAN481      0.0729
      7  O2        40.9850   -1.4180  -40.7540 O.3   481  MAN481     -0.2256
      8  O3        39.7180   -3.5630  -42.5170 O.3   481  MAN481     -0.3864
      9  O4        43.0280   -5.0430  -42.0850 O.3   481  MAN481     -0.3865
     10  O5        41.5440   -2.8090  -44.2380 O.3   481  MAN481     -0.3630
     11  O6        39.7090   -5.4400  -44.3770 O.3   481  MAN481     -0.3924
     12  H1        40.9130   -1.2230  -43.3000 H     481  MAN481      0.0651
     13  H2        42.6820   -2.5830  -41.2310 H     481  MAN481      0.0682
     14  H3        40.7710   -4.2080  -40.8320 H     481  MAN481      0.0648
     15  H4        41.2330   -5.7430  -42.5880 H     481  MAN481      0.0647
     16  H5        42.9550   -4.3530  -44.4680 H     481  MAN481      0.0646
     17  H61       41.4890   -6.0800  -45.2430 H     481  MAN481      0.0584
     18  H62       40.8090   -4.6200  -45.9390 H     481  MAN481      0.0584
     19  HO3       39.8550   -3.7310  -43.4600 H     481  MAN481      0.2100
     20  HO4       43.4640   -5.7130  -42.6230 H     481  MAN481      0.2100
     21  HO6       39.1620   -5.9100  -45.0170 H     481  MAN481      0.2095
@<TRIPOS>BOND
     1    18     6    1
     2    17     6    1
     3    21    11    1
     4     6    11    1
     5     6     5    1
     6    16     5    1
     7    10     5    1
     8    10     1    1
     9     5     4    1
    10    19     8    1
    11    12     1    1
    12     1     2    1
    13     4    15    1
    14     4     9    1
    15     4     3    1
    16    20     9    1
    17     8     3    1
    18     3     2    1
    19     3    14    1
    20     2    13    1
    21     2     7    1
