@<TRIPOS>MOLECULE
1ivh_COS_A_1.pdb
 49 51 0 0 0
SMALL
GASTEIGER

@<TRIPOS>ATOM
      1  N1A       36.3790   43.9130    5.9420 N.2   400  COS400      0.0021
      2  C2A       37.3950   43.3140    6.5830 C.3   400  COS400      0.5254
      3  N3A       38.3020   42.4580    6.1030 N.2   400  COS400     -0.0055
      4  C4A       38.0830   42.2190    4.7910 C.2   400  COS400      0.3518
      5  C5A       37.0840   42.7530    4.0010 C.2   400  COS400      0.2526
      6  C6A       36.1840   43.6590    4.6170 C.2   400  COS400      0.4393
      7  N6A       35.2360   44.2780    3.9140 N.pl3 400  COS400      0.2180
      8  N7A       37.1840   42.2760    2.6720 N.2   400  COS400     -0.2095
      9  C8A       38.2200   41.4880    2.7170 C.3   400  COS400      0.3377
     10  N9A       38.8230   41.4100    3.9720 N.pl3 400  COS400     -0.1439
     11  C1B       40.0760   40.7380    4.3090 C.3   400  COS400      0.3185
     12  C2B       39.9190   39.2880    3.8350 C.3   400  COS400      0.2543
     13  O2B       39.1660   38.6000    4.8330 O.3   400  COS400     -0.2131
     14  C3B       41.4110   38.8880    3.7820 C.3   400  COS400      0.1928
     15  O3B       41.9570   38.8330    5.1360 O.3   400  COS400     -0.2673
     16  P3B       42.2830   37.3450    5.8360 P.3   400  COS400      0.5327
     17  O7A       43.1230   36.6870    4.7880 O.2   400  COS400     -0.2224
     18  O8A       40.9520   36.7000    6.0830 O.3   400  COS400     -0.1145
     19  O9A       42.9700   37.7720    7.1030 O.3   400  COS400     -0.1145
     20  C4B       42.0000   40.1210    3.0450 C.3   400  COS400      0.1795
     21  O4B       41.1940   41.2450    3.4930 O.3   400  COS400     -0.3136
     22  C5B       41.8900   39.9730    1.5230 C.3   400  COS400      0.1812
     23  O5B       40.5660   39.9650    1.0080 O.3   400  COS400     -0.3112
     24  P1A       40.1280   39.2810   -0.3970 P.3   400  COS400      0.2189
     25  O1A       40.0880   37.7910   -0.1550 O.3   400  COS400     -0.4371
     26  O2A       38.8990   40.0140   -0.8440 O.2   400  COS400     -0.5170
     27  O3A       41.3920   39.6800   -1.3870 O.3   400  COS400     -0.2703
     28  P2A       41.5520   40.0970   -2.9550 P.3   400  COS400      0.2188
     29  O4A       43.0000   40.4970   -3.2170 O.3   400  COS400     -0.4371
     30  O5A       40.8590   39.1480   -3.9070 O.2   400  COS400     -0.5170
     31  O6A       40.6870   41.4800   -2.8700 O.3   400  COS400     -0.3138
     32  CBP       39.2420   42.9410   -4.2110 C.3   400  COS400      0.0645
     33  CCP       39.3870   41.6160   -3.4830 C.3   400  COS400      0.1519
     34  CDP       39.7030   42.7250   -5.6490 C.3   400  COS400      0.0056
     35  CEP       37.7260   43.1650   -4.2170 C.3   400  COS400      0.0056
     36  CAP       40.0630   44.0710   -3.4210 C.3   400  COS400      0.2312
     37  OAP       41.4830   44.0040   -3.6860 O.3   400  COS400     -0.2131
     38  C9P       39.5970   45.4960   -3.7330 C.2   400  COS400      0.2719
     39  O9P       38.6780   46.0100   -3.0910 O.2   400  COS400     -0.2706
     40  N8P       40.2610   46.1950   -4.7260 N.am  400  COS400     -0.2028
     41  C7P       39.9130   47.5480   -5.1120 C.3   400  COS400      0.1248
     42  C6P       40.8510   48.5630   -4.4770 C.3   400  COS400      0.1102
     43  C5P       40.2440   49.9550   -4.3910 C.2   400  COS400      0.2432
     44  O5P       39.0150   50.1030   -4.3740 O.2   400  COS400     -0.2733
     45  N4P       41.0620   51.0870   -4.3200 N.am  400  COS400     -0.2044
     46  C3P       40.5180   52.4130   -4.1940 C.3   400  COS400      0.1277
     47  C2P       41.5650   53.3990   -3.7290 C.3   400  COS400      0.0929
     48  S1P       40.9610   55.1170   -3.7490 S.3   400  COS400     -0.0689
     49  S'P       40.5410   55.4680   -5.7030 S.3   400  COS400     -0.0122
@<TRIPOS>BOND
     1    49    48    1
     2    34    32    1
     3    41    40    1
     4    41    42    1
     5    40    38   am
     6    42    43    1
     7    43    44    2
     8    43    45   am
     9    45    46    1
    10    35    32    1
    11    32    33    1
    12    32    36    1
    13    46    47    1
    14    30    28    2
    15    48    47    1
    16    38    36    1
    17    38    39    2
    18    37    36    1
    19    33    31    1
    20    29    28    1
    21    28    31    1
    22    28    27    1
    23    27    24    1
    24    26    24    2
    25    24    25    1
    26    24    23    1
    27    23    22    1
    28    22    20    1
    29     8     9    1
    30     8     5    2
    31     9    10    1
    32    20    21    1
    33    20    14    1
    34    21    11    1
    35    14    12    1
    36    14    15    1
    37    12    11    1
    38    12    13    1
    39     7     6    1
    40    10    11    1
    41    10     4    1
    42     5     6    1
    43     5     4    1
    44     6     1    2
    45    17    16    2
    46     4     3    2
    47    15    16    1
    48    16    18    1
    49    16    19    1
    50     1     2    1
    51     3     2    1
