@<TRIPOS>MOLECULE
1ivj_HEM_A_1.pdb
 43 50 0 0 0
SMALL
GASTEIGER

@<TRIPOS>ATOM
      1  CHA      -88.7320   -8.7110  -87.0480 C.2   300  HEM300      0.0000
      2  CHB      -88.7450  -11.6800  -90.8510 C.2   300  HEM300      0.0000
      3  CHC      -91.4330  -14.8100  -88.3330 C.2   300  HEM300      0.0000
      4  CHD      -92.0380  -11.5280  -84.8990 C.2   300  HEM300      0.0000
      5  C1A      -88.4460   -9.2500  -88.3010 C.ar  300  HEM300      0.0000
      6  C2A      -87.5780   -8.6450  -89.2910 C.ar  300  HEM300      0.0000
      7  C3A      -87.6050   -9.4640  -90.3820 C.ar  300  HEM300      0.0000
      8  C4A      -88.4700  -10.5980  -90.0250 C.ar  300  HEM300      0.0000
      9  CMA      -86.9130   -9.2930  -91.7070 C.3   300  HEM300      0.0000
     10  CAA      -86.7910   -7.3350  -89.1150 C.2   300  HEM300      0.0000
     11  CBA      -87.6410   -6.0250  -89.2440 C.2   300  HEM300      0.0000
     12  CGA      -87.0480   -4.8210  -88.7470 C.2   300  HEM300      0.0000
     13  O1A      -87.8310   -3.7850  -88.7070 O.co2 300  HEM300      0.0000
     14  O2A      -85.8610   -4.7230  -88.3620 O.co2 300  HEM300      0.0000
     15  C1B      -89.5920  -12.7490  -90.5320 C.2   300  HEM300      0.0000
     16  C2B      -89.9680  -13.8020  -91.4660 C.2   300  HEM300      0.0000
     17  C3B      -90.6440  -14.7300  -90.7420 C.2   300  HEM300      0.0000
     18  C4B      -90.7840  -14.1780  -89.3930 C.2   300  HEM300      0.0000
     19  CMB      -89.6470  -13.7890  -92.9460 C.3   300  HEM300      0.0000
     20  CAB      -91.1710  -16.0700  -91.1880 C.3   300  HEM300      0.0000
     21  CBB      -92.6820  -16.0550  -91.4930 C.3   300  HEM300      0.0000
     22  C1C      -91.8590  -14.2010  -87.1880 C.ar  300  HEM300      0.0000
     23  C2C      -92.7740  -14.7860  -86.2210 C.ar  300  HEM300      0.0000
     24  C3C      -92.8950  -13.8700  -85.2360 C.ar  300  HEM300      0.0000
     25  C4C      -92.1260  -12.7090  -85.6210 C.ar  300  HEM300      0.0000
     26  CMC      -93.4030  -16.1680  -86.3580 C.3   300  HEM300      0.0000
     27  CAC      -93.6530  -14.0200  -83.9050 C.3   300  HEM300      0.0000
     28  CBC      -95.1960  -14.0920  -84.0990 C.3   300  HEM300      0.0000
     29  C1D      -91.1170  -10.4920  -85.1310 C.2   300  HEM300      0.0000
     30  C2D      -90.8910   -9.3700  -84.2180 C.2   300  HEM300      0.0000
     31  C3D      -90.0230   -8.5540  -84.8600 C.2   300  HEM300      0.0000
     32  C4D      -89.6490   -9.2220  -86.1190 C.2   300  HEM300      0.0000
     33  CMD      -91.5490   -9.2430  -82.8730 C.3   300  HEM300      0.0000
     34  CAD      -89.4730   -7.1970  -84.4650 C.3   300  HEM300      0.0000
     35  CBD      -88.0660   -7.3090  -83.7220 C.3   300  HEM300      0.0000
     36  CGD      -87.5750   -6.0600  -83.2880 C.2   300  HEM300      0.0000
     37  O1D      -87.3980   -5.8530  -82.0500 O.co2 300  HEM300      0.0000
     38  O2D      -87.3050   -5.1460  -84.1060 O.co2 300  HEM300      0.0000
     39  NA       -88.9740  -10.4430  -88.7490 N.ar  300  HEM300      0.0000
     40  NB       -90.1890  -12.9350  -89.3010 N.2   300  HEM300      0.0000
     41  NC       -91.4610  -12.9140  -86.8000 N.ar  300  HEM300      0.0000
     42  ND       -90.3190  -10.3950  -86.2570 N.2   300  HEM300      0.0000
     43 FE        -90.2120  -11.6830  -87.7600 Fe    300  HEM300      0.0000
@<TRIPOS>BOND
     1    19    16    1
     2     9     7    1
     3    21    20    1
     4    16    17    2
     5    16    15    1
     6    20    17    1
     7     2    15    1
     8     2     8    2
     9    17    18    1
    10    15    40    2
    11     7     8   ar
    12     7     6   ar
    13     8    39   ar
    14    18    40    1
    15    18     3    2
    16    40    43    1
    17     6    10    1
    18     6     5   ar
    19    11    10    2
    20    11    12    1
    21    39     5   ar
    22    39    43    1
    23    12    13   ar
    24    12    14   ar
    25     3    22    1
    26     5     1    2
    27    43    41    1
    28    43    42    1
    29    22    41   ar
    30    22    23   ar
    31     1    32    1
    32    41    25   ar
    33    26    23    1
    34    42    32    2
    35    42    29    1
    36    23    24   ar
    37    32    31    1
    38    25    24   ar
    39    25     4    1
    40    24    27    1
    41    29     4    2
    42    29    30    1
    43    31    34    1
    44    31    30    2
    45    34    35    1
    46    30    33    1
    47    38    36   ar
    48    28    27    1
    49    35    36    1
    50    36    37   ar
