@<TRIPOS>MOLECULE
1ivq_0PX_A_1.pdb
 44 46 0 0 0
SMALL
GASTEIGER

@<TRIPOS>ATOM
      1  O         -0.7050   23.8550   23.4910 O.2   100  0PX100     -0.2659
      2  C         -1.4620   22.8670   23.4430 C.2   100  0PX100      0.2907
      3  N1        -3.8310   21.8550   23.0180 N.2   100  0PX100     -0.4019
      4  C2        -2.9450   22.9890   23.3790 C.2   100  0PX100      0.1639
      5  C3        -3.7730   24.1890   23.6930 C.3   100  0PX100      0.0686
      6  C4        -4.7710   24.4830   22.8210 C.3   100  0PX100      0.0362
      7  C4A       -5.6350   23.3160   22.5610 C.2   100  0PX100      0.0039
      8  C5        -6.9540   23.4930   22.1930 C.2   100  0PX100     -0.0231
      9  C6        -7.7800   22.4070   21.9680 C.3   100  0PX100      0.0518
     10  C7        -7.2590   21.1300   22.0650 C.2   100  0PX100     -0.0188
     11  C8        -5.9240   20.9500   22.3910 C.2   100  0PX100      0.0275
     12  C8A       -5.1190   22.0330   22.6500 C.2   100  0PX100      0.1266
     13  N         -1.0370   21.6280   23.4590 N.am  100  0PX100     -0.1916
     14  CA         0.3770   21.1990   23.5220 C.3   100  0PX100      0.1823
     15  C1         0.4870   20.1840   22.3630 C.2   100  0PX100      0.2618
     16  O1         0.0270   19.0360   22.4640 O.2   100  0PX100     -0.2715
     17  CB         0.7170   20.6430   24.8890 C.3   100  0PX100      0.1195
     18  CG         0.4710   21.6360   26.0090 C.2   100  0PX100      0.2630
     19  OD1        1.4060   22.3930   26.3260 O.2   100  0PX100     -0.2716
     20  ND2       -0.7240   21.6370   26.6110 N.am  100  0PX100     -0.0877
     21  N2         1.0580   20.7520   21.3030 N.am  100  0PX100     -0.2031
     22  CA1        1.2490   20.0590   20.0240 C.3   100  0PX100      0.1256
     23  CB1        0.5770   20.4900   18.8850 C.3   100  0PX100      0.0243
     24  CG1       -0.8830   20.8890   18.7500 C.3   100  0PX100      0.0018
     25  CD1       -1.2980   22.2280   19.3780 C.3   100  0PX100      0.0001
     26  CD2       -1.9630   19.8110   18.9230 C.3   100  0PX100      0.0001
     27  CE1       -2.7190   22.6890   19.0100 C.3   100  0PX100      0.0000
     28  CE2       -3.3410   20.3190   18.4440 C.3   100  0PX100      0.0000
     29  CZ        -3.7750   21.5810   19.2160 C.3   100  0PX100      0.0000
     30  CH         2.6800   19.5110   19.8990 C.3   100  0PX100      0.1722
     31  OH         3.5990   20.2980   20.2190 O.3   100  0PX100     -0.2213
     32 CB11        2.6810   18.1850   20.6320 C.3   100  0PX100      0.0438
     33  CA'        3.7040   17.1610   20.0340 C.3   100  0PX100      0.0808
     34  CB'        4.3390   16.4100   21.2750 C.3   100  0PX100      0.0087
     35 CG11        5.7700   15.9210   21.2610 C.3   100  0PX100      0.0005
     36  CG2        3.4040   15.5400   22.0860 C.3   100  0PX100      0.0005
     37  C9         2.9470   16.1580   19.1440 C.2   100  0PX100      0.2410
     38  O2         1.9280   15.5520   19.5430 O.2   100  0PX100     -0.2734
     39  N3         3.4380   15.9240   17.9510 N.am  100  0PX100     -0.2054
     40  C11        2.8340   14.9600   17.0030 C.3   100  0PX100      0.1150
     41  C21        1.8730   15.7200   16.0320 C.3   100  0PX100      0.0201
     42  C31        2.5830   16.8560   15.2660 C.3   100  0PX100      0.0018
     43  C41        0.8420   16.3720   16.9770 C.3   100  0PX100      0.0018
     44  C51        1.2790   14.7730   14.9960 C.3   100  0PX100      0.0018
@<TRIPOS>BOND
     1    44    41    1
     2    42    41    1
     3    41    43    1
     4    41    40    1
     5    40    39    1
     6    39    37   am
     7    28    26    1
     8    28    29    1
     9    24    23    1
    10    24    26    1
    11    24    25    1
    12    23    22    1
    13    27    29    1
    14    27    25    1
    15    37    38    2
    16    37    33    1
    17    30    22    1
    18    30    31    1
    19    30    32    1
    20    22    21    1
    21    33    32    1
    22    33    34    1
    23    35    34    1
    24    34    36    1
    25    21    15   am
    26     9    10    1
    27     9     8    1
    28    10    11    2
    29     8     7    2
    30    15    16    2
    31    15    14    1
    32    11    12    1
    33     7    12    1
    34     7     6    1
    35    12     3    2
    36     6     5    1
    37     3     4    2
    38     4     2    1
    39     4     5    1
    40     2    13   am
    41     2     1    2
    42    13    14    1
    43    14    17    1
    44    17    18    1
    45    18    19    2
    46    18    20   am
