@<TRIPOS>MOLECULE
1ivr_CBA_A_1.pdb
 26 26 0 0 0
SMALL
GASTEIGER

@<TRIPOS>ATOM
      1  N1        43.7250   15.9630   45.1500 N.ar  402  CBA402     -0.2452
      2  C2        44.9900   15.5410   45.5460 C.ar  402  CBA402      0.0978
      3  C2A       45.7600   15.9840   46.7900 C.3   402  CBA402      0.0555
      4  C3        45.6520   14.5740   44.7820 C.ar  402  CBA402      0.2062
      5  O3        46.8710   14.2810   45.4210 O.3   402  CBA402     -0.2856
      6  C4        45.1660   14.0250   43.5930 C.ar  402  CBA402      0.0354
      7  C4A       46.0000   13.0250   42.7940 C.3   402  CBA402      0.1211
      8  C5        43.8790   14.4210   43.1920 C.ar  402  CBA402      0.0275
      9  C5A       43.2200   13.9460   41.8880 C.3   402  CBA402      0.1816
     10  C6        43.1870   15.3940   43.9660 C.ar  402  CBA402      0.0965
     11  P         42.3120   11.9770   40.5410 P.3   402  CBA402      0.5329
     12  O1P       41.0330   11.2410   41.1540 O.3   402  CBA402     -0.1145
     13  O2P       42.9710   10.9360   39.7570 O.3   402  CBA402     -0.1145
     14  O3P       41.6650   13.0700   39.6700 O.2   402  CBA402     -0.2224
     15  O4P       43.3390   12.6490   41.5060 O.3   402  CBA402     -0.2653
     16  N         47.4600   13.4870   42.8890 N.3   402  CBA402     -0.1757
     17  CA        48.4940   12.5490   42.2090 C.3   402  CBA402      0.3178
     18  OA        48.3430   11.1370   42.5510 O.3   402  CBA402     -0.1924
     19  CB        48.1790   12.3900   40.6870 C.3   402  CBA402      0.3075
     20  OB        47.0560   11.4670   40.7700 O.3   402  CBA402     -0.2060
     21  C         49.9100   13.0290   42.4490 C.2   402  CBA402      0.4103
     22  O         50.0390   14.1420   43.0200 O.co2 402  CBA402     -0.2412
     23  OT        50.9460   12.3520   42.0920 O.co2 402  CBA402     -0.2412
     24  CG        47.9780   13.6820   39.8880 C.2   402  CBA402      0.3993
     25  OD1       46.8830   13.4620   39.2460 O.co2 402  CBA402     -0.2427
     26  OD2       48.7680   14.7260   39.9070 O.co2 402  CBA402     -0.2427
@<TRIPOS>BOND
     1    25    24   ar
     2    14    11    2
     3    13    11    1
     4    24    26   ar
     5    24    19    1
     6    11    12    1
     7    11    15    1
     8    19    20    1
     9    19    17    1
    10    15     9    1
    11     9     8    1
    12    23    21   ar
    13    17    21    1
    14    17    18    1
    15    17    16    1
    16    21    22   ar
    17     7    16    1
    18     7     6    1
    19     8     6   ar
    20     8    10   ar
    21     6     4   ar
    22    10     1   ar
    23     4     5    1
    24     4     2   ar
    25     1     2   ar
    26     2     3    1
