@<TRIPOS>MOLECULE
1ivs_VAA_A_1.pdb
 30 32 0 0 0
SMALL
GASTEIGER

@<TRIPOS>ATOM
      1  N         87.0660   34.9950   23.6240 N.3   990  VAA990     -0.1230
      2  CA        88.1580   35.5840   24.4600 C.3   990  VAA990      0.1709
      3  CB        89.6040   35.2490   23.8690 C.3   990  VAA990      0.0266
      4  CG1       89.9140   35.9270   22.4810 C.3   990  VAA990      0.0020
      5  CG2       89.7370   33.7980   23.7100 C.3   990  VAA990      0.0020
      6  C         88.0800   37.0990   24.5780 C.2   990  VAA990      0.2809
      7  O         89.0790   37.7180   25.0250 O.2   990  VAA990     -0.2701
      8  S         86.7240   39.4230   24.2580 S.O2  990  VAA990      0.1490
      9  O1S       85.3430   39.8650   23.7830 O.2   990  VAA990     -0.1350
     10  O2S       87.0210   39.9460   25.5980 O.2   990  VAA990     -0.1350
     11  N3S       86.8890   37.6900   24.1680 N.am  990  VAA990     -0.0456
     12  N5'       87.7610   40.2390   23.2040 N.3   990  VAA990     -0.0594
     13  C5'       88.9400   40.3370   23.7920 C.3   990  VAA990      0.1492
     14  C4'       89.8450   40.8420   22.8420 C.3   990  VAA990      0.1716
     15  O4'       89.5180   42.2030   22.6740 O.3   990  VAA990     -0.3146
     16  C1'       90.5140   43.0080   23.3980 C.3   990  VAA990      0.3186
     17  N9        89.8680   43.9480   24.2930 N.pl3 990  VAA990     -0.1439
     18  C4        90.3460   45.2970   24.4730 C.2   990  VAA990      0.3518
     19  N3        91.4530   45.9030   23.8580 N.2   990  VAA990     -0.0055
     20  C2        91.6260   47.1910   24.2520 C.3   990  VAA990      0.5254
     21  N1        90.8660   47.8830   25.1300 N.2   990  VAA990      0.0021
     22  C6        89.7620   47.2500   25.7320 C.2   990  VAA990      0.4393
     23  N6        89.0150   47.9610   26.6080 N.pl3 990  VAA990      0.2180
     24  C5        89.4610   45.8750   25.4010 C.2   990  VAA990      0.2526
     25  N7        88.4780   44.9520   25.7880 N.2   990  VAA990     -0.2095
     26  C8        88.7590   43.8880   25.1320 C.3   990  VAA990      0.3377
     27  C2'       91.4590   41.9970   24.0740 C.3   990  VAA990      0.2569
     28  O2'       92.8040   42.5420   24.0220 O.3   990  VAA990     -0.2130
     29  C3'       91.2570   40.7790   23.2750 C.3   990  VAA990      0.2174
     30  O3'       92.0510   40.7650   22.0680 O.3   990  VAA990     -0.2175
@<TRIPOS>BOND
     1    30    29    1
     2     4     3    1
     3    15    14    1
     4    15    16    1
     5    14    29    1
     6    14    13    1
     7    12    13    1
     8    12     8    1
     9    29    27    1
    10    16    27    1
    11    16    17    1
    12     1     2    1
    13     5     3    1
    14     9     8    2
    15    19    20    1
    16    19    18    2
    17     3     2    1
    18    28    27    1
    19    11     8    1
    20    11     6   am
    21    20    21    1
    22     8    10    2
    23    17    18    1
    24    17    26    1
    25     2     6    1
    26    18    24    1
    27     6     7    2
    28    21    22    2
    29    26    25    1
    30    24    22    1
    31    24    25    2
    32    22    23    1
