@<TRIPOS>MOLECULE
1iw0_HEM_A_1.pdb
 43 50 0 0 0
SMALL
GASTEIGER

@<TRIPOS>ATOM
      1 FE         23.5680   -8.5490    0.0450 Fe    901  HEM901      0.0000
      2  CHA       26.9090   -9.4520    0.3230 C.2   901  HEM901      0.0000
      3  CHB       24.1440   -5.8880    2.1390 C.2   901  HEM901      0.0000
      4  CHC       20.3500   -7.6770   -0.1780 C.2   901  HEM901      0.0000
      5  CHD       22.9910  -11.0410   -2.2280 C.2   901  HEM901      0.0000
      6  NA        25.1770   -7.8180    1.0110 N.2   901  HEM901      0.0000
      7  C1A       26.4280   -8.3160    1.0520 C.2   901  HEM901      0.0000
      8  C2A       27.3700   -7.6740    1.8980 C.2   901  HEM901      0.0000
      9  C3A       26.5950   -6.7020    2.3850 C.2   901  HEM901      0.0000
     10  C4A       25.2050   -6.7090    1.8850 C.2   901  HEM901      0.0000
     11  CMA       26.9510   -5.6170    3.3620 C.3   901  HEM901      0.0000
     12  CAA       28.8410   -7.9190    2.2340 C.3   901  HEM901      0.0000
     13  CBA       28.9330   -8.9810    3.3130 C.3   901  HEM901      0.0000
     14  CGA       30.3610   -9.1060    3.7040 C.2   901  HEM901      0.0000
     15  O1A       31.0890   -9.6960    2.9010 O.co2 901  HEM901      0.0000
     16  O2A       30.7790   -8.6080    4.7950 O.co2 901  HEM901      0.0000
     17  NB        22.4620   -7.0380    0.8450 N.ar  901  HEM901      0.0000
     18  C1B       22.8950   -6.0180    1.6680 C.ar  901  HEM901      0.0000
     19  C2B       21.7270   -5.2080    1.9430 C.ar  901  HEM901      0.0000
     20  C3B       20.6950   -5.7340    1.2930 C.ar  901  HEM901      0.0000
     21  C4B       21.2050   -6.9210    0.5930 C.ar  901  HEM901      0.0000
     22  CMB       21.8620   -3.9630    2.8330 C.3   901  HEM901      0.0000
     23  CAB       19.2890   -5.1300    1.3280 C.2   901  HEM901      0.0000
     24  CBB       18.6920   -4.8600    2.5080 C.2   901  HEM901      0.0000
     25  NC        21.9810   -9.1850   -1.0060 N.2   901  HEM901      0.0000
     26  C1C       20.7910   -8.7520   -0.9010 C.2   901  HEM901      0.0000
     27  C2C       19.8710   -9.5510   -1.7050 C.2   901  HEM901      0.0000
     28  C3C       20.6280  -10.4570   -2.2480 C.2   901  HEM901      0.0000
     29  C4C       21.9660  -10.2750   -1.8640 C.2   901  HEM901      0.0000
     30  CMC       18.4290   -9.3030   -1.7720 C.3   901  HEM901      0.0000
     31  CAC       19.9110  -11.4550   -3.1410 C.3   901  HEM901      0.0000
     32  CBC       20.4760  -11.5530   -4.2990 C.3   901  HEM901      0.0000
     33  ND        24.7130   -9.9770   -0.8050 N.ar  901  HEM901      0.0000
     34  C1D       24.2560  -10.9650   -1.7170 C.ar  901  HEM901      0.0000
     35  C2D       25.3860  -11.8240   -1.9630 C.ar  901  HEM901      0.0000
     36  C3D       26.5910  -11.3700   -1.2160 C.ar  901  HEM901      0.0000
     37  C4D       26.0670  -10.1330   -0.4930 C.ar  901  HEM901      0.0000
     38  CMD       25.3130  -13.0690   -2.8950 C.3   901  HEM901      0.0000
     39  CAD       27.9130  -12.1520   -1.3410 C.3   901  HEM901      0.0000
     40  CBD       27.9200  -13.0710   -0.2000 C.3   901  HEM901      0.0000
     41  CGD       26.9710  -13.3470    0.8040 C.2   901  HEM901      0.0000
     42  O1D       26.6510  -13.0790    1.9600 O.co2 901  HEM901      0.0000
     43  O2D       26.2320  -14.1340    0.2650 O.co2 901  HEM901      0.0000
@<TRIPOS>BOND
     1    32    31    1
     2    31    28    1
     3    38    35    1
     4    28    29    1
     5    28    27    2
     6     5    29    1
     7     5    34    2
     8    35    34   ar
     9    35    36   ar
    10    29    25    2
    11    30    27    1
    12    34    33   ar
    13    27    26    1
    14    39    36    1
    15    39    40    1
    16    36    37   ar
    17    25    26    1
    18    25     1    1
    19    26     4    2
    20    33    37   ar
    21    33     1    1
    22    37     2    2
    23    40    41    1
    24     4    21    1
    25     1    17    1
    26     1     6    1
    27    43    41   ar
    28     2     7    1
    29    21    17   ar
    30    21    20   ar
    31    41    42   ar
    32    17    18   ar
    33     6     7    2
    34     6    10    1
    35     7     8    1
    36    20    23    1
    37    20    19   ar
    38    23    24    2
    39    18    19   ar
    40    18     3    1
    41    10     3    2
    42    10     9    1
    43     8    12    1
    44     8     9    2
    45    19    22    1
    46    12    13    1
    47     9    11    1
    48    15    14   ar
    49    13    14    1
    50    14    16   ar
