@<TRIPOS>MOLECULE
1iw1_HEM_A_1.pdb
 43 50 0 0 0
SMALL
GASTEIGER

@<TRIPOS>ATOM
      1 FE         23.9050   -9.4730    0.8590 Fe    901  HEM901      0.0000
      2  CHA       27.2050  -10.3560    1.2580 C.2   901  HEM901      0.0000
      3  CHB       24.4900   -6.5140    2.4080 C.2   901  HEM901      0.0000
      4  CHC       20.8640   -8.2640   -0.0790 C.2   901  HEM901      0.0000
      5  CHD       23.4130  -12.2320   -1.0920 C.2   901  HEM901      0.0000
      6  NA        25.5710   -8.5480    1.6570 N.2   901  HEM901      0.0000
      7  C1A       26.8030   -9.0970    1.8540 C.2   901  HEM901      0.0000
      8  C2A       27.6970   -8.3380    2.6390 C.2   901  HEM901      0.0000
      9  C3A       26.9140   -7.2310    2.9720 C.2   901  HEM901      0.0000
     10  C4A       25.6040   -7.3440    2.4070 C.2   901  HEM901      0.0000
     11  CMA       27.2400   -6.0440    3.8540 C.3   901  HEM901      0.0000
     12  CAA       29.1000   -8.5660    3.0660 C.3   901  HEM901      0.0000
     13  CBA       29.2510   -9.5540    4.1660 C.3   901  HEM901      0.0000
     14  CGA       30.6720   -9.6000    4.6380 C.2   901  HEM901      0.0000
     15  O1A       31.5320  -10.2600    3.9580 O.co2 901  HEM901      0.0000
     16  O2A       31.0280   -9.0150    5.7120 O.co2 901  HEM901      0.0000
     17  NB        22.8700   -7.6430    1.1260 N.ar  901  HEM901      0.0000
     18  C1B       23.2750   -6.5450    1.9020 C.ar  901  HEM901      0.0000
     19  C2B       22.1730   -5.6510    1.9400 C.ar  901  HEM901      0.0000
     20  C3B       21.1680   -6.0840    1.2820 C.ar  901  HEM901      0.0000
     21  C4B       21.6160   -7.4340    0.7560 C.ar  901  HEM901      0.0000
     22  CMB       22.2940   -4.3550    2.6690 C.3   901  HEM901      0.0000
     23  CAB       19.8170   -5.5530    1.0340 C.3   901  HEM901      0.0000
     24  CBB       19.5630   -4.1330    1.0490 C.3   901  HEM901      0.0000
     25  NC        22.3960  -10.0990   -0.3570 N.2   901  HEM901      0.0000
     26  C1C       21.2290   -9.4800   -0.6070 C.2   901  HEM901      0.0000
     27  C2C       20.4400  -10.2040   -1.5390 C.2   901  HEM901      0.0000
     28  C3C       21.1090  -11.3650   -1.7390 C.2   901  HEM901      0.0000
     29  C4C       22.3830  -11.3490   -1.1010 C.2   901  HEM901      0.0000
     30  CMC       19.0290   -9.8990   -1.9900 C.3   901  HEM901      0.0000
     31  CAC       20.6520  -12.5440   -2.6280 C.3   901  HEM901      0.0000
     32  CBC       20.9370  -12.2820   -3.9160 C.3   901  HEM901      0.0000
     33  ND        25.0770  -10.9990    0.1570 N.ar  901  HEM901      0.0000
     34  C1D       24.6490  -12.1130   -0.5850 C.ar  901  HEM901      0.0000
     35  C2D       25.7750  -12.9550   -0.6370 C.ar  901  HEM901      0.0000
     36  C3D       26.8870  -12.4670    0.0250 C.ar  901  HEM901      0.0000
     37  C4D       26.3940  -11.1740    0.5040 C.ar  901  HEM901      0.0000
     38  CMD       25.6850  -14.3100   -1.3730 C.3   901  HEM901      0.0000
     39  CAD       28.1920  -13.0770    0.1780 C.3   901  HEM901      0.0000
     40  CBD       29.2630  -12.5010   -0.7390 C.3   901  HEM901      0.0000
     41  CGD       29.0480  -12.7370   -2.1570 C.2   901  HEM901      0.0000
     42  O1D       28.6890  -13.9020   -2.5200 O.co2 901  HEM901      0.0000
     43  O2D       29.2070  -11.9140   -3.1000 O.co2 901  HEM901      0.0000
@<TRIPOS>BOND
     1    32    31    1
     2    43    41   ar
     3    31    28    1
     4    42    41   ar
     5    41    40    1
     6    30    27    1
     7    28    27    2
     8    28    29    1
     9    27    26    1
    10    38    35    1
    11    29     5    1
    12    29    25    2
    13     5    34    2
    14    40    39    1
    15    35    34   ar
    16    35    36   ar
    17    26    25    1
    18    26     4    2
    19    34    33   ar
    20    25     1    1
    21     4    21    1
    22    36    39    1
    23    36    37   ar
    24    33    37   ar
    25    33     1    1
    26    37     2    2
    27    21    17   ar
    28    21    20   ar
    29     1    17    1
    30     1     6    1
    31    23    24    1
    32    23    20    1
    33    17    18   ar
    34     2     7    1
    35    20    19   ar
    36     6     7    2
    37     6    10    1
    38     7     8    1
    39    18    19   ar
    40    18     3    1
    41    19    22    1
    42    10     3    2
    43    10     9    1
    44     8     9    2
    45     8    12    1
    46     9    11    1
    47    12    13    1
    48    15    14   ar
    49    13    14    1
    50    14    16   ar
