@<TRIPOS>MOLECULE
1iw6_GLC_A_1.pdb
 11 11 0 0 0
SMALL
GASTEIGER

@<TRIPOS>ATOM
      1  C1        49.3980   23.7730   10.4950 C.3   400  GLC400      0.1777
      2  C2        50.0860   23.6340    9.0620 C.3   400  GLC400      0.2141
      3  C3        49.9150   24.9950    8.3100 C.3   400  GLC400      0.2173
      4  C4        48.4010   25.3040    8.1370 C.3   400  GLC400      0.2142
      5  C5        47.7180   25.3870    9.5430 C.3   400  GLC400      0.1810
      6  C6        46.1890   25.5110    9.5620 C.3   400  GLC400      0.2141
      7  O2        51.4980   23.3620    9.1930 O.3   400  GLC400     -0.2176
      8  O3        50.5110   24.9160    7.0140 O.3   400  GLC400     -0.2175
      9  O4        48.1340   26.5170    7.4810 O.3   400  GLC400     -0.2176
     10  O5        47.9510   24.0960   10.3100 O.3   400  GLC400     -0.3481
     11  O6        45.4370   24.4640    8.9740 O.3   400  GLC400     -0.2176
@<TRIPOS>BOND
     1     8     3    1
     2     9     4    1
     3     4     3    1
     4     4     5    1
     5     3     2    1
     6    11     6    1
     7     2     7    1
     8     2     1    1
     9     5     6    1
    10     5    10    1
    11    10     1    1
