@<TRIPOS>MOLECULE
1iw6_RET_A_1.pdb
 20 20 0 0 0
SMALL
GASTEIGER

@<TRIPOS>ATOM
      1  C1        39.2560   16.1100   21.4130 C.3   250  RET250      0.0183
      2  C2        39.9240   15.3170   20.2190 C.3   250  RET250      0.0044
      3  C3        39.9490   13.8560   20.2300 C.3   250  RET250      0.0047
      4  C4        40.1310   13.1730   21.5750 C.3   250  RET250      0.0217
      5  C5        39.6110   13.9090   22.8040 C.2   250  RET250     -0.0479
      6  C6        39.1510   15.2550   22.7840 C.2   250  RET250     -0.0307
      7  C7        38.5440   15.7940   24.0990 C.2   250  RET250     -0.0052
      8  C8        38.0040   17.0090   24.3540 C.2   250  RET250     -0.0046
      9  C9        37.3470   17.4450   25.5680 C.2   250  RET250     -0.0219
     10  C10       36.8280   18.7110   25.5310 C.2   250  RET250     -0.0043
     11  C11       36.0630   19.4190   26.5250 C.2   250  RET250     -0.0007
     12  C12       35.7020   20.6820   26.2780 C.2   250  RET250     -0.0046
     13  C13       34.9530   21.5840   27.1760 C.2   250  RET250     -0.0261
     14  C14       34.8180   22.8690   26.7180 C.2   250  RET250     -0.0300
     15  C15       34.2880   24.0810   27.3390 C.3   250  RET250      0.0304
     16  C16       40.1540   17.3570   21.5300 C.3   250  RET250      0.0043
     17  C17       37.8800   16.5480   20.8720 C.3   250  RET250      0.0043
     18  C18       39.6530   13.0050   24.0290 C.3   250  RET250      0.0260
     19  C19       37.2080   16.5090   26.7560 C.3   250  RET250      0.0310
     20  C20       34.4890   21.1030   28.5380 C.3   250  RET250      0.0307
@<TRIPOS>BOND
     1     2     3    1
     2     2     1    1
     3     3     4    1
     4    17     1    1
     5     1    16    1
     6     1     6    1
     7     4     5    1
     8     6     5    2
     9     6     7    1
    10     5    18    1
    11     7     8    2
    12     8     9    1
    13    10     9    2
    14    10    11    1
    15     9    19    1
    16    12    11    2
    17    12    13    1
    18    14    13    2
    19    14    15    1
    20    13    20    1
