@<TRIPOS>MOLECULE
1iw9_RET_A_1.pdb
 20 20 0 0 0
SMALL
GASTEIGER

@<TRIPOS>ATOM
      1  C1        39.0340   16.1530   21.4940 C.3   250  RET250      0.0183
      2  C2        39.7160   15.4360   20.2810 C.3   250  RET250      0.0044
      3  C3        39.6710   14.0010   20.2750 C.3   250  RET250      0.0047
      4  C4        40.0380   13.3770   21.6040 C.3   250  RET250      0.0217
      5  C5        39.4390   14.0020   22.8590 C.2   250  RET250     -0.0479
      6  C6        38.9430   15.3050   22.8500 C.2   250  RET250     -0.0307
      7  C7        38.3040   15.8690   24.1470 C.2   250  RET250     -0.0052
      8  C8        37.9100   17.1440   24.2880 C.2   250  RET250     -0.0046
      9  C9        37.3120   17.6470   25.5310 C.2   250  RET250     -0.0219
     10  C10       36.8950   18.9620   25.5510 C.2   250  RET250     -0.0046
     11  C11       36.2220   19.5660   26.6870 C.2   250  RET250     -0.0049
     12  C12       35.8400   20.8530   26.6240 C.2   250  RET250     -0.0265
     13  C13       35.1490   21.4860   27.7630 C.3   250  RET250      0.0220
     14  C14       34.7730   22.7770   27.7730 C.3   250  RET250      0.0043
     15  C15       34.4410   23.7560   26.7430 C.3   250  RET250      0.0003
     16  C16       39.8540   17.4390   21.6430 C.3   250  RET250      0.0043
     17  C17       37.6530   16.5460   20.9370 C.3   250  RET250      0.0043
     18  C18       39.3980   13.1670   24.1300 C.3   250  RET250      0.0260
     19  C19       37.1160   16.7340   26.7180 C.3   250  RET250      0.0310
     20  C20       34.7260   20.7800   29.0140 C.3   250  RET250      0.0047
@<TRIPOS>BOND
     1     3     2    1
     2     3     4    1
     3     2     1    1
     4    17     1    1
     5     1    16    1
     6     1     6    1
     7     4     5    1
     8     6     5    2
     9     6     7    1
    10     5    18    1
    11     7     8    2
    12     8     9    1
    13     9    10    2
    14     9    19    1
    15    10    11    1
    16    12    11    2
    17    12    13    1
    18    15    14    1
    19    13    14    1
    20    13    20    1
