@<TRIPOS>MOLECULE
1iw9_GLC_A_1.pdb
 11 11 0 0 0
SMALL
GASTEIGER

@<TRIPOS>ATOM
      1  C1        49.3770   23.8680   10.7340 C.3   400  GLC400      0.1777
      2  C2        50.0060   23.7060    9.2750 C.3   400  GLC400      0.2141
      3  C3        49.7720   25.0510    8.5110 C.3   400  GLC400      0.2173
      4  C4        48.2530   25.3350    8.4010 C.3   400  GLC400      0.2142
      5  C5        47.6280   25.4280    9.8330 C.3   400  GLC400      0.1810
      6  C6        46.0940   25.5350    9.8840 C.3   400  GLC400      0.2141
      7  O2        51.4310   23.4640    9.3420 O.3   400  GLC400     -0.2176
      8  O3        50.2900   24.9680    7.1860 O.3   400  GLC400     -0.2175
      9  O4        47.9490   26.5340    7.7380 O.3   400  GLC400     -0.2176
     10  O5        47.9150   24.1570   10.6160 O.3   400  GLC400     -0.3481
     11  O6        45.3050   24.4970    9.3280 O.3   400  GLC400     -0.2176
@<TRIPOS>BOND
     1     8     3    1
     2     9     4    1
     3     4     3    1
     4     4     5    1
     5     3     2    1
     6     2     7    1
     7     2     1    1
     8    11     6    1
     9     5     6    1
    10     5    10    1
    11    10     1    1
