@<TRIPOS>MOLECULE
1iwe_IMP_A_1.pdb
 23 25 0 0 0
SMALL
GASTEIGER

@<TRIPOS>ATOM
      1  P         53.0730    0.5820   38.5470 P.3   460  IMP460      0.5327
      2  O1P       54.5010    0.0760   38.7140 O.3   460  IMP460     -0.1145
      3  O2P       52.9990    1.9290   37.8490 O.2   460  IMP460     -0.2224
      4  O3P       52.1630   -0.4580   37.9000 O.3   460  IMP460     -0.1145
      5  O5'       52.5240    0.8430   40.0580 O.3   460  IMP460     -0.2675
      6  C5'       51.1840    1.3330   40.3050 C.3   460  IMP460      0.1860
      7  C4'       50.5800    0.5870   41.4700 C.3   460  IMP460      0.1823
      8  O4'       50.2300   -0.7620   41.0670 O.3   460  IMP460     -0.3135
      9  C3'       51.5020    0.4460   42.6780 C.3   460  IMP460      0.2184
     10  O3'       50.8010    0.7130   43.8860 O.3   460  IMP460     -0.2174
     11  C2'       51.9800   -0.9940   42.5880 C.3   460  IMP460      0.2570
     12  O2'       52.3180   -1.5340   43.8500 O.3   460  IMP460     -0.2130
     13  C1'       50.7450   -1.6770   42.0060 C.3   460  IMP460      0.3186
     14  N9        51.0460   -2.9170   41.2990 N.pl3 460  IMP460     -0.1435
     15  C8        51.3770   -3.0770   39.9780 C.3   460  IMP460      0.3382
     16  N7        51.5630   -4.3270   39.6280 N.2   460  IMP460     -0.2054
     17  C5        51.3430   -5.0360   40.8010 C.2   460  IMP460      0.2446
     18  C6        51.3760   -6.4060   41.0970 C.1   460  IMP460      0.1792
     19  O6        51.3280   -7.2270   40.1880 O.2   460  IMP460     -0.2203
     20  N1        51.1280   -6.7800   42.3710 N.2   460  IMP460     -0.1458
     21  C2        50.8460   -5.8340   43.2720 C.3   460  IMP460      0.4017
     22  N3        50.7680   -4.5180   43.1130 N.2   460  IMP460     -0.0334
     23  C4        51.0340   -4.1790   41.8400 C.2   460  IMP460      0.3528
@<TRIPOS>BOND
     1     3     1    2
     2     4     1    1
     3     1     2    1
     4     1     5    1
     5    16    15    1
     6    16    17    2
     7    15    14    1
     8     5     6    1
     9    19    18    2
    10     6     7    1
    11    17    18    1
    12    17    23    1
    13     8     7    1
    14     8    13    1
    15    18    20    2
    16    14    23    1
    17    14    13    1
    18     7     9    1
    19    23    22    2
    20    13    11    1
    21    20    21    1
    22    11     9    1
    23    11    12    1
    24     9    10    1
    25    22    21    1
