@<TRIPOS>MOLECULE
1iwh_PEM_A_1.pdb
 25 26 0 0 0
SMALL
GASTEIGER

@<TRIPOS>ATOM
      1  C1        60.5960  117.1110  108.0870 C.ar  501  PEM501      0.0551
      2  C2        60.8590  118.0330  107.0480 C.ar  501  PEM501      0.0054
      3  C3        61.3160  117.5230  105.8050 C.ar  501  PEM501      0.0115
      4  C4        61.5090  116.1250  105.6510 C.ar  501  PEM501      0.0577
      5  C5        61.2370  115.2300  106.6880 C.ar  501  PEM501      0.0115
      6  C6        60.7530  115.7190  107.9170 C.ar  501  PEM501      0.0054
      7 CL         62.0620  115.5530  104.0950 Cl    501  PEM501     -0.0822
      8  C7        60.1340  117.6230  109.4460 C.2   501  PEM501      0.2648
      9  O1        59.6400  116.8070  110.2240 O.2   501  PEM501     -0.2684
     10  N1        60.4570  118.9560  109.7510 N.am  501  PEM501     -0.2013
     11  C8        59.9820  119.4640  111.0510 C.3   501  PEM501      0.1201
     12  C9        59.4180  120.8250  110.5310 C.3   501  PEM501      0.0498
     13  C10       58.0570  122.6930  114.1270 C.ar  501  PEM501      0.1390
     14  C11       57.1180  121.8870  113.5160 C.ar  501  PEM501      0.0366
     15  C12       57.3950  121.1700  112.3150 C.ar  501  PEM501     -0.0011
     16  C13       58.6990  121.3360  111.7650 C.ar  501  PEM501     -0.0202
     17  C14       59.6580  122.1290  112.4650 C.ar  501  PEM501     -0.0011
     18  C15       59.3410  122.9020  113.6250 C.ar  501  PEM501      0.0366
     19  O2        57.6350  123.6890  115.3910 O.3   501  PEM501     -0.4718
     20  C16       56.5040  123.3180  116.2060 C.3   501  PEM501      0.2253
     21  C17       56.3170  121.8480  116.7170 C.3   501  PEM501      0.0554
     22  C18       56.5680  124.1840  117.5310 C.3   501  PEM501      0.0554
     23  C19       55.2850  123.8620  115.3970 C.2   501  PEM501      0.4000
     24  O3        55.5250  124.6160  114.2890 O.co2 501  PEM501     -0.2418
     25  O4        54.2370  123.2980  115.6860 O.co2 501  PEM501     -0.2418
@<TRIPOS>BOND
     1     7     4    1
     2     4     3   ar
     3     4     5   ar
     4     3     2   ar
     5     5     6   ar
     6     2     1   ar
     7     6     1   ar
     8     1     8    1
     9     8    10   am
    10     8     9    2
    11    10    11    1
    12    12    11    1
    13    12    16    1
    14    16    15   ar
    15    16    17   ar
    16    15    14   ar
    17    17    18   ar
    18    14    13   ar
    19    18    13   ar
    20    13    19    1
    21    24    23   ar
    22    19    20    1
    23    23    25   ar
    24    23    20    1
    25    20    21    1
    26    20    22    1
