@<TRIPOS>MOLECULE
1iwh_HEM_A_1.pdb
 43 50 0 0 0
SMALL
GASTEIGER

@<TRIPOS>ATOM
      1  CHA       54.3700  112.5950  106.9050 C.2   142  HEM142      0.0000
      2  CHB       55.8500  114.8480  102.9130 C.2   142  HEM142      0.0000
      3  CHC       52.1460  113.3260  100.3790 C.2   142  HEM142      0.0000
      4  CHD       50.4300  111.2330  104.2910 C.2   142  HEM142      0.0000
      5  C1A       54.9430  113.4320  105.9890 C.ar  142  HEM142      0.0000
      6  C2A       56.1960  114.0390  106.4700 C.ar  142  HEM142      0.0000
      7  C3A       56.7790  114.6820  105.4570 C.ar  142  HEM142      0.0000
      8  C4A       55.8710  114.4710  104.3000 C.ar  142  HEM142      0.0000
      9  CMA       57.9430  115.6730  105.2760 C.3   142  HEM142      0.0000
     10  CAA       56.8180  113.9470  107.8440 C.3   142  HEM142      0.0000
     11  CBA       57.5660  112.6210  107.8650 C.3   142  HEM142      0.0000
     12  CGA       57.7650  112.0760  109.2700 C.2   142  HEM142      0.0000
     13  O1A       58.8270  111.5150  109.5860 O.co2 142  HEM142      0.0000
     14  O2A       56.8900  112.1450  110.1520 O.co2 142  HEM142      0.0000
     15  C1B       55.0140  114.6330  101.8730 C.2   142  HEM142      0.0000
     16  C2B       55.2830  115.1610  100.5690 C.2   142  HEM142      0.0000
     17  C3B       54.1000  114.6760   99.7940 C.2   142  HEM142      0.0000
     18  C4B       53.3390  113.9420  100.7280 C.2   142  HEM142      0.0000
     19  CMB       56.4500  116.1680  100.1750 C.3   142  HEM142      0.0000
     20  CAB       53.8900  114.8100   98.3570 C.3   142  HEM142      0.0000
     21  CBB       54.1730  116.0900   97.6720 C.3   142  HEM142      0.0000
     22  C1C       51.4040  112.6340  101.2890 C.ar  142  HEM142      0.0000
     23  C2C       50.1400  112.0270  100.8220 C.ar  142  HEM142      0.0000
     24  C3C       49.5910  111.3790  101.9740 C.ar  142  HEM142      0.0000
     25  C4C       50.5340  111.6530  103.0240 C.ar  142  HEM142      0.0000
     26  CMC       49.3670  112.1700   99.4560 C.3   142  HEM142      0.0000
     27  CAC       48.1250  111.0370  102.3910 C.3   142  HEM142      0.0000
     28  CBC       46.9500  111.4720  101.7820 C.3   142  HEM142      0.0000
     29  C1D       51.3060  111.4870  105.4030 C.2   142  HEM142      0.0000
     30  C2D       51.1510  110.9830  106.7890 C.2   142  HEM142      0.0000
     31  C3D       52.2550  111.3760  107.4790 C.2   142  HEM142      0.0000
     32  C4D       53.1420  112.1240  106.4910 C.2   142  HEM142      0.0000
     33  CMD       49.7550  110.2050  107.4470 C.3   142  HEM142      0.0000
     34  CAD       52.3900  110.9520  108.9290 C.3   142  HEM142      0.0000
     35  CBD       51.5980  111.9520  109.7580 C.3   142  HEM142      0.0000
     36  CGD       51.7640  111.6040  111.2370 C.2   142  HEM142      0.0000
     37  O1D       52.6090  112.1850  111.9290 O.co2 142  HEM142      0.0000
     38  O2D       51.0280  110.6960  111.6970 O.co2 142  HEM142      0.0000
     39  NA        54.7830  113.7130  104.6610 N.ar  142  HEM142      0.0000
     40  NB        53.8500  113.9030  101.9990 N.2   142  HEM142      0.0000
     41  NC        51.6050  112.3920  102.6220 N.ar  142  HEM142      0.0000
     42  ND        52.4920  112.1690  105.2800 N.2   142  HEM142      0.0000
     43 FE         53.2110  113.0200  103.6460 Fe    142  HEM142      0.0000
@<TRIPOS>BOND
     1    21    20    1
     2    20    17    1
     3    26    23    1
     4    17    16    2
     5    17    18    1
     6    19    16    1
     7     3    18    2
     8     3    22    1
     9    16    15    1
    10    18    40    1
    11    23    22   ar
    12    23    24   ar
    13    22    41   ar
    14    28    27    1
    15    15    40    2
    16    15     2    1
    17    24    27    1
    18    24    25   ar
    19    40    43    1
    20    41    25   ar
    21    41    43    1
    22     2     8    2
    23    25     4    1
    24    43    39    1
    25    43    42    1
    26     4    29    2
    27     8    39   ar
    28     8     7   ar
    29    39     5   ar
    30     9     7    1
    31    42    29    1
    32    42    32    2
    33    29    30    1
    34     7     6   ar
    35     5     6   ar
    36     5     1    2
    37     6    10    1
    38    32     1    1
    39    32    31    1
    40    30    33    1
    41    30    31    2
    42    31    34    1
    43    10    11    1
    44    11    12    1
    45    34    35    1
    46    12    13   ar
    47    12    14   ar
    48    35    36    1
    49    36    38   ar
    50    36    37   ar
