@<TRIPOS>MOLECULE
1iwi_CAM_A_1.pdb
 11 12 0 0 0
SMALL
GASTEIGER

@<TRIPOS>ATOM
      1  C1        46.6160   44.6510   14.5220 C.3   418  CAM418      0.0515
      2  C2        45.0100   44.5070   14.5000 C.2   418  CAM418      0.1498
      3  O         44.3080   44.5060   15.4910 O.2   418  CAM418     -0.2961
      4  C3        44.6700   44.3590   12.9920 C.3   418  CAM418      0.0645
      5  C4        46.1270   44.4700   12.3610 C.3   418  CAM418      0.0077
      6  C5        46.6640   45.9690   12.4150 C.3   418  CAM418      0.0009
      7  C6        46.9820   46.1170   13.9640 C.3   418  CAM418      0.0069
      8  C7        47.0590   43.6890   13.3690 C.3   418  CAM418      0.0066
      9  C8        46.7510   42.1410   13.5890 C.3   418  CAM418      0.0004
     10  C9        48.6080   43.6150   13.0400 C.3   418  CAM418      0.0004
     11  C10       47.1970   44.4200   15.9250 C.3   418  CAM418      0.0073
@<TRIPOS>BOND
     1     5     6    1
     2     5     4    1
     3     5     8    1
     4     6     7    1
     5     4     2    1
     6    10     8    1
     7     8     9    1
     8     8     1    1
     9     7     1    1
    10     2     1    1
    11     2     3    2
    12     1    11    1
