@<TRIPOS>MOLECULE
1iwi_HEM_A_1.pdb
 43 50 0 0 0
SMALL
GASTEIGER

@<TRIPOS>ATOM
      1 FE         48.5250   46.4790    8.7530 Fe    417  HEM417      0.0000
      2  CHA       45.4100   45.0840    8.6190 C.2   417  HEM417      0.0000
      3  CHB       49.9060   43.3030    9.0820 C.2   417  HEM417      0.0000
      4  CHC       51.5820   47.8670    9.2170 C.2   417  HEM417      0.0000
      5  CHD       47.0570   49.5930    9.2900 C.2   417  HEM417      0.0000
      6  NA        47.8180   44.6180    8.8440 N.2   417  HEM417      0.0000
      7  C1A       46.4990   44.2150    8.7020 C.2   417  HEM417      0.0000
      8  C2A       46.3890   42.7640    8.7180 C.2   417  HEM417      0.0000
      9  C3A       47.6590   42.2680    8.8770 C.2   417  HEM417      0.0000
     10  C4A       48.5340   43.4200    8.9650 C.2   417  HEM417      0.0000
     11  CMA       48.1250   40.8170    8.9050 C.3   417  HEM417      0.0000
     12  CAA       45.0930   41.9740    8.5950 C.3   417  HEM417      0.0000
     13  CBA       44.4960   41.6460    9.9600 C.3   417  HEM417      0.0000
     14  CGA       43.3160   40.6920    9.8640 C.2   417  HEM417      0.0000
     15  O1A       42.9980   40.2340    8.7400 O.co2 417  HEM417      0.0000
     16  O2A       42.7070   40.4010   10.9160 O.co2 417  HEM417      0.0000
     17  NB        50.3490   45.7340    9.0680 N.ar  417  HEM417      0.0000
     18  C1B       50.7680   44.3910    9.1190 C.ar  417  HEM417      0.0000
     19  C2B       52.2320   44.2750    9.1540 C.ar  417  HEM417      0.0000
     20  C3B       52.7230   45.5630    9.1890 C.ar  417  HEM417      0.0000
     21  C4B       51.5360   46.4590    9.1380 C.ar  417  HEM417      0.0000
     22  CMB       53.0400   42.9730    9.1060 C.3   417  HEM417      0.0000
     23  CAB       54.0450   46.0130    9.3120 C.3   417  HEM417      0.0000
     24  CBB       55.2020   45.3920    8.8620 C.3   417  HEM417      0.0000
     25  NC        49.1560   48.3160    9.2620 N.2   417  HEM417      0.0000
     26  C1C       50.4740   48.7300    9.3000 C.2   417  HEM417      0.0000
     27  C2C       50.5710   50.1800    9.4510 C.2   417  HEM417      0.0000
     28  C3C       49.3000   50.6540    9.5650 C.2   417  HEM417      0.0000
     29  C4C       48.4240   49.4860    9.4620 C.2   417  HEM417      0.0000
     30  CMC       51.8460   51.0180    9.4290 C.3   417  HEM417      0.0000
     31  CAC       48.9440   51.9970    9.6690 C.3   417  HEM417      0.0000
     32  CBC       48.5270   52.5400   10.8840 C.3   417  HEM417      0.0000
     33  ND        46.6680   47.1990    8.8370 N.ar  417  HEM417      0.0000
     34  C1D       46.2520   48.5290    8.9370 C.ar  417  HEM417      0.0000
     35  C2D       44.8280   48.6570    8.7050 C.ar  417  HEM417      0.0000
     36  C3D       44.3330   47.3890    8.6170 C.ar  417  HEM417      0.0000
     37  C4D       45.4900   46.4830    8.6920 C.ar  417  HEM417      0.0000
     38  CMD       44.0600   49.9590    8.4390 C.3   417  HEM417      0.0000
     39  CAD       42.8490   46.9990    8.5070 C.3   417  HEM417      0.0000
     40  CBD       42.3220   46.7970    7.0880 C.3   417  HEM417      0.0000
     41  CGD       40.9170   46.1930    7.0540 C.2   417  HEM417      0.0000
     42  O1D       40.2540   46.2960    6.0000 O.co2 417  HEM417      0.0000
     43  O2D       40.4800   45.6170    8.0760 O.co2 417  HEM417      0.0000
@<TRIPOS>BOND
     1    42    41   ar
     2    41    40    1
     3    41    43   ar
     4    40    39    1
     5    38    35    1
     6    39    36    1
     7    12     8    1
     8    12    13    1
     9    36    37   ar
    10    36    35   ar
    11     2    37    2
    12     2     7    1
    13    37    33   ar
    14     7     8    1
    15     7     6    2
    16    35    34   ar
    17     8     9    2
    18    15    14   ar
    19     1    33    1
    20     1     6    1
    21     1    17    1
    22     1    25    1
    23    33    34   ar
    24     6    10    1
    25    24    23    1
    26     9    11    1
    27     9    10    1
    28    34     5    2
    29    10     3    2
    30    17    18   ar
    31    17    21   ar
    32     3    18    1
    33    22    19    1
    34    18    19   ar
    35    21    20   ar
    36    21     4    1
    37    19    20   ar
    38    20    23    1
    39     4    26    2
    40    25    26    1
    41    25    29    2
    42     5    29    1
    43    26    27    1
    44    30    27    1
    45    27    28    2
    46    29    28    1
    47    28    31    1
    48    31    32    1
    49    14    13    1
    50    14    16   ar
