@<TRIPOS>MOLECULE
1iwj_CAM_A_1.pdb
 11 12 0 0 0
SMALL
GASTEIGER

@<TRIPOS>ATOM
      1  C1        46.6770   44.7450   14.5420 C.3   418  CAM418      0.0515
      2  C2        45.0680   44.6430   14.5060 C.2   418  CAM418      0.1498
      3  O         44.3530   44.6450   15.4880 O.2   418  CAM418     -0.2961
      4  C3        44.7390   44.5260   12.9930 C.3   418  CAM418      0.0645
      5  C4        46.2030   44.6090   12.3740 C.3   418  CAM418      0.0077
      6  C5        46.7780   46.0920   12.4540 C.3   418  CAM418      0.0009
      7  C6        47.0850   46.2080   14.0100 C.3   418  CAM418      0.0069
      8  C7        47.1080   43.7850   13.3760 C.3   418  CAM418      0.0066
      9  C8        46.7580   42.2420   13.5680 C.3   418  CAM418      0.0004
     10  C9        48.6570   43.6760   13.0560 C.3   418  CAM418      0.0004
     11  C10       47.2410   44.4790   15.9480 C.3   418  CAM418      0.0073
@<TRIPOS>BOND
     1     5     6    1
     2     5     4    1
     3     5     8    1
     4     6     7    1
     5     4     2    1
     6    10     8    1
     7     8     9    1
     8     8     1    1
     9     7     1    1
    10     2     1    1
    11     2     3    2
    12     1    11    1
