@<TRIPOS>MOLECULE
1iwj_HEM_A_1.pdb
 43 50 0 0 0
SMALL
GASTEIGER

@<TRIPOS>ATOM
      1 FE         48.5600   46.5240    8.7450 Fe    417  HEM417      0.0000
      2  CHA       45.4390   45.1180    8.6510 C.2   417  HEM417      0.0000
      3  CHB       49.9280   43.3440    9.0680 C.2   417  HEM417      0.0000
      4  CHC       51.6160   47.8930    9.2500 C.2   417  HEM417      0.0000
      5  CHD       47.1090   49.6440    9.1830 C.2   417  HEM417      0.0000
      6  NA        47.8490   44.6590    8.8430 N.ar  417  HEM417      0.0000
      7  C1A       46.5240   44.2470    8.7060 C.ar  417  HEM417      0.0000
      8  C2A       46.4210   42.7970    8.7080 C.ar  417  HEM417      0.0000
      9  C3A       47.6880   42.3130    8.8630 C.ar  417  HEM417      0.0000
     10  C4A       48.5590   43.4580    8.9540 C.ar  417  HEM417      0.0000
     11  CMA       48.1410   40.8680    8.9250 C.3   417  HEM417      0.0000
     12  CAA       45.1440   41.9760    8.5800 C.3   417  HEM417      0.0000
     13  CBA       44.5330   41.6430    9.9370 C.3   417  HEM417      0.0000
     14  CGA       43.3400   40.7050    9.8290 C.2   417  HEM417      0.0000
     15  O1A       43.0170   40.2670    8.6990 O.co2 417  HEM417      0.0000
     16  O2A       42.7260   40.4070   10.8780 O.co2 417  HEM417      0.0000
     17  NB        50.3680   45.7770    9.0800 N.2   417  HEM417      0.0000
     18  C1B       50.7820   44.4360    9.1110 C.2   417  HEM417      0.0000
     19  C2B       52.2380   44.3210    9.1340 C.2   417  HEM417      0.0000
     20  C3B       52.7220   45.6010    9.1920 C.2   417  HEM417      0.0000
     21  C4B       51.5530   46.4950    9.1670 C.2   417  HEM417      0.0000
     22  CMB       53.0490   43.0290    9.0660 C.3   417  HEM417      0.0000
     23  CAB       54.0390   46.0300    9.3440 C.3   417  HEM417      0.0000
     24  CBB       55.1670   45.5510    8.6940 C.3   417  HEM417      0.0000
     25  NC        49.1920   48.3480    9.2360 N.ar  417  HEM417      0.0000
     26  C1C       50.5150   48.7520    9.3000 C.ar  417  HEM417      0.0000
     27  C2C       50.6270   50.1950    9.4310 C.ar  417  HEM417      0.0000
     28  C3C       49.3670   50.6920    9.5070 C.ar  417  HEM417      0.0000
     29  C4C       48.4740   49.5310    9.3880 C.ar  417  HEM417      0.0000
     30  CMC       51.9200   51.0110    9.4510 C.3   417  HEM417      0.0000
     31  CAC       49.0470   52.0490    9.6050 C.3   417  HEM417      0.0000
     32  CBC       48.7580   52.6530   10.8340 C.3   417  HEM417      0.0000
     33  ND        46.7110   47.2390    8.8140 N.2   417  HEM417      0.0000
     34  C1D       46.2960   48.5710    8.8780 C.2   417  HEM417      0.0000
     35  C2D       44.8700   48.6830    8.7170 C.2   417  HEM417      0.0000
     36  C3D       44.3820   47.4140    8.6670 C.2   417  HEM417      0.0000
     37  C4D       45.5300   46.5150    8.7180 C.2   417  HEM417      0.0000
     38  CMD       44.0740   49.9650    8.5140 C.3   417  HEM417      0.0000
     39  CAD       42.9110   47.0080    8.5780 C.3   417  HEM417      0.0000
     40  CBD       42.4190   46.8930    7.1430 C.3   417  HEM417      0.0000
     41  CGD       41.0220   46.2960    7.0410 C.2   417  HEM417      0.0000
     42  O1D       40.3890   46.4630    5.9770 O.co2 417  HEM417      0.0000
     43  O2D       40.5610   45.6620    8.0170 O.co2 417  HEM417      0.0000
@<TRIPOS>BOND
     1    42    41   ar
     2    41    40    1
     3    41    43   ar
     4    40    39    1
     5    38    35    1
     6    39    36    1
     7    12     8    1
     8    12    13    1
     9     2     7    2
    10     2    37    1
    11    36    35    2
    12    36    37    1
    13    24    23    1
    14    15    14   ar
    15     7     8   ar
    16     7     6   ar
    17     8     9   ar
    18    35    34    1
    19    37    33    2
    20     1    33    1
    21     1     6    1
    22     1    17    1
    23     1    25    1
    24    33    34    1
    25     6    10   ar
    26     9    11    1
    27     9    10   ar
    28    34     5    2
    29    10     3    2
    30    22    19    1
    31     3    18    1
    32    17    18    2
    33    17    21    1
    34    18    19    1
    35    19    20    2
    36    21    20    1
    37    21     4    2
    38     5    29    1
    39    20    23    1
    40    25    26   ar
    41    25    29   ar
    42     4    26    1
    43    26    27   ar
    44    29    28   ar
    45    27    30    1
    46    27    28   ar
    47    28    31    1
    48    31    32    1
    49    14    13    1
    50    14    16   ar
