@<TRIPOS>MOLECULE
1iwk_HEM_A_1.pdb
 43 50 0 0 0
SMALL
GASTEIGER

@<TRIPOS>ATOM
      1 FE         48.2320   46.2300    9.0420 Fe    417  HEM417      0.0000
      2  CHA       45.1270   44.8010    9.0410 C.2   417  HEM417      0.0000
      3  CHB       49.6260   43.0860    9.2710 C.2   417  HEM417      0.0000
      4  CHC       51.3010   47.6310    9.4280 C.2   417  HEM417      0.0000
      5  CHD       46.7760   49.3000    9.6430 C.2   417  HEM417      0.0000
      6  NA        47.5310   44.3660    9.1470 N.ar  417  HEM417      0.0000
      7  C1A       46.2230   43.9410    9.0670 C.ar  417  HEM417      0.0000
      8  C2A       46.1400   42.4790    9.0360 C.ar  417  HEM417      0.0000
      9  C3A       47.4070   42.0190    9.1320 C.ar  417  HEM417      0.0000
     10  C4A       48.2570   43.1800    9.2150 C.ar  417  HEM417      0.0000
     11  CMA       47.8680   40.5690    9.0700 C.3   417  HEM417      0.0000
     12  CAA       44.8870   41.6240    8.8510 C.3   417  HEM417      0.0000
     13  CBA       44.2900   41.2640   10.1990 C.3   417  HEM417      0.0000
     14  CGA       43.0180   40.4350   10.0780 C.2   417  HEM417      0.0000
     15  O1A       42.6420   40.0660    8.9460 O.co2 417  HEM417      0.0000
     16  O2A       42.3910   40.1520   11.1210 O.co2 417  HEM417      0.0000
     17  NB        50.0480   45.5250    9.2710 N.2   417  HEM417      0.0000
     18  C1B       50.4650   44.1910    9.2880 C.2   417  HEM417      0.0000
     19  C2B       51.9220   44.0860    9.3170 C.2   417  HEM417      0.0000
     20  C3B       52.4090   45.3690    9.3340 C.2   417  HEM417      0.0000
     21  C4B       51.2390   46.2470    9.3400 C.2   417  HEM417      0.0000
     22  CMB       52.7230   42.7780    9.3220 C.3   417  HEM417      0.0000
     23  CAB       53.7310   45.8000    9.3310 C.3   417  HEM417      0.0000
     24  CBB       54.8410   45.1170    8.8560 C.3   417  HEM417      0.0000
     25  NC        48.8870   48.0570    9.4550 N.ar  417  HEM417      0.0000
     26  C1C       50.1950   48.4780    9.4930 C.ar  417  HEM417      0.0000
     27  C2C       50.2830   49.9290    9.6400 C.ar  417  HEM417      0.0000
     28  C3C       49.0120   50.4040    9.7100 C.ar  417  HEM417      0.0000
     29  C4C       48.1560   49.2240    9.6480 C.ar  417  HEM417      0.0000
     30  CMC       51.5640   50.7530    9.6940 C.3   417  HEM417      0.0000
     31  CAC       48.6070   51.7470    9.7040 C.3   417  HEM417      0.0000
     32  CBC       48.5550   52.5250   10.8620 C.3   417  HEM417      0.0000
     33  ND        46.3960   46.9020    9.2140 N.2   417  HEM417      0.0000
     34  C1D       45.9680   48.2210    9.4090 C.2   417  HEM417      0.0000
     35  C2D       44.5420   48.3320    9.3580 C.2   417  HEM417      0.0000
     36  C3D       44.0770   47.0680    9.1910 C.2   417  HEM417      0.0000
     37  C4D       45.2200   46.1850    9.1120 C.2   417  HEM417      0.0000
     38  CMD       43.7200   49.6130    9.4470 C.3   417  HEM417      0.0000
     39  CAD       42.6190   46.6500    9.1770 C.3   417  HEM417      0.0000
     40  CBD       42.0540   46.5020    7.7850 C.3   417  HEM417      0.0000
     41  CGD       40.6930   45.8370    7.7930 C.2   417  HEM417      0.0000
     42  O1D       40.0130   45.8770    6.7450 O.co2 417  HEM417      0.0000
     43  O2D       40.3070   45.2760    8.8480 O.co2 417  HEM417      0.0000
@<TRIPOS>BOND
     1    42    41   ar
     2    40    41    1
     3    40    39    1
     4    41    43   ar
     5    12     8    1
     6    12    13    1
     7    24    23    1
     8    15    14   ar
     9     8     7   ar
    10     8     9   ar
    11     2     7    2
    12     2    37    1
    13     1     6    1
    14     1    33    1
    15     1    17    1
    16     1    25    1
    17     7     6   ar
    18    11     9    1
    19    37    36    1
    20    37    33    2
    21     9    10   ar
    22     6    10   ar
    23    39    36    1
    24    36    35    2
    25    33    34    1
    26    10     3    2
    27     3    18    1
    28    17    18    2
    29    17    21    1
    30    18    19    1
    31    19    22    1
    32    19    20    2
    33    23    20    1
    34    20    21    1
    35    21     4    2
    36    35    34    1
    37    35    38    1
    38    34     5    2
    39     4    26    1
    40    25    26   ar
    41    25    29   ar
    42    26    27   ar
    43    27    30    1
    44    27    28   ar
    45     5    29    1
    46    29    28   ar
    47    31    28    1
    48    31    32    1
    49    14    13    1
    50    14    16   ar
