@<TRIPOS>MOLECULE
1iwo_TG1_A_1.pdb
 46 48 0 0 0
SMALL
GASTEIGER

@<TRIPOS>ATOM
      1  C34       -4.7560  -25.4280   16.5200 C.3   1001  TG11001     0.0474
      2  C11       -3.9110  -25.2020   15.2150 C.3   1001  TG11001     0.2470
      3  C7        -4.7930  -25.2240   13.8920 C.3   1001  TG11001     0.2380
      4  C8        -5.6360  -23.8940   13.6420 C.3   1001  TG11001     0.2067
      5  C9        -6.5120  -23.9090   12.3670 C.3   1001  TG11001     0.0869
      6  C10       -5.8760  -24.2380   10.9580 C.3   1001  TG11001     0.1465
      7  C1        -5.1500  -25.6590   10.7120 C.3   1001  TG11001     0.1022
      8  C2        -4.8610  -25.9670    9.1910 C.3   1001  TG11001     0.2195
      9  O1        -5.1840  -27.3350    8.8360 O.3   1001  TG11001    -0.4477
     10  C13       -5.6400  -27.4830    7.4890 C.2   1001  TG11001     0.3170
     11  O2        -6.0480  -26.5960    6.7450 O.2   1001  TG11001    -0.2501
     12  C14       -5.4930  -28.9580    7.0610 C.3   1001  TG11001     0.1096
     13  C15       -4.8160  -29.1870    5.7030 C.3   1001  TG11001     0.0116
     14  C16       -5.6160  -28.8030    4.4390 C.3   1001  TG11001     0.0006
     15  C17       -4.7570  -28.0550    3.3850 C.3   1001  TG11001     0.0000
     16  C18       -4.4280  -28.9270    2.1510 C.3   1001  TG11001     0.0000
     17  C19       -4.7350  -28.2840    0.8020 C.3   1001  TG11001     0.0000
     18  C20       -6.0860  -28.8100    0.3100 C.3   1001  TG11001     0.0000
     19  C3        -3.3400  -25.9140    8.9940 C.3   1001  TG11001     0.2271
     20  O3        -3.2190  -24.5750    8.3140 O.3   1001  TG11001    -0.4414
     21  C21       -2.3440  -24.4220    7.3120 C.2   1001  TG11001     0.3372
     22  O4        -1.3640  -25.2690    7.0250 O.2   1001  TG11001    -0.2453
     23  C22       -2.7840  -23.3360    6.2560 C.2   1001  TG11001     0.0495
     24  C23       -3.5130  -24.0000    5.1430 C.3   1001  TG11001     0.0375
     25  C24       -2.5960  -22.0260    6.1810 C.2   1001  TG11001    -0.0236
     26  C25       -1.9060  -21.0850    7.1290 C.3   1001  TG11001     0.0306
     27  C4        -2.7950  -25.8700   10.4180 C.2   1001  TG11001    -0.0052
     28  C26       -1.3020  -25.8590   10.6100 C.3   1001  TG11001     0.0296
     29  C5        -3.7720  -25.7430   11.3540 C.2   1001  TG11001     0.0000
     30  C6        -3.6260  -25.5420   12.9070 C.3   1001  TG11001     0.2211
     31  O5        -3.0120  -26.6660   13.5810 O.3   1001  TG11001    -0.4435
     32  C12       -2.9270  -26.3330   14.8980 C.2   1001  TG11001     0.3477
     33  O12       -2.1720  -26.8450   15.7280 O.2   1001  TG11001    -0.2473
     34  C31       -5.0250  -23.0010   10.5050 C.3   1001  TG11001     0.0443
     35  O9        -7.0120  -24.0380   10.0090 O.3   1001  TG11001    -0.4552
     36  C32       -8.1680  -24.6950    9.7500 C.2   1001  TG11001     0.3173
     37  O10       -8.4580  -25.8190   10.1310 O.2   1001  TG11001    -0.2501
     38  C33       -9.0280  -23.8650    8.9000 C.3   1001  TG11001     0.1212
     39  O7        -4.7780  -22.6910   13.7680 O.3   1001  TG11001    -0.4493
     40  C27       -4.8620  -21.8520   14.9080 C.2   1001  TG11001     0.3169
     41  O8        -5.6530  -21.9130   15.8470 O.2   1001  TG11001    -0.2501
     42  C28       -3.7260  -20.8790   14.8630 C.3   1001  TG11001     0.1096
     43  C29       -4.2550  -19.4650   15.1050 C.3   1001  TG11001     0.0116
     44  C30       -3.0920  -18.6590   15.6320 C.3   1001  TG11001     0.0006
     45  O6        -5.6960  -26.3960   13.9030 O.3   1001  TG11001    -0.2147
     46  O11       -2.9620  -24.1090   15.4390 O.3   1001  TG11001    -0.2114
@<TRIPOS>BOND
     1    18    17    1
     2    17    16    1
     3    16    15    1
     4    15    14    1
     5    14    13    1
     6    24    23    1
     7    13    12    1
     8    25    23    2
     9    25    26    1
    10    23    21    1
    11    11    10    2
    12    22    21    2
    13    12    10    1
    14    21    20    1
    15    10     9    1
    16    20    19    1
    17     9     8    1
    18    38    36    1
    19    19     8    1
    20    19    27    1
    21     8     7    1
    22    36    35    1
    23    36    37    2
    24    35     6    1
    25    27    28    1
    26    27    29    2
    27    34     6    1
    28     7     6    1
    29     7    29    1
    30     6     5    1
    31    29    30    1
    32     5     4    1
    33    30    31    1
    34    30     3    1
    35    31    32    1
    36     4    39    1
    37     4     3    1
    38    39    40    1
    39     3    45    1
    40     3     2    1
    41    42    40    1
    42    42    43    1
    43    32     2    1
    44    32    33    2
    45    40    41    2
    46    43    44    1
    47     2    46    1
    48     2     1    1
