@<TRIPOS>MOLECULE
1ix1_BB2_A_1.pdb
 27 27 0 0 0
SMALL
GASTEIGER

@<TRIPOS>ATOM
      1  C5        51.0870   88.0430    0.6150 C.3   1301  BB21301     0.0603
      2  C3        52.1150   86.9900    0.2480 C.2   1301  BB21301     0.0873
      3  O4        51.8560   86.2160   -0.6720 O.2   1301  BB21301    -0.5395
      4  N1        53.2250   86.9530    0.9720 N.am  1301  BB21301    -0.2030
      5  O2        54.1310   86.0840    0.7550 O.3   1301  BB21301    -0.4026
      6  C6        50.2270   87.6500    1.8400 C.3   1301  BB21301     0.0848
      7  C12       49.0070   88.5810    1.7630 C.2   1301  BB21301     0.2417
      8  O13       49.0950   89.8200    1.7280 O.2   1301  BB21301    -0.2733
      9  C7        50.9520   87.9390    3.1770 C.3   1301  BB21301     0.0142
     10  C8        51.0260   86.9580    4.3640 C.3   1301  BB21301     0.0262
     11  C9        49.6490   86.4390    4.7930 C.2   1301  BB21301    -0.0307
     12  C10       49.1710   86.5660    6.2420 C.2   1301  BB21301    -0.0304
     13  C11       47.7520   86.1430    6.6200 C.3   1301  BB21301     0.0303
     14  N14       47.8620   87.8910    1.7600 N.am  1301  BB21301    -0.1978
     15  C15       46.5230   88.4790    1.7790 C.3   1301  BB21301     0.1715
     16  C16       45.7220   88.3900    0.4630 C.3   1301  BB21301     0.0289
     17  C18       46.4830   88.4400   -0.8600 C.3   1301  BB21301     0.0023
     18  C17       44.4280   89.2080    0.3790 C.3   1301  BB21301     0.0023
     19  C19       45.7700   87.9310    2.9870 C.2   1301  BB21301     0.2495
     20  O20       45.6690   86.6970    3.0480 O.2   1301  BB21301    -0.2727
     21  N21       45.3440   88.7640    3.9760 N.am  1301  BB21301    -0.2504
     22  C22       44.7040   88.3810    5.2440 C.3   1301  BB21301     0.1487
     23  C23       45.5050   90.2400    3.9260 C.2   1301  BB21301     0.0634
     24  C24       44.9740   90.7940    5.2240 C.2   1301  BB21301    -0.0078
     25  C25       44.4850   89.6520    6.0630 C.3   1301  BB21301     0.0556
     26  C26       43.3410   87.6870    5.1240 C.2   1301  BB21301     0.2276
     27  O27       42.4970   88.0990    4.3060 O.2   1301  BB21301    -0.2865
@<TRIPOS>BOND
     1    17    16    1
     2     3     2    2
     3     2     1    1
     4     2     4   am
     5    18    16    1
     6    16    15    1
     7     1     6    1
     8     5     4    1
     9     8     7    2
    10    14     7   am
    11    14    15    1
    12     7     6    1
    13    15    19    1
    14     6     9    1
    15    19    20    2
    16    19    21   am
    17     9    10    1
    18    23    21    1
    19    23    24    2
    20    21    22    1
    21    27    26    2
    22    10    11    1
    23    11    12    2
    24    26    22    1
    25    24    25    1
    26    22    25    1
    27    12    13    1
