@<TRIPOS>MOLECULE
1ix1_MHA_A_1.pdb
 13 12 0 0 0
SMALL
GASTEIGER

@<TRIPOS>ATOM
      1  N1        62.5040   96.3450   11.8690 N.3   401  MHA401     -0.2457
      2  C1        61.3520   95.6670   11.1760 C.3   401  MHA401      0.1886
      3  C2        59.9460   95.9900   11.7220 C.2   401  MHA401      0.3809
      4  O1        59.3930   97.0640   11.4620 O.co2 401  MHA401     -0.2441
      5  O2        59.3330   95.0530   12.4060 O.co2 401  MHA401     -0.2441
      6  C3        63.4190   97.0710   10.9360 C.3   401  MHA401      0.1886
      7  C4        63.1960   97.2820    9.4420 C.2   401  MHA401      0.3809
      8  O3        64.1630   97.3640    8.6720 O.co2 401  MHA401     -0.2441
      9  O4        61.9760   97.5760    9.0550 O.co2 401  MHA401     -0.2441
     10  C5        62.3220   97.0400   13.1870 C.3   401  MHA401      0.1628
     11  C6        62.3150   98.5660   13.3910 C.2   401  MHA401      0.2771
     12  O5        61.9020   99.3360   12.5100 O.2   401  MHA401     -0.2701
     13  N2        62.7770   99.0100   14.5400 N.am  401  MHA401     -0.0866
@<TRIPOS>BOND
     1     8     7   ar
     2     9     7   ar
     3     7     6    1
     4     6     1    1
     5     2     3    1
     6     2     1    1
     7     4     3   ar
     8     3     5   ar
     9     1    10    1
    10    12    11    2
    11    10    11    1
    12    11    13   am
