@<TRIPOS>MOLECULE
1ix3_HEM_A_1.pdb
 43 50 0 0 0
SMALL
GASTEIGER

@<TRIPOS>ATOM
      1 FE        -91.5710  -12.7710  -87.8560 Fe    300  HEM300      0.0000
      2  CHA      -90.0940   -9.7250  -87.5030 C.2   300  HEM300      0.0000
      3  CHB      -90.1580  -13.0950  -90.9740 C.2   300  HEM300      0.0000
      4  CHC      -92.9780  -15.8810  -88.2050 C.2   300  HEM300      0.0000
      5  CHD      -93.0770  -12.4480  -84.8130 C.2   300  HEM300      0.0000
      6  NA       -90.3940  -11.6160  -89.0250 N.ar  300  HEM300      0.0000
      7  C1A      -89.8920  -10.3700  -88.7350 C.ar  300  HEM300      0.0000
      8  C2A      -89.1490   -9.8270  -89.8620 C.ar  300  HEM300      0.0000
      9  C3A      -89.1610  -10.7770  -90.8410 C.ar  300  HEM300      0.0000
     10  C4A      -89.9240  -11.9020  -90.3010 C.ar  300  HEM300      0.0000
     11  CMA      -88.5430  -10.7230  -92.2240 C.3   300  HEM300      0.0000
     12  CAA      -88.5020   -8.4460  -89.9120 C.3   300  HEM300      0.0000
     13  CBA      -87.0100   -8.4260  -89.4800 C.3   300  HEM300      0.0000
     14  CGA      -86.2960   -7.2400  -89.7690 C.2   300  HEM300      0.0000
     15  O1A      -86.1010   -6.4580  -88.7580 O.co2 300  HEM300      0.0000
     16  O2A      -85.8720   -6.9310  -90.9050 O.co2 300  HEM300      0.0000
     17  NB       -91.6270  -14.1610  -89.3140 N.2   300  HEM300      0.0000
     18  C1B      -91.0390  -14.1000  -90.5730 C.2   300  HEM300      0.0000
     19  C2B      -91.4440  -15.2200  -91.4190 C.2   300  HEM300      0.0000
     20  C3B      -92.0700  -16.1130  -90.5730 C.2   300  HEM300      0.0000
     21  C4B      -92.2600  -15.3920  -89.2990 C.2   300  HEM300      0.0000
     22  CMB      -91.1650  -15.3060  -92.9260 C.3   300  HEM300      0.0000
     23  CAB      -92.4640  -17.5790  -90.7900 C.3   300  HEM300      0.0000
     24  CBB      -93.2590  -17.9250  -92.0670 C.3   300  HEM300      0.0000
     25  NC       -92.7460  -13.9330  -86.7220 N.ar  300  HEM300      0.0000
     26  C1C      -93.2410  -15.2140  -87.0300 C.ar  300  HEM300      0.0000
     27  C2C      -94.0760  -15.7280  -85.9430 C.ar  300  HEM300      0.0000
     28  C3C      -94.0520  -14.7740  -84.9780 C.ar  300  HEM300      0.0000
     29  C4C      -93.2740  -13.6610  -85.4810 C.ar  300  HEM300      0.0000
     30  CMC      -94.7950  -17.0720  -85.9660 C.3   300  HEM300      0.0000
     31  CAC      -94.7040  -14.8390  -83.5790 C.3   300  HEM300      0.0000
     32  CBC      -96.2200  -14.5130  -83.6130 C.3   300  HEM300      0.0000
     33  ND       -91.5450  -11.3800  -86.4210 N.2   300  HEM300      0.0000
     34  C1D      -92.2170  -11.4140  -85.1990 C.2   300  HEM300      0.0000
     35  C2D      -91.9140  -10.2250  -84.3770 C.2   300  HEM300      0.0000
     36  C3D      -91.1080   -9.4570  -85.1450 C.2   300  HEM300      0.0000
     37  C4D      -90.8810  -10.1900  -86.4240 C.2   300  HEM300      0.0000
     38  CMD      -92.4540   -9.9860  -82.9790 C.3   300  HEM300      0.0000
     39  CAD      -90.5120   -8.0890  -84.8610 C.3   300  HEM300      0.0000
     40  CBD      -88.9900   -8.1610  -84.4090 C.3   300  HEM300      0.0000
     41  CGD      -88.5230   -6.9250  -83.9180 C.2   300  HEM300      0.0000
     42  O1D      -88.4040   -6.7470  -82.6700 O.co2 300  HEM300      0.0000
     43  O2D      -88.2210   -5.9880  -84.7030 O.co2 300  HEM300      0.0000
@<TRIPOS>BOND
     1    22    19    1
     2    11     9    1
     3    24    23    1
     4    19    20    2
     5    19    18    1
     6     3    18    1
     7     3    10    2
     8    16    14   ar
     9     9    10   ar
    10     9     8   ar
    11    23    20    1
    12    20    21    1
    13    18    17    2
    14    10     6   ar
    15    12     8    1
    16    12    13    1
    17     8     7   ar
    18    14    13    1
    19    14    15   ar
    20    17    21    1
    21    17     1    1
    22    21     4    2
    23     6     7   ar
    24     6     1    1
    25     7     2    2
    26     4    26    1
    27     1    25    1
    28     1    33    1
    29     2    37    1
    30    26    25   ar
    31    26    27   ar
    32    25    29   ar
    33    37    33    2
    34    37    36    1
    35    33    34    1
    36    30    27    1
    37    27    28   ar
    38    29    28   ar
    39    29     5    1
    40    34     5    2
    41    34    35    1
    42    36    39    1
    43    36    35    2
    44    28    31    1
    45    39    40    1
    46    43    41   ar
    47    40    41    1
    48    35    38    1
    49    41    42   ar
    50    32    31    1
