@<TRIPOS>MOLECULE
1ix4_HEM_A_1.pdb
 43 50 0 0 0
SMALL
GASTEIGER

@<TRIPOS>ATOM
      1 FE        -92.0340  -12.7720  -88.1670 Fe    300  HEM300      0.0000
      2  CHA      -90.2940   -9.8760  -87.7260 C.2   300  HEM300      0.0000
      3  CHB      -90.6940  -13.0870  -91.3150 C.2   300  HEM300      0.0000
      4  CHC      -93.5050  -15.8600  -88.4950 C.2   300  HEM300      0.0000
      5  CHD      -93.5430  -12.3870  -85.1320 C.2   300  HEM300      0.0000
      6  NA       -90.7870  -11.6630  -89.3160 N.ar  300  HEM300      0.0000
      7  C1A      -90.1690  -10.4750  -88.9870 C.ar  300  HEM300      0.0000
      8  C2A      -89.4000   -9.9490  -90.1090 C.ar  300  HEM300      0.0000
      9  C3A      -89.5520  -10.8320  -91.1350 C.ar  300  HEM300      0.0000
     10  C4A      -90.3710  -11.9310  -90.6100 C.ar  300  HEM300      0.0000
     11  CMA      -89.0160  -10.7450  -92.5480 C.3   300  HEM300      0.0000
     12  CAA      -88.5880   -8.6450  -90.1040 C.3   300  HEM300      0.0000
     13  CBA      -87.1310   -8.7900  -89.5480 C.3   300  HEM300      0.0000
     14  CGA      -86.3970   -7.5910  -89.2940 C.2   300  HEM300      0.0000
     15  O1A      -85.2060   -7.7670  -88.8080 O.co2 300  HEM300      0.0000
     16  O2A      -86.8240   -6.4340  -89.5060 O.co2 300  HEM300      0.0000
     17  NB       -92.0970  -14.1760  -89.6030 N.2   300  HEM300      0.0000
     18  C1B      -91.5160  -14.1270  -90.8670 C.2   300  HEM300      0.0000
     19  C2B      -91.8630  -15.3020  -91.6660 C.2   300  HEM300      0.0000
     20  C3B      -92.4530  -16.1780  -90.7920 C.2   300  HEM300      0.0000
     21  C4B      -92.7250  -15.4090  -89.5670 C.2   300  HEM300      0.0000
     22  CMB      -91.5780  -15.4550  -93.1590 C.3   300  HEM300      0.0000
     23  CAB      -92.7570  -17.6580  -90.9620 C.3   300  HEM300      0.0000
     24  CBB      -93.8930  -17.9880  -91.9450 C.3   300  HEM300      0.0000
     25  NC       -93.2410  -13.8950  -87.0320 N.ar  300  HEM300      0.0000
     26  C1C      -93.7500  -15.1790  -87.3210 C.ar  300  HEM300      0.0000
     27  C2C      -94.5650  -15.6770  -86.2140 C.ar  300  HEM300      0.0000
     28  C3C      -94.5670  -14.6940  -85.2850 C.ar  300  HEM300      0.0000
     29  C4C      -93.7670  -13.6000  -85.7960 C.ar  300  HEM300      0.0000
     30  CMC      -95.2440  -17.0400  -86.1820 C.3   300  HEM300      0.0000
     31  CAC      -95.2620  -14.7110  -83.9070 C.3   300  HEM300      0.0000
     32  CBC      -96.7750  -14.3940  -83.9980 C.3   300  HEM300      0.0000
     33  ND       -91.9520  -11.3850  -86.7260 N.2   300  HEM300      0.0000
     34  C1D      -92.6550  -11.3750  -85.5210 C.2   300  HEM300      0.0000
     35  C2D      -92.3500  -10.1640  -84.7230 C.2   300  HEM300      0.0000
     36  C3D      -91.5000   -9.4440  -85.4860 C.2   300  HEM300      0.0000
     37  C4D      -91.2100  -10.2430  -86.7090 C.2   300  HEM300      0.0000
     38  CMD      -92.9230   -9.8640  -83.3500 C.3   300  HEM300      0.0000
     39  CAD      -90.9060   -8.0740  -85.2460 C.3   300  HEM300      0.0000
     40  CBD      -89.4600   -8.1530  -84.5970 C.3   300  HEM300      0.0000
     41  CGD      -88.9940   -6.8850  -84.1880 C.2   300  HEM300      0.0000
     42  O1D      -88.8710   -6.6320  -82.9560 O.co2 300  HEM300      0.0000
     43  O2D      -88.6940   -5.9970  -85.0330 O.co2 300  HEM300      0.0000
@<TRIPOS>BOND
     1    22    19    1
     2    11     9    1
     3    24    23    1
     4    19    18    1
     5    19    20    2
     6     3    18    1
     7     3    10    2
     8     9    10   ar
     9     9     8   ar
    10    23    20    1
    11    18    17    2
    12    20    21    1
    13    10     6   ar
    14     8    12    1
    15     8     7   ar
    16    12    13    1
    17    17    21    1
    18    17     1    1
    19    21     4    2
    20    13    14    1
    21    16    14   ar
    22     6     7   ar
    23     6     1    1
    24    14    15   ar
    25     7     2    2
    26     4    26    1
    27     1    25    1
    28     1    33    1
    29     2    37    1
    30    26    25   ar
    31    26    27   ar
    32    25    29   ar
    33    33    37    2
    34    33    34    1
    35    37    36    1
    36    27    30    1
    37    27    28   ar
    38    29    28   ar
    39    29     5    1
    40    34     5    2
    41    34    35    1
    42    36    39    1
    43    36    35    2
    44    28    31    1
    45    39    40    1
    46    43    41   ar
    47    35    38    1
    48    40    41    1
    49    41    42   ar
    50    32    31    1
