@<TRIPOS>MOLECULE
1ix6_PLP_A_1.pdb
 15 15 0 0 0
SMALL
GASTEIGER

@<TRIPOS>ATOM
      1  N1        26.7170    5.1980  -14.2460 N.ar  413  PLP413     -0.2452
      2  C2        26.2670    6.1880  -15.0780 C.ar  413  PLP413      0.0978
      3  C2A       26.9750    6.4830  -16.3820 C.3   413  PLP413      0.0555
      4  C3        25.1990    6.9320  -14.7430 C.ar  413  PLP413      0.2049
      5  O3        24.8470    7.9620  -15.5700 O.3   413  PLP413     -0.2857
      6  C4        24.5330    6.7030  -13.5610 C.ar  413  PLP413      0.0182
      7  C4A       23.2400    7.5200  -13.2470 C.3   413  PLP413      0.0342
      8  C5        24.9750    5.6900  -12.7290 C.ar  413  PLP413      0.0261
      9  C6        26.0770    4.9400  -13.0610 C.ar  413  PLP413      0.0965
     10  C5A       24.3070    5.4950  -11.4090 C.3   413  PLP413      0.1815
     11  O4P       23.3780    4.6530  -11.1900 O.3   413  PLP413     -0.2653
     12  P         22.8130    4.6840   -9.8490 P.3   413  PLP413      0.5329
     13  O1P       21.7760    3.6570   -9.9490 O.2   413  PLP413     -0.2224
     14  O2P       22.1050    5.9860   -9.5100 O.3   413  PLP413     -0.1145
     15  O3P       23.8030    4.5650   -8.7780 O.3   413  PLP413     -0.1145
@<TRIPOS>BOND
     1     3     2    1
     2     5     4    1
     3     2     4   ar
     4     2     1   ar
     5     4     6   ar
     6     1     9   ar
     7     6     7    1
     8     6     8   ar
     9     9     8   ar
    10     8    10    1
    11    10    11    1
    12    11    12    1
    13    13    12    2
    14    12    14    1
    15    12    15    1
