@<TRIPOS>MOLECULE
1ix7_PLP_A_1.pdb
 15 15 0 0 0
SMALL
GASTEIGER

@<TRIPOS>ATOM
      1  N1        26.8180    5.0460  -14.3860 N.ar  413  PLP413     -0.2452
      2  C2        26.2590    5.9430  -15.1960 C.ar  413  PLP413      0.0978
      3  C2A       26.8750    6.1670  -16.5300 C.3   413  PLP413      0.0555
      4  C3        25.1620    6.6150  -14.7950 C.ar  413  PLP413      0.2049
      5  O3        24.5880    7.5230  -15.5970 O.3   413  PLP413     -0.2857
      6  C4        24.6370    6.4080  -13.5530 C.ar  413  PLP413      0.0182
      7  C4A       23.3860    7.1680  -13.1660 C.3   413  PLP413      0.0342
      8  C5        25.2100    5.4880  -12.7220 C.ar  413  PLP413      0.0261
      9  C6        26.3080    4.8190  -13.1260 C.ar  413  PLP413      0.0965
     10  C5A       24.7070    5.2430  -11.3600 C.3   413  PLP413      0.1815
     11  O4P       23.5530    4.3800  -11.2280 O.3   413  PLP413     -0.2653
     12  P         22.7030    4.6370   -9.7540 P.3   413  PLP413      0.5329
     13  O1P       21.7690    3.6180  -10.0730 O.2   413  PLP413     -0.2224
     14  O2P       22.2170    6.0670   -9.8320 O.3   413  PLP413     -0.1145
     15  O3P       23.7240    4.4350   -8.7570 O.3   413  PLP413     -0.1145
@<TRIPOS>BOND
     1     3     2    1
     2     5     4    1
     3     2     4   ar
     4     2     1   ar
     5     4     6   ar
     6     1     9   ar
     7     6     7    1
     8     6     8   ar
     9     9     8   ar
    10     8    10    1
    11    10    11    1
    12    11    12    1
    13    13    12    2
    14    14    12    1
    15    12    15    1
