@<TRIPOS>MOLECULE
1ix8_PLP_A_1.pdb
 15 15 0 0 0
SMALL
GASTEIGER

@<TRIPOS>ATOM
      1  N1        26.7230    5.3080  -14.4690 N.ar  413  PLP413     -0.2452
      2  C2        26.0400    6.1670  -15.2740 C.ar  413  PLP413      0.0978
      3  C2A       26.6080    6.5340  -16.6510 C.3   413  PLP413      0.0555
      4  C3        24.8600    6.6990  -14.8660 C.ar  413  PLP413      0.2049
      5  O3        24.1990    7.5710  -15.7100 O.3   413  PLP413     -0.2857
      6  C4        24.3380    6.3760  -13.6260 C.ar  413  PLP413      0.0182
      7  C4A       22.9920    6.9940  -13.2150 C.3   413  PLP413      0.0342
      8  C5        25.0450    5.4910  -12.8020 C.ar  413  PLP413      0.0261
      9  C6        26.2400    4.9690  -13.2450 C.ar  413  PLP413      0.0965
     10  C5A       24.6050    5.0590  -11.4030 C.3   413  PLP413      0.1815
     11  O4P       23.3350    5.2620  -11.0400 O.3   413  PLP413     -0.2653
     12  P         22.6080    4.7560   -9.6880 P.3   413  PLP413      0.5329
     13  O1P       21.8720    3.5590  -10.0860 O.2   413  PLP413     -0.2224
     14  O2P       21.9050    5.9900   -9.5500 O.3   413  PLP413     -0.1145
     15  O3P       23.6390    4.5890   -8.6410 O.3   413  PLP413     -0.1145
@<TRIPOS>BOND
     1     3     2    1
     2     5     4    1
     3     2     4   ar
     4     2     1   ar
     5     4     6   ar
     6     1     9   ar
     7     6     7    1
     8     6     8   ar
     9     9     8   ar
    10     8    10    1
    11    10    11    1
    12    11    12    1
    13    13    12    2
    14    12    14    1
    15    12    15    1
