@<TRIPOS>MOLECULE
1ixe_COA_A_1.pdb
 48 50 0 0 0
SMALL
GASTEIGER

@<TRIPOS>ATOM
      1  N1A        5.3530   -9.3470  -31.3390 N.2   401  COA401      0.0021
      2  C2A        5.5210  -10.1720  -32.4550 C.3   401  COA401      0.5254
      3  N3A        6.2030  -11.3400  -32.4290 N.2   401  COA401     -0.0055
      4  C4A        6.6850  -11.7140  -31.1950 C.2   401  COA401      0.3518
      5  C5A        6.5730  -10.9850  -29.9760 C.2   401  COA401      0.2526
      6  C6A        5.7880   -9.7170  -30.0640 C.2   401  COA401      0.4393
      7  N6A        5.4870   -9.0340  -28.9970 N.pl3 401  COA401      0.2180
      8  N7A        7.1840  -11.6550  -28.9560 N.2   401  COA401     -0.2095
      9  C8A        7.2730  -12.8820  -29.4120 C.3   401  COA401      0.3377
     10  N9A        7.3520  -12.8740  -30.8140 N.pl3 401  COA401     -0.1439
     11  C1B        8.0070  -13.8220  -31.7270 C.3   401  COA401      0.3185
     12  C2B        9.4410  -13.8990  -31.3220 C.3   401  COA401      0.2543
     13  O2B       10.1550  -12.7680  -31.8620 O.3   401  COA401     -0.2131
     14  C3B        9.8800  -15.2540  -31.8510 C.3   401  COA401      0.1928
     15  O3B       10.4910  -15.1960  -33.1210 O.3   401  COA401     -0.2673
     16  P3B       10.5940  -16.4730  -34.2330 P.3   401  COA401      0.5327
     17  O7A        9.2430  -16.8570  -35.0120 O.3   401  COA401     -0.1145
     18  O8A       11.5940  -15.5550  -35.0630 O.2   401  COA401     -0.2224
     19  O9A       11.3130  -17.7000  -33.4990 O.3   401  COA401     -0.1145
     20  C4B        8.5860  -16.1020  -31.5710 C.3   401  COA401      0.1795
     21  O4B        7.4960  -15.1070  -31.2790 O.3   401  COA401     -0.3136
     22  C5B        8.5960  -17.1310  -30.3920 C.3   401  COA401      0.1812
     23  O5B        8.7650  -16.4150  -29.1140 O.3   401  COA401     -0.3112
     24  P1A        8.6930  -16.5730  -27.4990 P.3   401  COA401      0.2189
     25  O1A        7.2870  -16.8950  -27.0240 O.3   401  COA401     -0.4371
     26  O2A        9.8150  -17.4710  -27.0260 O.2   401  COA401     -0.5170
     27  O3A        9.1110  -15.1320  -26.9850 O.3   401  COA401     -0.2703
     28  P2A       10.6220  -14.5880  -26.6150 P.3   401  COA401      0.2188
     29  O4A       11.1200  -15.3110  -25.3260 O.3   401  COA401     -0.4371
     30  O5A       11.6350  -14.6620  -27.7940 O.2   401  COA401     -0.5170
     31  O6A       10.3460  -13.0230  -26.3560 O.3   401  COA401     -0.3138
     32  CBP        9.7470  -11.0710  -25.0380 C.3   401  COA401      0.0645
     33  CCP        9.7990  -12.6170  -25.1150 C.3   401  COA401      0.1519
     34  CDP        9.0970  -10.6590  -23.7050 C.3   401  COA401      0.0056
     35  CEP       11.2250  -10.5910  -24.9930 C.3   401  COA401      0.0056
     36  CAP        8.9250  -10.6170  -26.3400 C.3   401  COA401      0.2312
     37  OAP        7.6080  -11.1880  -26.2710 O.3   401  COA401     -0.2131
     38  C9P        8.8650   -9.0560  -26.5250 C.2   401  COA401      0.2719
     39  O9P        9.8990   -8.4090  -27.0110 O.2   401  COA401     -0.2706
     40  N8P        7.7190   -8.4540  -26.1350 N.am  401  COA401     -0.2028
     41  C7P        7.3710   -7.1460  -26.7340 C.3   401  COA401      0.1248
     42  C6P        7.6410   -6.0650  -25.6710 C.3   401  COA401      0.1102
     43  C5P        6.9840   -6.3600  -24.3550 C.2   401  COA401      0.2432
     44  O5P        5.7530   -6.1440  -24.1270 O.2   401  COA401     -0.2733
     45  N4P        7.7750   -6.8800  -23.4780 N.am  401  COA401     -0.2044
     46  C3P        7.9580   -6.3770  -22.0760 C.3   401  COA401      0.1276
     47  C2P        7.1760   -7.1490  -21.0350 C.3   401  COA401      0.0920
     48  S1P        7.8960   -8.7930  -20.9100 S.3   401  COA401     -0.0802
@<TRIPOS>BOND
     1    18    16    2
     2    17    16    1
     3    16    19    1
     4    16    15    1
     5    15    14    1
     6     2     3    1
     7     2     1    1
     8     3     4    2
     9    13    12    1
    10    14    20    1
    11    14    12    1
    12    11    12    1
    13    11    21    1
    14    11    10    1
    15    20    21    1
    16    20    22    1
    17     1     6    2
    18     4    10    1
    19     4     5    1
    20    10     9    1
    21    22    23    1
    22     6     5    1
    23     6     7    1
    24     5     8    2
    25     9     8    1
    26    23    24    1
    27    30    28    2
    28    24    26    2
    29    24    25    1
    30    24    27    1
    31    39    38    2
    32    27    28    1
    33    41    40    1
    34    41    42    1
    35    28    31    1
    36    28    29    1
    37    38    36    1
    38    38    40   am
    39    31    33    1
    40    36    37    1
    41    36    32    1
    42    42    43    1
    43    33    32    1
    44    32    35    1
    45    32    34    1
    46    43    44    2
    47    43    45   am
    48    45    46    1
    49    46    47    1
    50    47    48    1
