@<TRIPOS>MOLECULE
1ixe_CIT_A_1.pdb
 13 12 0 0 0
SMALL
GASTEIGER

@<TRIPOS>ATOM
      1  C1         9.4440  -10.6470  -15.7290 C.2   405  CIT405      0.3680
      2  O1         8.5930  -11.2320  -15.0090 O.co2 405  CIT405     -0.2455
      3  O2        10.4690  -11.2650  -16.1480 O.co2 405  CIT405     -0.2455
      4  C2         9.2570   -9.1810  -16.0860 C.3   405  CIT405      0.1560
      5  C3         7.9330   -8.3760  -15.7150 C.3   405  CIT405      0.2402
      6  O7         6.7460   -9.1500  -15.9890 O.3   405  CIT405     -0.2129
      7  C4         7.8920   -6.8890  -16.2340 C.3   405  CIT405      0.1560
      8  C5         8.6000   -6.1530  -17.3600 C.2   405  CIT405      0.3680
      9  O3         9.8500   -6.2870  -17.5110 O.co2 405  CIT405     -0.2455
     10  O4         7.9560   -5.3900  -18.1390 O.co2 405  CIT405     -0.2455
     11  C6         7.9000   -8.1420  -14.1780 C.2   405  CIT405      0.3927
     12  O5         6.8610   -8.1000  -13.4950 O.co2 405  CIT405     -0.2429
     13  O6         8.9810   -7.9630  -13.5530 O.co2 405  CIT405     -0.2429
@<TRIPOS>BOND
     1    10     8   ar
     2     9     8   ar
     3     8     7    1
     4     7     5    1
     5     3     1   ar
     6     4     1    1
     7     4     5    1
     8     6     5    1
     9     1     2   ar
    10     5    11    1
    11    11    13   ar
    12    11    12   ar
