@<TRIPOS>MOLECULE
1ixf_RET_A_1.pdb
 20 20 0 0 0
SMALL
GASTEIGER

@<TRIPOS>ATOM
      1  C1        39.4960   15.9450   21.5530 C.3   250  RET250      0.0183
      2  C2        40.1700   15.2160   20.3780 C.3   250  RET250      0.0044
      3  C3        40.0380   13.6900   20.3360 C.3   250  RET250      0.0047
      4  C4        40.0110   12.9270   21.6790 C.3   250  RET250      0.0217
      5  C5        39.5370   13.7420   22.9030 C.2   250  RET250     -0.0479
      6  C6        39.2460   15.1350   22.8510 C.2   250  RET250     -0.0307
      7  C7        38.6800   15.7590   24.1590 C.2   250  RET250     -0.0052
      8  C8        38.0430   16.9840   24.3070 C.2   250  RET250     -0.0046
      9  C9        37.5770   17.4670   25.6210 C.2   250  RET250     -0.0219
     10  C10       36.9720   18.7080   25.7050 C.2   250  RET250     -0.0043
     11  C11       36.3150   19.3390   26.8450 C.2   250  RET250     -0.0007
     12  C12       35.6330   20.5070   26.6180 C.2   250  RET250     -0.0046
     13  C13       34.6450   21.0450   27.5600 C.2   250  RET250     -0.0261
     14  C14       34.1540   22.3220   27.8050 C.2   250  RET250     -0.0300
     15  C15       34.5120   23.6610   27.2800 C.3   250  RET250      0.0304
     16  C16       40.4140   17.1750   21.7870 C.3   250  RET250      0.0043
     17  C17       38.1580   16.4680   21.0100 C.3   250  RET250      0.0043
     18  C18       39.3720   12.9290   24.2060 C.3   250  RET250      0.0260
     19  C19       37.7310   16.5460   26.7930 C.3   250  RET250      0.0310
     20  C20       33.8440   20.1050   28.4970 C.3   250  RET250      0.0307
@<TRIPOS>BOND
     1     3     2    1
     2     3     4    1
     3     2     1    1
     4    17     1    1
     5     1    16    1
     6     1     6    1
     7     4     5    1
     8     6     5    2
     9     6     7    1
    10     5    18    1
    11     7     8    2
    12     8     9    1
    13     9    10    2
    14     9    19    1
    15    10    11    1
    16    12    11    2
    17    12    13    1
    18    15    14    1
    19    13    14    2
    20    13    20    1
