@<TRIPOS>MOLECULE
1ixf_GLC_A_1.pdb
 11 11 0 0 0
SMALL
GASTEIGER

@<TRIPOS>ATOM
      1  C1        49.3960   23.8400   10.5140 C.3   400  GLC400      0.1777
      2  C2        50.0820   23.6860    9.0720 C.3   400  GLC400      0.2141
      3  C3        49.9120   25.0560    8.3360 C.3   400  GLC400      0.2173
      4  C4        48.3930   25.3770    8.1830 C.3   400  GLC400      0.2142
      5  C5        47.7160   25.4710    9.5910 C.3   400  GLC400      0.1810
      6  C6        46.1850   25.6240    9.6040 C.3   400  GLC400      0.2141
      7  O2        51.5080   23.4050    9.1660 O.3   400  GLC400     -0.2176
      8  O3        50.5110   24.9760    7.0410 O.3   400  GLC400     -0.2175
      9  O4        48.1200   26.5940    7.5370 O.3   400  GLC400     -0.2176
     10  O5        47.9450   24.1760   10.3520 O.3   400  GLC400     -0.3481
     11  O6        45.4070   24.6080    8.9980 O.3   400  GLC400     -0.2176
@<TRIPOS>BOND
     1     8     3    1
     2     9     4    1
     3     4     3    1
     4     4     5    1
     5     3     2    1
     6    11     6    1
     7     2     7    1
     8     2     1    1
     9     5     6    1
    10     5    10    1
    11    10     1    1
