@<TRIPOS>MOLECULE
1ixn_DXP_A_1.pdb
 13 12 0 0 0
SMALL
GASTEIGER

@<TRIPOS>ATOM
      1  C1        -1.0450  -16.5700   -4.1090 C.3   2001  DXP2001     0.0751
      2  C2        -0.3680  -15.7620   -5.1400 C.2   2001  DXP2001     0.1838
      3  C3         0.0470  -14.3510   -4.8340 C.3   2001  DXP2001     0.2412
      4  C4        -0.9940  -13.2450   -5.0800 C.3   2001  DXP2001     0.2193
      5  C5        -0.5040  -11.9740   -4.3970 C.3   2001  DXP2001     0.1896
      6  O2        -0.1430  -16.2760   -6.2350 O.2   2001  DXP2001    -0.2933
      7  O3         1.1870  -14.0590   -5.6190 O.3   2001  DXP2001    -0.2123
      8  O4        -1.0710  -12.9860   -6.4850 O.3   2001  DXP2001    -0.2172
      9  O5        -1.3830  -10.8530   -4.6170 O.3   2001  DXP2001    -0.2674
     10  P         -0.8600   -9.5970   -3.9850 P.3   2001  DXP2001     0.5327
     11  O2P       -0.5870   -9.7580   -2.5160 O.3   2001  DXP2001    -0.1145
     12  O1P       -1.8290   -8.4750   -4.1800 O.3   2001  DXP2001    -0.1145
     13  O3P        0.3280   -9.2610   -4.5290 O.2   2001  DXP2001    -0.2224
@<TRIPOS>BOND
     1     8     4    1
     2     6     2    2
     3     7     3    1
     4     2     3    1
     5     2     1    1
     6     4     3    1
     7     4     5    1
     8     9     5    1
     9     9    10    1
    10    13    10    2
    11    12    10    1
    12    10    11    1
