@<TRIPOS>MOLECULE
1ixn_G3P_A_1.pdb
 10 9 0 0 0
SMALL
GASTEIGER

@<TRIPOS>ATOM
      1  O1         2.5180  -16.3780   -6.7250 O.2   1001  G3P1001    -0.2854
      2  C1         3.3070  -16.3880   -5.7570 C.2   1001  G3P1001     0.2426
      3  C2         3.9990  -15.1230   -5.3580 C.3   1001  G3P1001     0.2459
      4  O2         3.7390  -14.1360   -6.3890 O.3   1001  G3P1001    -0.2119
      5  C3         3.3980  -14.8360   -3.9680 C.3   1001  G3P1001     0.1946
      6  O1P        3.9960  -13.6680   -3.5010 O.3   1001  G3P1001    -0.2670
      7  O4P        5.1370  -13.6090   -1.5880 O.3   1001  G3P1001    -0.1145
      8  O2P        2.9430  -14.2010   -1.1380 O.3   1001  G3P1001    -0.1145
      9  O3P        3.5980  -11.8640   -1.9330 O.2   1001  G3P1001    -0.2224
     10  P          3.8430  -13.3690   -2.0120 P.3   1001  G3P1001     0.5327
@<TRIPOS>BOND
     1     1     2    2
     2     4     3    1
     3     2     3    1
     4     3     5    1
     5     5     6    1
     6     6    10    1
     7    10     9    2
     8    10     7    1
     9    10     8    1
