@<TRIPOS>MOLECULE
1ixo_G3P_A_1.pdb
 10 9 0 0 0
SMALL
GASTEIGER

@<TRIPOS>ATOM
      1  O1         4.0130  -14.4360   -7.4020 O.3   1001  G3P1001    -0.2175
      2  C1         3.6370  -15.0520   -6.3980 C.3   1001  G3P1001     0.2174
      3  C2         3.1150  -14.1840   -5.2900 C.3   1001  G3P1001     0.2147
      4  O2         1.7280  -14.4460   -4.9680 O.3   1001  G3P1001    -0.2176
      5  C3         3.9650  -14.3600   -4.0470 C.3   1001  G3P1001     0.1892
      6  O1P        3.2900  -13.5520   -3.0640 O.3   1001  G3P1001    -0.2674
      7  O4P        4.0130  -11.9280   -1.8050 O.2   1001  G3P1001    -0.2224
      8  O2P        5.4800  -13.8670   -1.7560 O.3   1001  G3P1001    -0.1145
      9  O3P        3.2700  -13.6660   -0.6210 O.3   1001  G3P1001    -0.1145
     10  P          4.0770  -13.2820   -1.8250 P.3   1001  G3P1001     0.5327
@<TRIPOS>BOND
     1     1     2    1
     2     2     3    1
     3     3     4    1
     4     3     5    1
     5     5     6    1
     6     6    10    1
     7    10     7    2
     8    10     8    1
     9    10     9    1
