@<TRIPOS>MOLECULE
1ixr_ANP_C_1.pdb
 31 33 0 0 0
SMALL
GASTEIGER

@<TRIPOS>ATOM
      1  PG        25.5030   71.9430   54.9750 P.3   313  ANP313      0.4884
      2  O1G       26.7360   72.8260   54.6760 O.3   313  ANP313     -0.1240
      3  O2G       25.3400   70.7740   54.0390 O.2   313  ANP313     -0.2331
      4  O3G       25.5590   71.4360   56.4750 O.3   313  ANP313     -0.1240
      5  PB        23.4940   73.8260   53.6310 P.3   313  ANP313      0.4669
      6  O1B       24.0880   73.4910   52.2920 O.2   313  ANP313     -0.2351
      7  O2B       22.0220   73.6670   53.7480 O.3   313  ANP313     -0.1253
      8  N3B       24.1670   72.9380   54.8870 N.3   313  ANP313     -0.0163
      9  PA        23.9040   76.1330   55.4950 P.3   313  ANP313      0.2220
     10  O1A       24.0820   75.2340   56.6520 O.3   313  ANP313     -0.4370
     11  O2A       24.9840   77.1320   55.4650 O.2   313  ANP313     -0.5170
     12  O3A       23.8880   75.3410   54.0400 O.3   313  ANP313     -0.2360
     13  O5'       22.4500   76.8660   55.6460 O.3   313  ANP313     -0.3111
     14  C5'       21.1700   76.4050   54.9700 C.3   313  ANP313      0.1813
     15  C4'       20.3650   77.6830   54.5400 C.3   313  ANP313      0.1821
     16  O4'       21.2040   78.7570   54.0000 O.3   313  ANP313     -0.3135
     17  C3'       19.2490   77.4270   53.4630 C.3   313  ANP313      0.2184
     18  O3'       17.9740   77.9240   53.8850 O.3   313  ANP313     -0.2174
     19  C2'       19.7680   78.1080   52.1420 C.3   313  ANP313      0.2570
     20  O2'       18.6780   78.7720   51.5040 O.3   313  ANP313     -0.2130
     21  C1'       20.8780   79.0390   52.6200 C.3   313  ANP313      0.3186
     22  N9        22.1580   79.0080   51.7940 N.pl3 313  ANP313     -0.1439
     23  C8        23.3220   78.2850   52.0280 C.3   313  ANP313      0.3377
     24  N7        24.2760   78.5240   51.1000 N.2   313  ANP313     -0.2095
     25  C5        23.7370   79.3990   50.2610 C.2   313  ANP313      0.2526
     26  C6        24.2620   80.0640   49.0590 C.2   313  ANP313      0.4393
     27  N6        25.5040   79.8140   48.6410 N.pl3 313  ANP313      0.2180
     28  N1        23.4320   80.9730   48.3530 N.2   313  ANP313      0.0021
     29  C2        22.1310   81.2090   48.8360 C.3   313  ANP313      0.5254
     30  N3        21.5490   80.6590   49.9330 N.2   313  ANP313     -0.0055
     31  C4        22.4060   79.7520   50.6190 C.2   313  ANP313      0.3518
@<TRIPOS>BOND
     1    28    29    1
     2    28    26    2
     3    27    26    1
     4    29    30    1
     5    26    25    1
     6    30    31    2
     7    25    31    1
     8    25    24    2
     9    31    22    1
    10    24    23    1
    11    20    19    1
    12    22    23    1
    13    22    21    1
    14    19    21    1
    15    19    17    1
    16     6     5    2
    17    21    16    1
    18    17    18    1
    19    17    15    1
    20     5     7    1
    21     5    12    1
    22     5     8    1
    23    16    15    1
    24     3     1    2
    25    12     9    1
    26    15    14    1
    27     2     1    1
    28     8     1    1
    29    14    13    1
    30     1     4    1
    31    11     9    2
    32     9    13    1
    33     9    10    1
