@<TRIPOS>MOLECULE
1ixs_ANP_B_1.pdb
 31 33 0 0 0
SMALL
GASTEIGER

@<TRIPOS>ATOM
      1  PG        11.3670   44.1320   37.2970 P.3   319  ANP319      0.4884
      2  O1G       12.6000   43.2720   37.5690 O.3   319  ANP319     -0.1240
      3  O2G       10.4100   44.2310   38.4450 O.3   319  ANP319     -0.1240
      4  O3G       11.8450   45.5580   36.8470 O.2   319  ANP319     -0.2331
      5  PB         9.8460   41.9820   35.7100 P.3   319  ANP319      0.4669
      6  O1B        9.1380   41.4820   36.9260 O.3   319  ANP319     -0.1253
      7  O2B        9.0090   42.1320   34.4980 O.2   319  ANP319     -0.2351
      8  N3B       10.6040   43.4630   35.9730 N.3   319  ANP319     -0.0163
      9  PA        12.2500   40.3560   36.2420 P.3   319  ANP319      0.2220
     10  O1A       13.5840   40.7310   35.7680 O.2   319  ANP319     -0.5170
     11  O2A       12.0610   40.7750   37.6270 O.3   319  ANP319     -0.4370
     12  O3A       11.0550   41.0010   35.3370 O.3   319  ANP319     -0.2360
     13  O5'       12.1040   38.7520   36.1370 O.3   319  ANP319     -0.3111
     14  C5'       12.2060   37.9750   34.8560 C.3   319  ANP319      0.1813
     15  C4'       10.9810   37.0170   34.7950 C.3   319  ANP319      0.1821
     16  O4'       10.9350   36.0380   35.8780 O.3   319  ANP319     -0.3135
     17  C3'        9.6110   37.7290   34.8430 C.3   319  ANP319      0.2184
     18  O3'        9.2400   38.2660   33.5880 O.3   319  ANP319     -0.2174
     19  C2'        8.6530   36.6360   35.3550 C.3   319  ANP319      0.2570
     20  O2'        8.0760   35.9740   34.2410 O.3   319  ANP319     -0.2130
     21  C1'        9.5600   35.7680   36.2320 C.3   319  ANP319      0.3186
     22  N9         9.3130   36.0000   37.7120 N.pl3 319  ANP319     -0.1439
     23  C8         9.7320   37.0450   38.5070 C.3   319  ANP319      0.3377
     24  N7         9.3230   36.9110   39.7800 N.2   319  ANP319     -0.2095
     25  C5         8.6430   35.7880   39.8130 C.2   319  ANP319      0.2526
     26  C6         7.9500   35.1010   40.8940 C.2   319  ANP319      0.4393
     27  N6         7.9420   35.6150   42.1180 N.pl3 319  ANP319      0.2180
     28  N1         7.2940   33.8900   40.6260 N.2   319  ANP319      0.0021
     29  C2         7.3360   33.3940   39.3210 C.3   319  ANP319      0.5254
     30  N3         7.9450   33.9470   38.2520 N.2   319  ANP319     -0.0055
     31  C4         8.5880   35.1540   38.5590 C.2   319  ANP319      0.3518
@<TRIPOS>BOND
     1    18    17    1
     2    20    19    1
     3     7     5    2
     4    15    17    1
     5    15    14    1
     6    15    16    1
     7    17    19    1
     8    14    13    1
     9    12     5    1
    10    12     9    1
    11    19    21    1
    12     5     8    1
    13     5     6    1
    14    10     9    2
    15    16    21    1
    16     8     1    1
    17    13     9    1
    18    21    22    1
    19     9    11    1
    20     4     1    2
    21     1     2    1
    22     1     3    1
    23    22    23    1
    24    22    31    1
    25    30    31    2
    26    30    29    1
    27    23    24    1
    28    31    25    1
    29    29    28    1
    30    24    25    2
    31    25    26    1
    32    28    26    2
    33    26    27    1
