@<TRIPOS>MOLECULE
1ixy_UDP_A_1.pdb
 25 26 0 0 0
SMALL
GASTEIGER

@<TRIPOS>ATOM
      1  N1        39.7740   -0.2830   33.1450 N.am  400  UDP400     -0.1766
      2  C2        41.1150   -0.6400   33.1810 C.1   400  UDP400      0.2845
      3  N3        41.8980    0.1350   33.9960 N.2   400  UDP400     -0.2452
      4  C4        41.4880    1.1900   34.7700 C.1   400  UDP400      0.2182
      5  C5        40.0830    1.4630   34.7160 C.2   400  UDP400      0.1242
      6  C6        39.2960    0.7370   33.9230 C.2   400  UDP400      0.0929
      7  O2        41.5710   -1.5760   32.5440 O.2   400  UDP400     -0.1918
      8  O4        42.3260    1.8580   35.3640 O.2   400  UDP400     -0.2085
      9  C1'       38.8960   -1.0240   32.2280 C.3   400  UDP400      0.2401
     10  C2'       38.1400   -2.1860   32.8830 C.3   400  UDP400      0.2319
     11  O2'       38.1100   -3.2780   31.9870 O.3   400  UDP400     -0.2157
     12  C3'       36.7610   -1.5650   33.1160 C.3   400  UDP400      0.2158
     13  C4'       36.6030   -0.6850   31.8940 C.3   400  UDP400      0.1799
     14  O4'       37.9290   -0.1260   31.6970 O.3   400  UDP400     -0.3320
     15  O3'       35.7120   -2.5310   33.1390 O.3   400  UDP400     -0.2175
     16  C5'       35.5710    0.4040   32.0240 C.3   400  UDP400      0.1813
     17  O5'       35.5160    1.1780   30.8400 O.3   400  UDP400     -0.3111
     18  PA        34.5960    2.4730   30.7700 P.3   400  UDP400      0.2231
     19  O1A       35.1470    3.4880   31.6910 O.3   400  UDP400     -0.4370
     20  O2A       34.4060    2.8110   29.3330 O.2   400  UDP400     -0.5169
     21  O3A       33.1830    1.9500   31.4020 O.3   400  UDP400     -0.2261
     22  PB        32.0920    0.8850   30.8110 P.3   400  UDP400      0.5373
     23  O1B       32.8760   -0.3650   30.4280 O.3   400  UDP400     -0.1143
     24  O2B       31.4610    1.5760   29.6120 O.2   400  UDP400     -0.2221
     25  O3B       31.0910    0.6380   31.9350 O.3   400  UDP400     -0.1143
@<TRIPOS>BOND
     1    20    18    2
     2    24    22    2
     3    23    22    1
     4    18    17    1
     5    18    21    1
     6    18    19    1
     7    22    21    1
     8    22    25    1
     9    17    16    1
    10    14    13    1
    11    14     9    1
    12    13    16    1
    13    13    12    1
    14    11    10    1
    15     9    10    1
    16     9     1    1
    17     7     2    2
    18    10    12    1
    19    12    15    1
    20     1     2   am
    21     1     6    1
    22     2     3    2
    23     6     5    2
    24     3     4    2
    25     5     4    1
    26     4     8    2
