@<TRIPOS>MOLECULE
1iy0_ANP_A_1.pdb
 31 33 0 0 0
SMALL
GASTEIGER

@<TRIPOS>ATOM
      1  PG        35.3700   18.8260   55.7940 P.3     1  ANP1        0.4884
      2  O1G       35.3540   18.9010   54.2820 O.2     1  ANP1       -0.2331
      3  O2G       35.2750   20.1590   56.4920 O.3     1  ANP1       -0.1240
      4  O3G       34.3240   17.8530   56.3310 O.3     1  ANP1       -0.1240
      5  PB        37.9900   18.4780   57.3430 P.3     1  ANP1        0.4669
      6  O1B       39.2080   17.7190   56.8860 O.2     1  ANP1       -0.2351
      7  O2B       37.6210   18.1340   58.7180 O.3     1  ANP1       -0.1253
      8  N3B       36.9020   18.1560   56.1880 N.3     1  ANP1       -0.0163
      9  PA        38.6590   21.2120   58.5700 P.3     1  ANP1        0.2220
     10  O1A       37.9960   22.4520   58.0250 O.2     1  ANP1       -0.5170
     11  O2A       38.0660   20.7470   59.8890 O.3     1  ANP1       -0.4370
     12  O3A       38.5570   20.0350   57.4880 O.3     1  ANP1       -0.2360
     13  O5'       40.2420   21.4850   58.6670 O.3     1  ANP1       -0.3111
     14  C5'       41.0110   20.3850   59.1710 C.3     1  ANP1        0.1813
     15  C4'       42.4900   20.8500   59.2430 C.3     1  ANP1        0.1821
     16  O4'       43.0930   20.6630   57.9720 O.3     1  ANP1       -0.3135
     17  C3'       42.7410   22.3030   59.4800 C.3     1  ANP1        0.2184
     18  O3'       43.3860   22.3760   60.7360 O.3     1  ANP1       -0.2174
     19  C2'       43.7100   22.7800   58.3990 C.3     1  ANP1        0.2570
     20  O2'       45.0070   23.1570   58.7900 O.3     1  ANP1       -0.2130
     21  C1'       43.8540   21.7170   57.3850 C.3     1  ANP1        0.3186
     22  N9        43.4550   22.1800   55.9910 N.pl3   1  ANP1       -0.1439
     23  C8        42.4500   21.6890   55.2180 C.3     1  ANP1        0.3377
     24  N7        42.3840   22.3340   54.0410 N.2     1  ANP1       -0.2095
     25  C5        43.3680   23.2520   54.0750 C.2     1  ANP1        0.2526
     26  C6        43.7540   24.2260   53.0660 C.2     1  ANP1        0.4393
     27  N6        43.0730   24.2790   51.8810 N.pl3   1  ANP1        0.2180
     28  N1        44.8250   25.0920   53.3340 N.2     1  ANP1        0.0021
     29  C2        45.4580   24.9600   54.5580 C.3     1  ANP1        0.5254
     30  N3        45.1020   24.0470   55.5020 N.2     1  ANP1       -0.0055
     31  C4        44.0560   23.1710   55.3020 C.2     1  ANP1        0.3518
@<TRIPOS>BOND
     1    27    26    1
     2    26    28    2
     3    26    25    1
     4    28    29    1
     5    24    25    2
     6    24    23    1
     7    25    31    1
     8     2     1    2
     9    29    30    1
    10    23    22    1
    11    31    30    2
    12    31    22    1
    13     1     8    1
    14     1     4    1
    15     1     3    1
    16    22    21    1
    17     8     5    1
    18     6     5    2
    19     5    12    1
    20     5     7    1
    21    21    16    1
    22    21    19    1
    23    12     9    1
    24    16    15    1
    25    10     9    2
    26    19    20    1
    27    19    17    1
    28     9    13    1
    29     9    11    1
    30    13    14    1
    31    14    15    1
    32    15    17    1
    33    17    18    1
