@<TRIPOS>MOLECULE
1iy1_ADP_A_1.pdb
 27 29 0 0 0
SMALL
GASTEIGER

@<TRIPOS>ATOM
      1  PB        36.0500   19.1960   56.1280 P.3     1  ADP1        0.5373
      2  O1B       34.6730   19.7650   56.4460 O.3     1  ADP1       -0.1143
      3  O2B       36.4190   17.9890   56.8960 O.3     1  ADP1       -0.1143
      4  O3B       36.1880   19.0140   54.5940 O.2     1  ADP1       -0.2221
      5  PA        37.8990   20.7290   57.7980 P.3     1  ADP1        0.2231
      6  O1A       36.8110   20.8570   58.8010 O.3     1  ADP1       -0.4370
      7  O2A       38.8130   21.8540   57.5630 O.2     1  ADP1       -0.5169
      8  O3A       37.1440   20.2900   56.4160 O.3     1  ADP1       -0.2261
      9  O5'       38.7140   19.4270   58.2360 O.3     1  ADP1       -0.3111
     10  C5'       39.8920   19.0370   57.4980 C.3     1  ADP1        0.1813
     11  C4'       41.1700   19.3860   58.2660 C.3     1  ADP1        0.1821
     12  O4'       42.2540   19.4950   57.2560 O.3     1  ADP1       -0.3135
     13  C3'       41.1980   20.7510   58.9960 C.3     1  ADP1        0.2184
     14  O3'       40.9360   20.6010   60.4130 O.3     1  ADP1       -0.2174
     15  C2'       42.6380   21.3610   58.7540 C.3     1  ADP1        0.2570
     16  O2'       43.5450   21.1450   59.8840 O.3     1  ADP1       -0.2130
     17  C1'       43.1310   20.6110   57.5030 C.3     1  ADP1        0.3186
     18  N9        43.1500   21.5140   56.2570 N.pl3   1  ADP1       -0.1439
     19  C8        42.4510   21.3520   55.1370 C.3     1  ADP1        0.3377
     20  N7        42.6770   22.2700   54.2740 N.2     1  ADP1       -0.2095
     21  C5        43.6080   23.1140   54.8770 C.2     1  ADP1        0.2526
     22  C6        44.2910   24.3300   54.4790 C.2     1  ADP1        0.4393
     23  N6        44.0980   24.9260   53.2590 N.pl3   1  ADP1        0.2180
     24  N1        45.1650   24.8940   55.3680 N.2     1  ADP1        0.0021
     25  C2        45.3630   24.3240   56.5630 C.3     1  ADP1        0.5254
     26  N3        44.7740   23.2000   57.0170 N.2     1  ADP1       -0.0055
     27  C4        43.9050   22.6440   56.1230 C.2     1  ADP1        0.3518
@<TRIPOS>BOND
     1    23    22    1
     2    20    21    2
     3    20    19    1
     4    22    21    1
     5    22    24    2
     6     4     1    2
     7    21    27    1
     8    19    18    1
     9    24    25    1
    10    27    18    1
    11    27    26    2
    12     1     8    1
    13     1     2    1
    14     1     3    1
    15    18    17    1
    16     8     5    1
    17    25    26    1
    18    12    17    1
    19    12    11    1
    20    10     9    1
    21    10    11    1
    22    17    15    1
    23     7     5    2
    24     5     9    1
    25     5     6    1
    26    11    13    1
    27    15    13    1
    28    15    16    1
    29    13    14    1
