@<TRIPOS>MOLECULE
1iy7_CXA_A_1.pdb
 16 16 0 0 0
SMALL
GASTEIGER

@<TRIPOS>ATOM
      1  C1         5.5640   -9.5750   12.5890 C.ar  500  CXA500     -0.0202
      2  C2         6.4700   -8.6550   11.9840 C.ar  500  CXA500     -0.0042
      3  C3         6.1860   -8.0880   10.7100 C.ar  500  CXA500     -0.0003
      4  C4         4.9950   -8.4330   10.0260 C.ar  500  CXA500     -0.0000
      5  C5         4.0960   -9.3430   10.6130 C.ar  500  CXA500     -0.0003
      6  C6         4.3830   -9.9050   11.8760 C.ar  500  CXA500     -0.0042
      7  C12        5.8360  -10.1860   13.9590 C.3   500  CXA500      0.0573
      8  C13        5.3710   -9.3430   15.2250 C.3   500  CXA500      0.2057
      9  C14        3.8240   -9.1650   15.2020 C.2   500  CXA500      0.3825
     10  O15        3.4260   -7.9600   14.7460 O.co2 500  CXA500     -0.2440
     11  O16        3.0340   -9.9880   15.5480 O.co2 500  CXA500     -0.2440
     12  N17        5.6840   -9.9530   16.5590 N.3   500  CXA500     -0.0537
     13  S18        5.5240   -9.0860   18.0720 S.O2  500  CXA500      0.1469
     14  N19        6.5090   -7.7220   18.3080 N.3   500  CXA500      0.0528
     15  O20        5.9080   -9.9330   19.1610 O.2   500  CXA500     -0.1371
     16  O21        4.2640   -8.4050   18.0460 O.2   500  CXA500     -0.1371
@<TRIPOS>BOND
     1     4     5   ar
     2     4     3   ar
     3     5     6   ar
     4     3     2   ar
     5     6     1   ar
     6     2     1   ar
     7     1     7    1
     8     7     8    1
     9    10     9   ar
    10     9     8    1
    11     9    11   ar
    12     8    12    1
    13    12    13    1
    14    16    13    2
    15    13    14    1
    16    13    15    2
