@<TRIPOS>MOLECULE
1iy8_NAD_A_1.pdb
 44 48 0 0 0
SMALL
GASTEIGER

@<TRIPOS>ATOM
      1  PA        13.5910   19.5470    1.4260 P.3   1268  NAD1268     0.2189
      2  O1A       14.4080   18.3380    1.7430 O.3   1268  NAD1268    -0.4371
      3  O2A       12.7670   19.4680    0.1660 O.2   1268  NAD1268    -0.5170
      4  O5B       14.5430   20.8530    1.2760 O.3   1268  NAD1268    -0.3112
      5  C5B       15.5670   21.0200    2.2200 C.3   1268  NAD1268     0.1813
      6  C4B       16.8100   21.4750    1.4700 C.3   1268  NAD1268     0.1821
      7  O4B       17.8470   21.6670    2.4480 O.3   1268  NAD1268    -0.3135
      8  C3B       17.2950   20.4150    0.4460 C.3   1268  NAD1268     0.2184
      9  O3B       17.5290   21.0150   -0.8460 O.3   1268  NAD1268    -0.2174
     10  C2B       18.6070   19.9350    1.0810 C.3   1268  NAD1268     0.2570
     11  O2B       19.5990   19.5290    0.1320 O.3   1268  NAD1268    -0.2130
     12  C1B       19.0540   21.1330    1.8980 C.3   1268  NAD1268     0.3186
     13  N9A       19.9810   20.7320    2.9690 N.pl3 1268  NAD1268    -0.1439
     14  C8A       19.8890   19.7130    3.8600 C.3   1268  NAD1268     0.3377
     15  N7A       21.0180   19.6350    4.6520 N.2   1268  NAD1268    -0.2095
     16  C5A       21.7850   20.6310    4.2730 C.2   1268  NAD1268     0.2526
     17  C6A       23.0970   21.1180    4.6700 C.2   1268  NAD1268     0.4393
     18  N6A       23.8210   20.5110    5.5510 N.pl3 1268  NAD1268     0.2180
     19  N1A       23.5420   22.2850    4.0460 N.2   1268  NAD1268     0.0021
     20  C2A       22.8630   22.9210    3.1270 C.3   1268  NAD1268     0.5254
     21  N3A       21.6360   22.5120    2.6350 N.2   1268  NAD1268    -0.0055
     22  C4A       21.1790   21.4390    3.2030 C.2   1268  NAD1268     0.3518
     23  O3        12.6350   19.7920    2.6720 O.3   1268  NAD1268    -0.2703
     24  PN        11.7610   21.1060    2.9570 P.3   1268  NAD1268     0.2189
     25  O1N       11.8950   22.1320    1.8490 O.2   1268  NAD1268    -0.5170
     26  O2N       10.3830   20.6330    3.2930 O.3   1268  NAD1268    -0.4371
     27  O5D       12.4580   21.6950    4.3280 O.3   1268  NAD1268    -0.3112
     28  C5D       12.7030   23.0840    4.4400 C.3   1268  NAD1268     0.1813
     29  C4D       12.7190   23.4540    5.9240 C.3   1268  NAD1268     0.1799
     30  O4D       11.3480   23.3960    6.3730 O.3   1268  NAD1268    -0.3327
     31  C3D       13.5310   22.4610    6.7810 C.3   1268  NAD1268     0.2158
     32  O3D       14.2200   23.1570    7.8310 O.3   1268  NAD1268    -0.2175
     33  C2D       12.4250   21.6010    7.3980 C.3   1268  NAD1268     0.2309
     34  O2D       12.8320   21.0040    8.6350 O.3   1268  NAD1268    -0.2158
     35  C1D       11.2070   22.5260    7.4860 C.3   1268  NAD1268     0.2263
     36  N1N        9.9190   21.8000    7.3200 N.pl3 1268  NAD1268    -0.2787
     37  C2N        9.3470   21.2880    8.4630 C.3   1268  NAD1268     0.1244
     38  C3N        8.0350   20.5210    8.3670 C.2   1268  NAD1268     0.0544
     39  C7N        7.5000   19.9130    9.5840 C.2   1268  NAD1268     0.2818
     40  O7N        8.2720   19.7720   10.5620 O.2   1268  NAD1268    -0.2670
     41  N7N        6.2620   19.5390    9.5950 N.am  1268  NAD1268    -0.0839
     42  C4N        7.3950   20.3400    6.9900 C.2   1268  NAD1268     0.0033
     43  C5N        8.1460   20.9600    5.8320 C.2   1268  NAD1268     0.0157
     44  C6N        9.3530   21.6410    6.0520 C.2   1268  NAD1268     0.0633
@<TRIPOS>BOND
     1     9     8    1
     2    11    10    1
     3     3     1    2
     4     8    10    1
     5     8     6    1
     6    10    12    1
     7     4     1    1
     8     4     5    1
     9     1     2    1
    10     1    23    1
    11     6     5    1
    12     6     7    1
    13    25    24    2
    14    12     7    1
    15    12    13    1
    16    21    20    1
    17    21    22    2
    18    23    24    1
    19    24    26    1
    20    24    27    1
    21    13    22    1
    22    13    14    1
    23    20    19    1
    24    22    16    1
    25    14    15    1
    26    19    17    2
    27    16    15    2
    28    16    17    1
    29    27    28    1
    30    28    29    1
    31    17    18    1
    32    43    44    2
    33    43    42    1
    34    29    30    1
    35    29    31    1
    36    44    36    1
    37    30    35    1
    38    31    33    1
    39    31    32    1
    40    42    38    2
    41    36    35    1
    42    36    37    1
    43    33    35    1
    44    33    34    1
    45    38    37    1
    46    38    39    1
    47    39    41   am
    48    39    40    2
