@<TRIPOS>MOLECULE
1iyb_5GP_A_1.pdb
 24 26 0 0 0
SMALL
GASTEIGER

@<TRIPOS>ATOM
      1  P         28.3500   67.6890   25.4760 P.3   1295  5GP1295     0.5327
      2  O1P       28.7510   66.4380   24.8260 O.2   1295  5GP1295    -0.2224
      3  O2P       27.1000   67.5240   26.3180 O.3   1295  5GP1295    -0.1145
      4  O3P       29.5310   68.2650   26.3320 O.3   1295  5GP1295    -0.1145
      5  O5'       28.0280   68.8890   24.4090 O.3   1295  5GP1295    -0.2675
      6  C5'       27.7780   70.2730   24.8550 C.3   1295  5GP1295     0.1859
      7  C4'       27.4880   71.2730   23.7100 C.3   1295  5GP1295     0.1801
      8  O4'       26.3240   72.1000   24.1600 O.3   1295  5GP1295    -0.3326
      9  C3'       28.5300   72.3260   23.3420 C.3   1295  5GP1295     0.2158
     10  O3'       29.5050   71.8710   22.4160 O.3   1295  5GP1295    -0.2175
     11  C2'       27.7180   73.4880   22.7590 C.3   1295  5GP1295     0.2310
     12  O2'       27.4820   73.3330   21.3430 O.3   1295  5GP1295    -0.2158
     13  C1'       26.4370   73.4410   23.5760 C.3   1295  5GP1295     0.2293
     14  N9        26.1750   74.5030   24.5980 N.pl3 1295  5GP1295    -0.2354
     15  C8        25.1840   75.4590   24.6380 C.3   1295  5GP1295     0.2246
     16  N7        25.1500   76.1940   25.7300 N.2   1295  5GP1295    -0.2322
     17  C5        26.2250   75.6660   26.4730 C.2   1295  5GP1295     0.2182
     18  C6        26.6950   76.0590   27.7700 C.1   1295  5GP1295     0.2372
     19  O6        26.2570   76.9400   28.5010 O.2   1295  5GP1295    -0.2069
     20  N1        27.8170   75.2730   28.1800 N.2   1295  5GP1295    -0.2485
     21  C2        28.3770   74.2540   27.4120 C.1   1295  5GP1295     0.2531
     22  N2        29.4310   73.6440   27.9930 N.pl3 1295  5GP1295    -0.0226
     23  N3        27.9370   73.8820   26.1950 N.2   1295  5GP1295    -0.3074
     24  C4        26.8570   74.6340   25.7890 C.2   1295  5GP1295     0.2300
@<TRIPOS>BOND
     1    12    11    1
     2    10     9    1
     3    11     9    1
     4    11    13    1
     5     9     7    1
     6    13     8    1
     7    13    14    1
     8     7     8    1
     9     7     6    1
    10     5     6    1
    11     5     1    1
    12    14    15    1
    13    14    24    1
    14    15    16    1
    15     2     1    2
    16     1     3    1
    17     1     4    1
    18    16    17    2
    19    24    23    2
    20    24    17    1
    21    23    21    2
    22    17    18    1
    23    21    22    1
    24    21    20    2
    25    18    20    2
    26    18    19    2
