@<TRIPOS>MOLECULE
1iyd_PLP_A_1.pdb
 15 15 0 0 0
SMALL
GASTEIGER

@<TRIPOS>ATOM
      1  N1        23.1390   10.2910   15.0920 N.ar  413  PLP413     -0.2452
      2  C2        23.2970   11.4510   14.4090 C.ar  413  PLP413      0.0978
      3  C2A       23.7520   11.3860   12.9510 C.3   413  PLP413      0.0555
      4  C3        23.0450   12.6620   15.0360 C.ar  413  PLP413      0.2049
      5  O3        23.2170   13.8480   14.3320 O.3   413  PLP413     -0.2857
      6  C4        22.6310   12.6990   16.3690 C.ar  413  PLP413      0.0182
      7  C4A       22.3800   14.0860   17.0340 C.3   413  PLP413      0.0342
      8  C5        22.4760   11.4750   17.0520 C.ar  413  PLP413      0.0261
      9  C6        22.7350   10.3080   16.3960 C.ar  413  PLP413      0.0965
     10  C5A       22.0180   11.3450   18.5270 C.3   413  PLP413      0.1815
     11  O4P       22.9940   11.8060   19.4470 O.3   413  PLP413     -0.2653
     12  P         22.5620   12.3720   20.9100 P.3   413  PLP413      0.5329
     13  O1P       21.5080   13.4010   20.6690 O.2   413  PLP413     -0.2224
     14  O2P       23.8420   13.1180   21.4670 O.3   413  PLP413     -0.1145
     15  O3P       22.2980   11.1820   21.7470 O.3   413  PLP413     -0.1145
@<TRIPOS>BOND
     1     3     2    1
     2     5     4    1
     3     2     4   ar
     4     2     1   ar
     5     4     6   ar
     6     1     9   ar
     7     6     7    1
     8     6     8   ar
     9     9     8   ar
    10     8    10    1
    11    10    11    1
    12    11    12    1
    13    13    12    2
    14    12    14    1
    15    12    15    1
