@<TRIPOS>MOLECULE
1iye_PGU_A_1.pdb
 25 25 0 0 0
SMALL
GASTEIGER

@<TRIPOS>ATOM
      1  N1        23.3920   10.1630   15.1400 N.ar  513  PGU513     -0.2452
      2  C2        22.9210   11.2520   14.4110 C.ar  513  PGU513      0.0978
      3  C2A       23.3240   11.0850   12.9640 C.3   513  PGU513      0.0555
      4  C3        22.1720   12.2850   15.1270 C.ar  513  PGU513      0.2067
      5  O3        21.7720   13.2860   14.3030 O.3   513  PGU513     -0.2856
      6  C4        21.9170   12.2270   16.5230 C.ar  513  PGU513      0.0421
      7  C4A       21.1410   13.3210   17.2590 C.3   513  PGU513      0.1547
      8  C5        22.4720   11.0420   17.1370 C.ar  513  PGU513      0.0280
      9  C6        23.1890   10.0310   16.4880 C.ar  513  PGU513      0.0965
     10  C5A       22.3440   10.7600   18.6280 C.3   513  PGU513      0.1816
     11  O4P       23.1100   11.5570   19.4500 O.3   513  PGU513     -0.2653
     12  P         22.6090   12.1080   20.8630 P.3   513  PGU513      0.5329
     13  O1P       22.4130   11.0450   21.8200 O.3   513  PGU513     -0.1145
     14  O2P       21.4840   13.0710   20.5210 O.2   513  PGU513     -0.2224
     15  O3P       23.8090   12.8640   21.3890 O.3   513  PGU513     -0.1145
     16  N         19.9700   13.6650   16.3420 N.2   513  PGU513     -0.2632
     17  CA        18.8390   14.3020   16.8300 C.2   513  PGU513      0.1340
     18  CB        17.7570   14.7860   15.8660 C.3   513  PGU513      0.0641
     19  CG        18.2460   15.1230   14.4580 C.3   513  PGU513      0.1205
     20  CD        17.2890   16.0810   13.7660 C.2   513  PGU513      0.3653
     21  OE1       16.6150   15.5990   12.8850 O.co2 513  PGU513     -0.2456
     22  OE2       17.3360   17.2520   14.2010 O.co2 513  PGU513     -0.2456
     23  C         18.6440   14.5040   18.3460 C.2   513  PGU513      0.4007
     24  O         18.6760   15.8260   18.6890 O.co2 513  PGU513     -0.2392
     25  OXT       18.4770   13.5120   19.1890 O.co2 513  PGU513     -0.2392
@<TRIPOS>BOND
     1    21    20   ar
     2     3     2    1
     3    20    22   ar
     4    20    19    1
     5     5     4    1
     6     2     4   ar
     7     2     1   ar
     8    19    18    1
     9     4     6   ar
    10     1     9   ar
    11    18    17    1
    12    16    17    2
    13    16     7    1
    14     9     8   ar
    15     6     8   ar
    16     6     7    1
    17    17    23    1
    18     8    10    1
    19    23    24   ar
    20    23    25   ar
    21    10    11    1
    22    11    12    1
    23    14    12    2
    24    12    15    1
    25    12    13    1
