@<TRIPOS>MOLECULE
1iyh_GSH_A_1.pdb
 20 19 0 0 0
SMALL
GASTEIGER

@<TRIPOS>ATOM
      1  N1         6.2190   44.7980   71.2840 N.3   1200  GSH1200    -0.1208
      2  CA1        7.2850   43.9420   71.8120 C.3   1200  GSH1200     0.1948
      3  C1         6.9430   43.3960   73.2240 C.2   1200  GSH1200     0.3819
      4  O11        6.0040   43.9130   73.8440 O.co2 1200  GSH1200    -0.2441
      5  O12        7.6740   42.3880   73.6800 O.co2 1200  GSH1200    -0.2441
      6  CB1        8.5440   44.8110   71.8900 C.3   1200  GSH1200     0.0402
      7  CG1        9.8360   44.0770   71.4390 C.3   1200  GSH1200     0.0889
      8  CD1       10.9920   45.0860   71.6970 C.2   1200  GSH1200     0.2418
      9  OE1       11.2000   46.0060   70.9130 O.2   1200  GSH1200    -0.2733
     10  N2        11.7580   44.8220   72.7700 N.am  1200  GSH1200    -0.1968
     11  CA2       12.9570   45.6210   73.0390 C.3   1200  GSH1200     0.1843
     12  C2        14.1650   44.8530   72.4980 C.2   1200  GSH1200     0.2627
     13  O2        14.2230   43.6160   72.5260 O.2   1200  GSH1200    -0.2714
     14  CB2       13.2000   45.7520   74.5500 C.3   1200  GSH1200     0.0997
     15  SG2       12.1660   47.0210   75.3520 S.3   1200  GSH1200    -0.0797
     16  N3        15.0310   45.5750   71.7710 N.am  1200  GSH1200    -0.1917
     17  CA3       16.1260   44.9580   71.0100 C.3   1200  GSH1200     0.2285
     18  C3        16.3010   45.7300   69.7150 C.2   1200  GSH1200     0.3865
     19  O31       17.0650   45.2350   68.8770 O.co2 1200  GSH1200    -0.2437
     20  O32       15.6250   46.7830   69.5450 O.co2 1200  GSH1200    -0.2437
@<TRIPOS>BOND
     1    19    18   ar
     2    20    18   ar
     3    18    17    1
     4     9     8    2
     5    17    16    1
     6     1     2    1
     7     7     8    1
     8     7     6    1
     9     8    10   am
    10    16    12   am
    11     2     6    1
    12     2     3    1
    13    12    13    2
    14    12    11    1
    15    10    11    1
    16    11    14    1
    17     3     5   ar
    18     3     4   ar
    19    14    15    1
