@<TRIPOS>MOLECULE
1iyi_GSH_A_1.pdb
 20 19 0 0 0
SMALL
GASTEIGER

@<TRIPOS>ATOM
      1  N1        17.9550    2.8790   20.3130 N.3   1200  GSH1200    -0.1208
      2  CA1       19.0260    3.7180   19.7610 C.3   1200  GSH1200     0.1948
      3  C1        18.7020    4.1820   18.3140 C.2   1200  GSH1200     0.3819
      4  O11       17.7820    3.6420   17.6930 O.co2 1200  GSH1200    -0.2441
      5  O12       19.3720    5.2400   17.8720 O.co2 1200  GSH1200    -0.2441
      6  CB1       20.3300    2.8900   19.8020 C.3   1200  GSH1200     0.0402
      7  CG1       21.6190    3.7380   19.6280 C.3   1200  GSH1200     0.0889
      8  CD1       22.8130    2.7350   19.5860 C.2   1200  GSH1200     0.2418
      9  OE1       22.9810    1.9060   20.4900 O.2   1200  GSH1200    -0.2733
     10  N2        23.6620    2.8910   18.5530 N.am  1200  GSH1200    -0.1968
     11  CA2       24.8770    2.0600   18.4610 C.3   1200  GSH1200     0.1843
     12  C2        26.0650    2.8480   19.0350 C.2   1200  GSH1200     0.2627
     13  O2        26.1390    4.0780   18.9360 O.2   1200  GSH1200    -0.2714
     14  CB2       25.2160    1.7720   16.9880 C.3   1200  GSH1200     0.0997
     15  SG2       23.9900    0.7010   16.1760 S.3   1200  GSH1200    -0.0797
     16  N3        26.8470    2.1640   19.8910 N.am  1200  GSH1200    -0.1917
     17  CA3       28.0340    2.7520   20.5370 C.3   1200  GSH1200     0.2285
     18  C3        28.1410    2.1910   21.9430 C.2   1200  GSH1200     0.3865
     19  O31       28.9950    2.7010   22.6860 O.co2 1200  GSH1200    -0.2437
     20  O32       27.3160    1.3200   22.3030 O.co2 1200  GSH1200    -0.2437
@<TRIPOS>BOND
     1    15    14    1
     2    14    11    1
     3     4     3   ar
     4     5     3   ar
     5     3     2    1
     6    11    10    1
     7    11    12    1
     8    10     8   am
     9    13    12    2
    10    12    16   am
    11     8     7    1
    12     8     9    2
    13     7     6    1
    14     2     6    1
    15     2     1    1
    16    16    17    1
    17    17    18    1
    18    18    20   ar
    19    18    19   ar
