@<TRIPOS>MOLECULE
1iyk_MIM_A_1.pdb
 43 45 0 0 0
SMALL
GASTEIGER

@<TRIPOS>ATOM
      1  CIB       21.2820   42.4430   31.8860 C.3   502  MIM502      0.0718
      2  NGB       19.8040   40.6690   30.9920 N.ar  502  MIM502     -0.2293
      3  CBB       19.9720   41.8610   31.5150 C.ar  502  MIM502      0.1208
      4  NAB       18.7550   42.5130   31.6690 N.ar  502  MIM502     -0.3137
      5  CEB       17.7900   41.6520   31.2050 C.ar  502  MIM502      0.0977
      6  CDB       18.4750   40.5490   30.8060 C.ar  502  MIM502      0.1188
      7  C9B       18.3960   43.8540   32.2050 C.3   502  MIM502      0.1072
      8  C8B       18.1740   44.8430   31.0570 C.3   502  MIM502      0.0249
      9  C7B       17.3950   46.0610   31.5600 C.3   502  MIM502      0.0067
     10  C6B       18.0270   46.7830   32.7650 C.3   502  MIM502      0.0264
     11  C3B       19.4500   47.2230   32.5290 C.ar  502  MIM502     -0.0222
     12  C2B       20.4760   46.4860   33.1380 C.ar  502  MIM502     -0.0046
     13  C1B       21.7950   46.8700   32.9380 C.ar  502  MIM502     -0.0041
     14  C0B       22.1060   47.9930   32.1390 C.ar  502  MIM502     -0.0131
     15  C5B       21.0690   48.7280   31.5310 C.ar  502  MIM502     -0.0041
     16  C4B       19.7400   48.3420   31.7310 C.ar  502  MIM502     -0.0046
     17  CAB       23.5610   48.4110   31.9430 C.3   502  MIM502      0.1131
     18  CB        24.0430   49.3490   33.0440 C.2   502  MIM502      0.2463
     19  OB        23.5460   50.4740   33.1840 O.2   502  MIM502     -0.2730
     20  NS        24.9880   48.9090   33.8120 N.am  502  MIM502     -0.1947
     21  CAS       25.4760   49.7010   34.8800 C.3   502  MIM502      0.2054
     22  CS        26.9440   50.0340   34.7080 C.2   502  MIM502      0.2643
     23  OS        27.6640   49.2290   34.1100 O.2   502  MIM502     -0.2714
     24  CBS       25.2430   48.9350   36.1790 C.3   502  MIM502      0.2130
     25  OGS       25.8090   49.6430   37.2500 O.3   502  MIM502     -0.2179
     26  NK        27.3630   51.1760   35.2050 N.am  502  MIM502     -0.1963
     27  CAK       28.7650   51.5350   35.1420 C.3   502  MIM502      0.1728
     28  CK        29.1630   52.0540   36.4890 C.2   502  MIM502      0.2612
     29  OK        28.2850   52.3380   37.3120 O.2   502  MIM502     -0.2715
     30  CBK       29.1450   52.4910   33.9840 C.3   502  MIM502      0.0311
     31  CGK       28.4020   53.8560   34.0320 C.3   502  MIM502      0.0038
     32  CDK       28.8480   54.7410   32.8490 C.3   502  MIM502      0.0206
     33  CEK       28.0030   56.0070   32.7610 C.3   502  MIM502      0.1093
     34  NZK       26.5950   55.6050   32.6570 N.3   502  MIM502     -0.1314
     35  NY        30.4320   52.1720   36.7020 N.am  502  MIM502     -0.2040
     36  CAY       30.9980   52.6420   37.9630 C.3   502  MIM502      0.1152
     37  CBY       32.2640   51.8120   38.2430 C.3   502  MIM502      0.0234
     38  CGY       32.9140   52.1020   39.6120 C.3   502  MIM502      0.0018
     39  CKY       31.9210   51.9410   40.7990 C.3   502  MIM502      0.0001
     40  CHY       32.6520   52.2230   42.1590 C.3   502  MIM502      0.0000
     41  CZY       33.8730   51.3030   42.3600 C.3   502  MIM502      0.0000
     42  CEY       34.8510   51.4590   41.1750 C.3   502  MIM502      0.0000
     43  CDY       34.1440   51.1760   39.8340 C.3   502  MIM502      0.0001
@<TRIPOS>BOND
     1     6     2   ar
     2     6     5   ar
     3     2     3   ar
     4     8     9    1
     5     8     7    1
     6     5     4   ar
     7     3     4   ar
     8     3     1    1
     9    15    16   ar
    10    15    14   ar
    11     9    10    1
    12     4     7    1
    13    16    11   ar
    14    17    14    1
    15    17    18    1
    16    14    13   ar
    17    11    10    1
    18    11    12   ar
    19    34    33    1
    20    33    32    1
    21    32    31    1
    22    13    12   ar
    23    18    19    2
    24    18    20   am
    25    20    21    1
    26    30    31    1
    27    30    27    1
    28    23    22    2
    29    22    21    1
    30    22    26   am
    31    21    24    1
    32    27    26    1
    33    27    28    1
    34    24    25    1
    35    28    35   am
    36    28    29    2
    37    35    36    1
    38    36    37    1
    39    37    38    1
    40    38    43    1
    41    38    39    1
    42    43    42    1
    43    39    40    1
    44    42    41    1
    45    40    41    1
