@<TRIPOS>MOLECULE
1iyl_R64_A_1.pdb
 30 33 0 0 0
SMALL
GASTEIGER

@<TRIPOS>ATOM
      1  O1        11.9680   49.1550   -4.2410 O.2   452  R64452     -0.4504
      2  C2        11.9360   49.3810   -2.8880 C.ar  452  R64452      0.1832
      3  C3        13.1030   48.9670   -2.3160 C.ar  452  R64452      0.0219
      4  C4        13.9030   48.4310   -3.3340 C.ar  452  R64452      0.0675
      5  C5        15.1690   47.7800   -3.3100 C.ar  452  R64452      0.1412
      6  C6        15.7330   47.4580   -4.5190 C.ar  452  R64452      0.0371
      7  C7        15.0450   47.7350   -5.7300 C.ar  452  R64452      0.0062
      8  C8        13.8020   48.3290   -5.7300 C.ar  452  R64452      0.0377
      9  C9        13.2180   48.6330   -4.5000 C.ar  452  R64452      0.1481
     10  C10       10.7570   49.9550   -2.3000 C.2   452  R64452      0.2632
     11  O30       10.7820   50.5510   -1.2290 O.2   452  R64452     -0.2801
     12  C31        9.5260   49.7970   -2.9980 C.ar  452  R64452      0.1867
     13  N32        8.4180   50.5750   -2.6990 N.ar  452  R64452     -0.3056
     14  C30        8.2650   51.6990   -1.7450 C.3   452  R64452      0.1321
     15  C33        7.4150   50.1000   -3.5310 C.ar  452  R64452      0.0981
     16  C34        7.9600   49.0950   -4.2670 C.ar  452  R64452      0.1193
     17  N35        9.2410   48.9210   -3.9370 N.ar  452  R64452     -0.2220
     18  C11       13.5570   48.9990   -0.8870 C.3   452  R64452      0.0345
     19  O12       15.8050   47.4870   -2.1090 O.3   452  R64452     -0.4753
     20  C13       16.9160   46.5880   -2.0200 C.3   452  R64452      0.2069
     21  C14       17.3790   46.4990   -0.5920 C.3   452  R64452      0.0661
     22  C15       16.2830   45.8600    0.1620 C.3   452  R64452      0.0929
     23  N16       16.4880   45.8840    1.6280 N.3   452  R64452     -0.2131
     24  C17       15.3370   45.1580    2.1910 C.3   452  R64452      0.1165
     25  C18       15.5510   44.9730    3.6040 C.ar  452  R64452      0.0144
     26  C19       15.8740   43.7550    4.1340 C.ar  452  R64452      0.0003
     27  C20       16.0650   43.6680    5.5000 C.ar  452  R64452      0.0204
     28  C21       15.9170   44.8100    6.2750 C.ar  452  R64452      0.0989
     29  N22       15.6040   45.9740    5.7320 N.ar  452  R64452     -0.2426
     30  C23       15.4220   46.0570    4.4150 C.ar  452  R64452      0.0960
@<TRIPOS>BOND
     1     7     8   ar
     2     7     6   ar
     3     8     9   ar
     4     6     5   ar
     5     9     1   ar
     6     9     4   ar
     7    16    17   ar
     8    16    15   ar
     9     1     2   ar
    10    17    12   ar
    11    15    13   ar
    12     4     5   ar
    13     4     3   ar
    14     5    19    1
    15    12    13   ar
    16    12    10    1
    17     2     3   ar
    18     2    10    1
    19    13    14    1
    20     3    18    1
    21    10    11    2
    22    19    20    1
    23    20    21    1
    24    21    22    1
    25    22    23    1
    26    23    24    1
    27    24    25    1
    28    25    26   ar
    29    25    30   ar
    30    26    27   ar
    31    30    29   ar
    32    27    28   ar
    33    29    28   ar
