@<TRIPOS>MOLECULE
1iyn_HEM_A_1.pdb
 43 50 0 0 0
SMALL
GASTEIGER

@<TRIPOS>ATOM
      1 FE         -0.5980   36.2570   24.4850 Fe    296  HEM296      0.0000
      2  CHA       -0.0970   33.0640   23.5400 C.2   296  HEM296      0.0000
      3  CHB       -3.6690   36.2510   23.0090 C.2   296  HEM296      0.0000
      4  CHC       -1.0530   39.4800   25.4780 C.2   296  HEM296      0.0000
      5  CHD        2.4510   36.2730   26.0400 C.2   296  HEM296      0.0000
      6  NA        -1.6580   34.9300   23.5040 N.ar  296  HEM296      0.0000
      7  C1A       -1.3150   33.6380   23.2040 C.ar  296  HEM296      0.0000
      8  C2A       -2.4050   32.9520   22.4880 C.ar  296  HEM296      0.0000
      9  C3A       -3.3950   33.8610   22.3380 C.ar  296  HEM296      0.0000
     10  C4A       -2.9390   35.0880   22.9580 C.ar  296  HEM296      0.0000
     11  CMA       -4.7370   33.6080   21.6420 C.3   296  HEM296      0.0000
     12  CAA       -2.4570   31.5020   22.0000 C.3   296  HEM296      0.0000
     13  CBA       -2.4440   30.5420   23.2250 C.3   296  HEM296      0.0000
     14  CGA       -2.5840   29.0630   22.8640 C.2   296  HEM296      0.0000
     15  O1A       -2.7130   28.7030   21.6870 O.co2 296  HEM296      0.0000
     16  O2A       -2.5410   28.2550   23.7830 O.co2 296  HEM296      0.0000
     17  NB        -2.0340   37.5860   24.2640 N.2   296  HEM296      0.0000
     18  C1B       -3.2690   37.4440   23.6100 C.2   296  HEM296      0.0000
     19  C2B       -4.0690   38.6650   23.6430 C.2   296  HEM296      0.0000
     20  C3B       -3.2960   39.5840   24.3470 C.2   296  HEM296      0.0000
     21  C4B       -2.0670   38.9020   24.7340 C.2   296  HEM296      0.0000
     22  CMB       -5.4660   38.8760   23.0270 C.3   296  HEM296      0.0000
     23  CAB       -3.6950   41.0380   24.6550 C.3   296  HEM296      0.0000
     24  CBB       -2.7890   42.0580   23.9760 C.3   296  HEM296      0.0000
     25  NC         0.4570   37.5880   25.5450 N.ar  296  HEM296      0.0000
     26  C1C        0.1080   38.8810   25.8710 C.ar  296  HEM296      0.0000
     27  C2C        1.1140   39.5440   26.6940 C.ar  296  HEM296      0.0000
     28  C3C        2.1060   38.6290   26.8710 C.ar  296  HEM296      0.0000
     29  C4C        1.6970   37.4290   26.1330 C.ar  296  HEM296      0.0000
     30  CMC        1.0010   40.9860   27.2420 C.3   296  HEM296      0.0000
     31  CAC        3.2690   38.6860   27.8850 C.3   296  HEM296      0.0000
     32  CBC        4.0910   39.9550   28.0530 C.3   296  HEM296      0.0000
     33  ND         0.8920   34.9660   24.7160 N.2   296  HEM296      0.0000
     34  C1D        2.0880   35.1300   25.3690 C.2   296  HEM296      0.0000
     35  C2D        2.9400   33.9490   25.2640 C.2   296  HEM296      0.0000
     36  C3D        2.2040   33.0510   24.5420 C.2   296  HEM296      0.0000
     37  C4D        0.9500   33.6770   24.2400 C.2   296  HEM296      0.0000
     38  CMD        4.3540   33.7740   25.8430 C.3   296  HEM296      0.0000
     39  CAD        2.5900   31.6420   24.1120 C.3   296  HEM296      0.0000
     40  CBD        2.3610   30.5130   25.0770 C.3   296  HEM296      0.0000
     41  CGD        2.7450   29.1730   24.4860 C.2   296  HEM296      0.0000
     42  O1D        2.3460   28.1390   25.0420 O.co2 296  HEM296      0.0000
     43  O2D        3.4630   29.1390   23.4490 O.co2 296  HEM296      0.0000
@<TRIPOS>BOND
     1    11     9    1
     2    15    14   ar
     3    12     8    1
     4    12    13    1
     5     9     8   ar
     6     9    10   ar
     7     8     7   ar
     8    14    13    1
     9    14    16   ar
    10    10     3    2
    11    10     6   ar
    12     3    18    1
    13    22    19    1
    14     7     6   ar
    15     7     2    2
    16    43    41   ar
    17     6     1    1
    18     2    37    1
    19    18    19    1
    20    18    17    2
    21    19    20    2
    22    24    23    1
    23    39    36    1
    24    39    40    1
    25    37    36    1
    26    37    33    2
    27    17     1    1
    28    17    21    1
    29    20    23    1
    30    20    21    1
    31     1    33    1
    32     1    25    1
    33    41    42   ar
    34    41    40    1
    35    36    35    2
    36    33    34    1
    37    21     4    2
    38    35    34    1
    39    35    38    1
    40    34     5    2
    41     4    26    1
    42    25    26   ar
    43    25    29   ar
    44    26    27   ar
    45     5    29    1
    46    29    28   ar
    47    27    28   ar
    48    27    30    1
    49    28    31    1
    50    31    32    1
