@<TRIPOS>MOLECULE
1iyo_CEF_A_1.pdb
 26 27 0 0 0
SMALL
GASTEIGER

@<TRIPOS>ATOM
      1  S1        -5.0720  -45.3290   60.9650 S.3   301  CEF301     -0.1100
      2  C2        -3.9410  -44.7640   62.2490 C.3   301  CEF301      0.0873
      3  C3        -2.5230  -44.9930   62.1960 C.2   301  CEF301      0.0125
      4  C3'       -1.7890  -44.8870   63.3210 C.2   301  CEF301     -0.0020
      5  C4        -1.8120  -45.3290   60.9110 C.2   301  CEF301      0.1534
      6  C4'       -0.2660  -45.5610   60.7450 C.2   301  CEF301      0.4044
      7  O4A        0.3640  -44.6470   60.1680 O.co2 301  CEF301     -0.2389
      8  O4B        0.2650  -46.6020   61.1790 O.co2 301  CEF301     -0.2389
      9  N5        -2.5010  -45.4150   59.7690 N.2   301  CEF301     -0.2528
     10  C6        -3.9400  -45.4080   59.5630 C.3   301  CEF301      0.1784
     11  C7        -4.3480  -46.5450   58.4590 C.3   301  CEF301      0.1923
     12  C8        -3.1840  -46.5990   57.4530 C.2   301  CEF301      0.2316
     13  O9        -2.5100  -47.6040   57.2970 O.2   301  CEF301     -0.2863
     14  N10       -4.6290  -47.8140   59.1660 N.am  301  CEF301     -0.1910
     15  C11       -5.9090  -48.1170   59.4780 C.2   301  CEF301      0.2884
     16  O12       -6.8200  -47.2690   59.3270 O.2   301  CEF301     -0.2665
     17  C13       -6.0920  -49.4800   59.9760 C.2   301  CEF301      0.2002
     18  N16       -5.4090  -50.0530   61.0160 N.2   301  CEF301     -0.0759
     19  O17       -4.4500  -49.1720   61.6540 O.2   301  CEF301     -0.3729
     20  C18       -4.2840  -49.6780   62.9640 C.3   301  CEF301      0.2885
     21  C14       -7.0740  -50.4160   59.3580 C.2   301  CEF301      0.1478
     22  C15       -8.1070  -50.0440   58.3980 C.3   301  CEF301      0.1266
     23  S16       -8.9980  -51.3560   57.8640 S.3   301  CEF301     -0.0564
     24  C17       -8.1480  -52.3940   58.8680 C.2   301  CEF301      0.2461
     25  N18       -8.3930  -53.7790   58.9610 N.pl3 301  CEF301     -0.0867
     26  N19       -7.2080  -51.7510   59.5580 N.2   301  CEF301     -0.3794
@<TRIPOS>BOND
     1    13    12    2
     2    12    11    1
     3    23    22    1
     4    23    24    1
     5    22    21    1
     6    11    14    1
     7    11    10    1
     8    24    25    1
     9    24    26    2
    10    14    15   am
    11    16    15    2
    12    21    26    2
    13    21    17    1
    14    15    17    1
    15    10     9    1
    16    10     1    1
    17     9     5    2
    18    17    18    2
    19     7     6   ar
    20     6     5    1
    21     6     8   ar
    22     5     3    1
    23     1     2    1
    24    18    19    1
    25    19    20    1
    26     3     2    1
    27     3     4    2
