@<TRIPOS>MOLECULE
1iyp_CEP_A_1.pdb
 22 23 0 0 0
SMALL
GASTEIGER

@<TRIPOS>ATOM
      1  S1        42.3260   18.5370   28.8860 S.3   301  CEP301     -0.1100
      2  C2        40.9090   18.8770   29.9830 C.3   301  CEP301      0.0873
      3  C3        40.1150   20.1720   29.8230 C.2   301  CEP301      0.0125
      4  C3'       39.0960   20.4170   30.6280 C.2   301  CEP301     -0.0020
      5  C4        40.4730   21.2010   28.7340 C.2   301  CEP301      0.1534
      6  C4'       39.8690   22.5720   28.5310 C.2   301  CEP301      0.4044
      7  O4A       38.8070   22.6290   27.8750 O.co2 301  CEP301     -0.2389
      8  O4B       40.4600   23.5770   28.9900 O.co2 301  CEP301     -0.2389
      9  N5        41.3870   20.8740   27.8460 N.2   301  CEP301     -0.2528
     10  C6        41.7460   19.5230   27.4900 C.3   301  CEP301      0.1784
     11  C7        42.7730   19.5600   26.3290 C.3   301  CEP301      0.1920
     12  C8        42.3480   20.6750   25.3640 C.2   301  CEP301      0.2316
     13  O9        42.7770   21.8040   25.2600 O.2   301  CEP301     -0.2863
     14  N10       44.1240   19.8660   26.8790 N.am  301  CEP301     -0.1959
     15  C11       45.0670   18.9400   27.1170 C.2   301  CEP301      0.2468
     16  O12       44.8890   17.7570   26.8980 O.2   301  CEP301     -0.2729
     17  C13       46.3350   19.5640   27.6930 C.3   301  CEP301      0.1196
     18  C14       47.7210   19.3150   27.1860 C.ar  301  CEP301      0.0165
     19  C15       48.7770   20.2120   27.3280 C.ar  301  CEP301      0.0032
     20  C16       49.8830   19.5780   26.6240 C.ar  301  CEP301      0.0072
     21  C17       49.6760   18.4150   26.1110 C.ar  301  CEP301      0.0351
     22  S19       48.0990   17.9350   26.3980 S.2   301  CEP301     -0.0903
@<TRIPOS>BOND
     1    13    12    2
     2    12    11    1
     3    21    22   ar
     4    21    20   ar
     5    11    14    1
     6    11    10    1
     7    22    18   ar
     8    20    19   ar
     9    14    15   am
    10    16    15    2
    11    15    17    1
    12    18    19   ar
    13    18    17    1
    14    10     9    1
    15    10     1    1
    16     9     5    2
    17     7     6   ar
    18     6     5    1
    19     6     8   ar
    20     5     3    1
    21     1     2    1
    22     3     2    1
    23     3     4    2
