@<TRIPOS>MOLECULE
1iyq_PNM_A_1.pdb
 23 24 0 0 0
SMALL
GASTEIGER

@<TRIPOS>ATOM
      1  O8        42.1960   21.3950   24.9120 O.2   301  PNM301     -0.2863
      2  C7        41.6370   20.2960   25.0350 C.2   301  PNM301      0.2311
      3  N4        40.3720   20.5890   26.9940 N.3   301  PNM301     -0.1957
      4  C3        40.7980   21.4790   28.1060 C.3   301  PNM301      0.1857
      5  C11       39.8640   22.6680   28.2600 C.2   301  PNM301      0.3811
      6  O13       40.2990   23.6980   28.8170 O.co2 301  PNM301     -0.2441
      7  O12       38.6950   22.5630   27.8230 O.co2 301  PNM301     -0.2441
      8  C2        40.8990   20.6170   29.3730 C.3   301  PNM301      0.0658
      9  C10       41.6940   21.3420   30.4580 C.3   301  PNM301      0.0129
     10  C9        39.5040   20.2630   29.9110 C.3   301  PNM301      0.0129
     11  S1        41.8080   19.1320   28.7960 S.3   301  PNM301     -0.1212
     12  C5        41.1090   19.3150   27.1260 C.3   301  PNM301      0.1479
     13  C6        42.1660   19.3060   26.0300 C.3   301  PNM301      0.1855
     14  N14       43.4800   19.7220   26.5300 N.am  301  PNM301     -0.1965
     15  C15       44.3980   18.8500   26.9340 C.2   301  PNM301      0.2462
     16  O16       44.2720   17.6360   26.7960 O.2   301  PNM301     -0.2730
     17  C17       45.6880   19.4330   27.4600 C.3   301  PNM301      0.1131
     18  C18       45.6120   19.8620   28.8900 C.ar  301  PNM301     -0.0130
     19  C19       45.9760   21.1530   29.2620 C.ar  301  PNM301     -0.0038
     20  C20       45.9320   21.5560   30.6050 C.ar  301  PNM301     -0.0003
     21  C21       45.5170   20.6550   31.5870 C.ar  301  PNM301     -0.0000
     22  C22       45.1490   19.3610   31.2220 C.ar  301  PNM301     -0.0003
     23  C23       45.1980   18.9730   29.8750 C.ar  301  PNM301     -0.0038
@<TRIPOS>BOND
     1     1     2    2
     2     2    13    1
     3    13    14    1
     4    13    12    1
     5    14    15   am
     6    16    15    2
     7    15    17    1
     8     3    12    1
     9     3     4    1
    10    12    11    1
    11    17    18    1
    12     7     5   ar
    13     4     5    1
    14     4     8    1
    15     5     6   ar
    16    11     8    1
    17    18    19   ar
    18    18    23   ar
    19    19    20   ar
    20     8    10    1
    21     8     9    1
    22    23    22   ar
    23    20    21   ar
    24    22    21   ar
