@<TRIPOS>MOLECULE
1iyz_NDP_A_1.pdb
 48 52 0 0 0
SMALL
GASTEIGER

@<TRIPOS>ATOM
      1  PA        25.7100  -22.7920 -110.8290 P.3   350  NDP350      0.2189
      2  O1A       26.1210  -23.9330 -110.4750 O.2   350  NDP350     -0.5170
      3  O2A       25.9990  -21.3940 -110.2280 O.3   350  NDP350     -0.4371
      4  O5B       23.9410  -22.7310 -110.6960 O.3   350  NDP350     -0.3112
      5  C5B       23.0990  -21.6090 -110.7460 C.3   350  NDP350      0.1813
      6  C4B       22.8710  -21.1170 -109.3490 C.3   350  NDP350      0.1820
      7  O4B       22.2530  -19.8570 -109.5790 O.3   350  NDP350     -0.3136
      8  C3B       21.8800  -21.9000 -108.4770 C.3   350  NDP350      0.2157
      9  O3B       22.5690  -22.9980 -107.8230 O.3   350  NDP350     -0.2175
     10  C2B       21.2540  -20.8040 -107.6270 C.3   350  NDP350      0.2314
     11  O2B       21.9950  -20.7050 -106.4180 O.3   350  NDP350     -0.2630
     12  C1B       21.3740  -19.4950 -108.5230 C.3   350  NDP350      0.3158
     13  N9A       19.9840  -19.1410 -108.8490 N.pl3 350  NDP350     -0.1439
     14  C8A       19.3050  -18.0610 -108.4600 C.3   350  NDP350      0.3377
     15  N7A       18.0510  -18.1220 -108.9240 N.2   350  NDP350     -0.2095
     16  C5A       17.9970  -19.2530 -109.5920 C.2   350  NDP350      0.2526
     17  C6A       16.8680  -19.7530 -110.2270 C.2   350  NDP350      0.4393
     18  N6A       15.7000  -19.1210 -110.2330 N.pl3 350  NDP350      0.2180
     19  N1A       17.0210  -20.9320 -110.8320 N.2   350  NDP350      0.0021
     20  C2A       18.2000  -21.6150 -110.8380 C.3   350  NDP350      0.5254
     21  N3A       19.2770  -21.1260 -110.2190 N.2   350  NDP350     -0.0055
     22  C4A       19.1820  -19.9270 -109.5730 C.2   350  NDP350      0.3518
     23  O3        25.6440  -22.2260 -112.2890 O.3   350  NDP350     -0.2703
     24  PN        25.9440  -22.6340 -113.7850 P.3   350  NDP350      0.2189
     25  O1N       27.2470  -22.2920 -114.3210 O.3   350  NDP350     -0.4371
     26  O2N       24.7060  -22.8960 -114.5950 O.2   350  NDP350     -0.5170
     27  O5D       25.5260  -21.0590 -113.9850 O.3   350  NDP350     -0.3112
     28  C5D       24.2290  -20.4370 -113.6430 C.3   350  NDP350      0.1813
     29  C4D       24.2590  -18.9150 -114.0100 C.3   350  NDP350      0.1799
     30  O4D       25.5610  -18.5460 -114.5100 O.3   350  NDP350     -0.3327
     31  C3D       23.2890  -18.6300 -115.1570 C.3   350  NDP350      0.2158
     32  O3D       22.5930  -17.4190 -114.8770 O.3   350  NDP350     -0.2175
     33  C2D       24.1870  -18.5920 -116.3680 C.3   350  NDP350      0.2309
     34  O2D       23.5520  -17.9940 -117.4870 O.3   350  NDP350     -0.2158
     35  C1D       25.3670  -17.7820 -115.7210 C.3   350  NDP350      0.2263
     36  N1N       26.5710  -17.8120 -116.6130 N.pl3 350  NDP350     -0.2787
     37  C2N       26.5940  -16.7930 -117.5970 C.3   350  NDP350      0.1244
     38  C3N       27.7350  -16.7600 -118.4970 C.2   350  NDP350      0.0544
     39  C7N       27.8150  -15.7020 -119.5410 C.2   350  NDP350      0.2818
     40  O7N       28.4550  -15.8240 -120.6150 O.2   350  NDP350     -0.2670
     41  N7N       27.1820  -14.5130 -119.3490 N.am  350  NDP350     -0.0839
     42  C4N       28.7380  -17.7360 -118.3380 C.2   350  NDP350      0.0033
     43  C5N       28.6920  -18.7150 -117.3750 C.2   350  NDP350      0.0157
     44  C6N       27.6090  -18.7580 -116.5060 C.2   350  NDP350      0.0633
     45  P2B       21.2790  -20.1700 -105.0130 P.3   350  NDP350      0.5328
     46  O1X       22.4090  -19.9550 -104.0840 O.3   350  NDP350     -0.1145
     47  O2X       20.5840  -18.9270 -105.3720 O.2   350  NDP350     -0.2224
     48  O3X       20.3650  -21.2720 -104.6560 O.3   350  NDP350     -0.1145
@<TRIPOS>BOND
     1    40    39    2
     2    39    41   am
     3    39    38    1
     4    38    42    2
     5    38    37    1
     6    42    43    1
     7    37    36    1
     8    34    33    1
     9    43    44    2
    10    36    44    1
    11    36    35    1
    12    33    35    1
    13    33    31    1
    14    35    30    1
    15    31    32    1
    16    31    29    1
    17    26    24    2
    18    30    29    1
    19    25    24    1
    20    29    28    1
    21    27    24    1
    22    27    28    1
    23    24    23    1
    24    23     1    1
    25    20    19    1
    26    20    21    1
    27    19    17    2
    28     1     4    1
    29     1     2    2
    30     1     3    1
    31     5     4    1
    32     5     6    1
    33    18    17    1
    34    17    16    1
    35    21    22    2
    36    16    22    1
    37    16    15    2
    38     7     6    1
    39     7    12    1
    40    22    13    1
    41     6     8    1
    42    15    14    1
    43    13    12    1
    44    13    14    1
    45    12    10    1
    46     8     9    1
    47     8    10    1
    48    10    11    1
    49    11    45    1
    50    47    45    2
    51    45    48    1
    52    45    46    1
