@<TRIPOS>MOLECULE
1iz2_SUM_A_1.pdb
 31 32 0 0 0
SMALL
GASTEIGER

@<TRIPOS>ATOM
      1  C1       -38.9200  113.5960   36.8630 C.3   800  SUM800      0.2713
      2  C2       -38.8610  115.0010   36.5600 C.3   800  SUM800      0.2406
      3  C3       -38.8370  115.7480   37.7830 C.3   800  SUM800      0.2198
      4  C4       -40.0440  115.4400   38.5080 C.3   800  SUM800      0.2144
      5  C5       -40.0660  114.0120   38.7910 C.3   800  SUM800      0.1835
      6  C6       -41.2540  113.5920   39.4690 C.3   800  SUM800      0.2142
      7  O1       -37.7640  113.2050   37.4360 O.3   800  SUM800     -0.3033
      8  O2       -37.7880  115.2350   35.8300 O.3   800  SUM800     -0.2149
      9  O3       -38.7900  117.0290   37.5030 O.3   800  SUM800     -0.2174
     10  O4       -40.0640  116.1180   39.6390 O.3   800  SUM800     -0.2176
     11  O5       -40.0110  113.3310   37.6460 O.3   800  SUM800     -0.3256
     12  O6       -41.4080  114.1740   40.6160 O.3   800  SUM800     -0.2176
     13  C11      -37.4270  111.7100   35.6190 C.3   800  SUM800      0.2406
     14  C12      -37.2890  111.9620   37.0640 C.3   800  SUM800      0.2515
     15  C13      -35.9220  111.8300   37.5130 C.3   800  SUM800      0.2380
     16  C14      -36.1620  112.0310   38.8620 C.3   800  SUM800      0.2141
     17  C15      -37.0960  110.9740   39.0300 C.3   800  SUM800      0.1533
     18  O11      -36.9130  112.6540   34.8620 O.3   800  SUM800     -0.2149
     19  O13      -35.0680  112.7290   37.0170 O.3   800  SUM800     -0.2150
     20  O14      -35.0760  111.9320   39.6300 O.3   800  SUM800     -0.2176
     21  O15      -37.8350  110.9970   37.8560 O.3   800  SUM800     -0.3299
     22  C21      -38.8360  110.1360   40.4760 C.3   800  SUM800      0.1545
     23  C22      -39.4910  110.1130   41.7250 C.3   800  SUM800      0.0330
     24  C23      -40.8670  110.3560   41.5740 C.3   800  SUM800      0.0026
     25  C24      -41.4740  110.3640   42.8300 C.3   800  SUM800      0.0001
     26  C25      -42.8430  110.6200   42.6920 C.3   800  SUM800      0.0000
     27  C26      -43.3990  110.6730   43.9720 C.3   800  SUM800      0.0000
     28  C27      -43.9450  111.9690   44.1230 C.3   800  SUM800      0.0000
     29  C28      -44.5150  112.1080   45.3900 C.3   800  SUM800      0.0000
     30  O21      -39.1310  109.2310   39.5770 O.3   800  SUM800     -0.2231
     31  CM       -37.8690  111.1670   40.2220 C.3   800  SUM800      0.0652
@<TRIPOS>BOND
     1    18    13    1
     2    13    14    1
     3     8     2    1
     4     2     1    1
     5     2     3    1
     6     1     7    1
     7     1    11    1
     8    19    15    1
     9    14     7    1
    10    14    15    1
    11    14    21    1
    12     9     3    1
    13    15    16    1
    14    11     5    1
    15     3     4    1
    16    21    17    1
    17     4     5    1
    18     4    10    1
    19     5     6    1
    20    16    17    1
    21    16    20    1
    22    17    31    1
    23     6    12    1
    24    30    22    1
    25    31    22    1
    26    22    23    1
    27    24    23    1
    28    24    25    1
    29    26    25    1
    30    26    27    1
    31    27    28    1
    32    28    29    1
