@<TRIPOS>MOLECULE
1izd_MAN_A_1.pdb
 11 11 0 0 0
SMALL
GASTEIGER

@<TRIPOS>ATOM
      1  C1        34.4220  -23.0980   26.7490 C.3   1001  MAN1001     0.1777
      2  C2        33.7780  -24.4820   26.9050 C.3   1001  MAN1001     0.2141
      3  C3        34.1270  -25.3540   25.6980 C.3   1001  MAN1001     0.2173
      4  C4        33.7710  -24.6390   24.3880 C.3   1001  MAN1001     0.2142
      5  C5        34.3850  -23.2330   24.3650 C.3   1001  MAN1001     0.1810
      6  C6        33.9790  -22.4270   23.1470 C.3   1001  MAN1001     0.2141
      7  O2        32.3670  -24.3550   27.0090 O.3   1001  MAN1001    -0.2176
      8  O3        33.4160  -26.5800   25.7790 O.3   1001  MAN1001    -0.2175
      9  O4        34.2650  -25.3900   23.2890 O.3   1001  MAN1001    -0.2176
     10  O5        33.9670  -22.4910   25.5310 O.3   1001  MAN1001    -0.3481
     11  O6        32.5680  -22.2830   23.0710 O.3   1001  MAN1001    -0.2176
@<TRIPOS>BOND
     1    11     6    1
     2     6     5    1
     3     9     4    1
     4     5     4    1
     5     5    10    1
     6     4     3    1
     7    10     1    1
     8     3     8    1
     9     3     2    1
    10     1     2    1
    11     2     7    1
