@<TRIPOS>MOLECULE
1ize_MAN_A_1.pdb
 11 11 0 0 0
SMALL
GASTEIGER

@<TRIPOS>ATOM
      1  C1        38.2560   46.1330   26.1840 C.3   1001  MAN1001     0.1777
      2  C2        38.5920   47.5970   25.8760 C.3   1001  MAN1001     0.2141
      3  C3        37.7390   48.5250   26.7410 C.3   1001  MAN1001     0.2173
      4  C4        36.2550   48.1850   26.5810 C.3   1001  MAN1001     0.2142
      5  C5        36.0200   46.6900   26.8320 C.3   1001  MAN1001     0.1810
      6  C6        34.5860   46.2760   26.5700 C.3   1001  MAN1001     0.2141
      7  O2        38.3400   47.8670   24.5040 O.3   1001  MAN1001    -0.2176
      8  O3        37.9620   49.8720   26.3500 O.3   1001  MAN1001    -0.2175
      9  O4        35.4890   48.9490   27.5010 O.3   1001  MAN1001    -0.2176
     10  O5        36.8580   45.9010   25.9580 O.3   1001  MAN1001    -0.3481
     11  O6        34.2860   46.3180   25.1820 O.3   1001  MAN1001    -0.2176
@<TRIPOS>BOND
     1     7     2    1
     2    11     6    1
     3     2     1    1
     4     2     3    1
     5    10     1    1
     6    10     5    1
     7     8     3    1
     8     6     5    1
     9     4     3    1
    10     4     5    1
    11     4     9    1
