@<TRIPOS>MOLECULE
1ize_III_B_1.pdb
 48 47 0 0 0
SMALL
GASTEIGER

@<TRIPOS>ATOM
      1  CA        46.6480   23.1920    4.6170 C.3   2001  IVA2001     0.0868
      2  CB        46.9740   22.8230    3.1720 C.3   2001  IVA2001     0.0091
      3  CG1       48.0930   23.7250    2.6610 C.3   2001  IVA2001     0.0005
      4  CG2       45.7340   22.9730    2.2990 C.3   2001  IVA2001     0.0005
      5  C         47.8310   23.0050    5.5490 C.2   2001  IVA2001     0.2418
      6  O         48.7660   22.2550    5.2490 O.2   2001  IVA2001    -0.2733
      7  N         47.7910   23.6780    6.6930 N.am  2002  VAL2002    -0.1978
      8  CA        48.8740   23.5700    7.6620 C.3   2002  VAL2002     0.1726
      9  C         48.3570   22.9530    8.9560 C.2   2002  VAL2002     0.2616
     10  O         47.1550   22.8990    9.1930 O.2   2002  VAL2002    -0.2715
     11  CB        49.4900   24.9570    7.9760 C.3   2002  VAL2002     0.0290
     12  CG1       50.1400   25.5340    6.7250 C.3   2002  VAL2002     0.0023
     13  CG2       48.4100   25.9020    8.5040 C.3   2002  VAL2002     0.0023
     14  N         49.2790   22.4780    9.7810 N.am  2003  VAL2003    -0.1963
     15  CA        48.9420   21.8730   11.0630 C.3   2003  VAL2003     0.1727
     16  C         50.0190   22.3400   12.0340 C.2   2003  VAL2003     0.2612
     17  O         51.1400   21.8350   12.0060 O.2   2003  VAL2003    -0.2715
     18  CB        48.9660   20.3290   10.9960 C.3   2003  VAL2003     0.0290
     19  CG1       48.6740   19.7580   12.3770 C.3   2003  VAL2003     0.0023
     20  CG2       47.9350   19.8230    9.9860 C.3   2003  VAL2003     0.0023
     21  N         49.6700   23.3040   12.8810 N.am  2004  STA2004    -0.2031
     22  CA        50.6090   23.8790   13.8410 C.3   2004  STA2004     0.1261
     23  CB        50.9240   25.3280   13.4460 C.3   2004  STA2004     0.0243
     24  CG        51.1920   25.6020   11.9590 C.3   2004  STA2004     0.0018
     25  CD1       52.4790   24.9300   11.4680 C.3   2004  STA2004     0.0001
     26  CD2       51.2400   27.0930   11.6780 C.3   2004  STA2004     0.0001
     27  CH        50.0690   23.8210   15.2930 C.3   2004  STA2004     0.1809
     28  OH        48.7570   24.3960   15.3350 O.3   2004  STA2004    -0.2208
     29  CM        50.0090   22.3690   15.7800 C.3   2004  STA2004     0.1214
     30  C         51.3790   21.7980   16.1060 C.2   2004  STA2004     0.2444
     31  O         52.0040   21.1590   15.2590 O.2   2004  STA2004    -0.2732
     32  N         51.8610   22.0350   17.3230 N.am  2005  ALA2005    -0.1977
     33  CA        53.1630   21.5110   17.7320 C.3   2005  ALA2005     0.1728
     34  C         52.9880   20.0690   18.2060 C.2   2005  ALA2005     0.2612
     35  O         52.8760   19.8050   19.4050 O.2   2005  ALA2005    -0.2715
     36  CB        53.7470   22.3670   18.8480 C.3   2005  ALA2005     0.0334
     37  N         52.9490   19.1420   17.2530 N.am  2006  STA2006    -0.2031
     38  CA        52.7720   17.7240   17.5640 C.3   2006  STA2006     0.1262
     39  CB        51.5260   17.1710   16.8650 C.3   2006  STA2006     0.0243
     40  CG        50.4310   18.1620   16.4640 C.3   2006  STA2006     0.0018
     41  CD1       49.5800   18.5530   17.6620 C.3   2006  STA2006     0.0001
     42  CD2       49.5620   17.5860   15.3540 C.3   2006  STA2006     0.0001
     43  CH        54.0160   16.8880   17.1820 C.3   2006  STA2006     0.1830
     44  OH        54.6590   17.4670   16.0400 O.3   2006  STA2006    -0.2207
     45  CM        54.9890   16.7950   18.3650 C.3   2006  STA2006     0.1486
     46  C         56.3100   17.4990   18.0980 C.2   2006  STA2006     0.3675
     47  O         57.2880   16.7980   17.7590 O.co2 2006  STA2006    -0.2456
     48  OXT       56.4460   18.6650   18.5270 O.co2 2006  STA2006    -0.2456
@<TRIPOS>BOND
     1     4     2    1
     2     3     2    1
     3     2     1    1
     4     1     5    1
     5     6     5    2
     6     5     7   am
     7     7     8    1
     8    12    11    1
     9     8    11    1
    10     8     9    1
    11    11    13    1
    12     9    10    2
    13     9    14   am
    14    14    15    1
    15    20    18    1
    16    18    15    1
    17    18    19    1
    18    15    16    1
    19    25    24    1
    20    26    24    1
    21    24    23    1
    22    17    16    2
    23    16    21   am
    24    21    22    1
    25    23    22    1
    26    22    27    1
    27    31    30    2
    28    27    28    1
    29    27    29    1
    30    42    40    1
    31    29    30    1
    32    44    43    1
    33    30    32   am
    34    40    39    1
    35    40    41    1
    36    39    38    1
    37    43    38    1
    38    43    45    1
    39    37    38    1
    40    37    34   am
    41    32    33    1
    42    33    34    1
    43    33    36    1
    44    47    46   ar
    45    46    45    1
    46    46    48   ar
    47    34    35    2
