@<TRIPOS>MOLECULE
1izh_Q50_B_1.pdb
 50 52 0 0 0
SMALL
GASTEIGER

@<TRIPOS>ATOM
      1  O49       17.7390   14.9760    5.8160 O.2   1001  Q501001    -0.2698
      2  C48       18.7310   15.4960    5.3870 C.2   1001  Q501001     0.2809
      3  N50       19.5420   14.9160    4.4730 N.am  1001  Q501001    -0.0863
      4  C40       19.0200   16.8930    5.8830 C.3   1001  Q501001     0.1787
      5  C41       19.6640   16.8490    7.2620 C.3   1001  Q501001     0.0575
      6  C42       18.8460   16.2080    8.3310 C.ar  1001  Q501001    -0.0200
      7  C43       17.9980   17.0110    9.0630 C.ar  1001  Q501001    -0.0042
      8  C44       17.1940   16.4610   10.0440 C.ar  1001  Q501001    -0.0003
      9  C45       17.3020   15.1160   10.3240 C.ar  1001  Q501001    -0.0000
     10  C46       18.1740   14.3070    9.6040 C.ar  1001  Q501001    -0.0003
     11  C47       18.9600   14.8350    8.6010 C.ar  1001  Q501001    -0.0042
     12  N39       17.7630   17.6720    5.8330 N.am  1001  Q501001    -0.1959
     13  C37       17.7050   18.9640    5.4510 C.2   1001  Q501001     0.2616
     14  O38       18.6960   19.6900    5.2780 O.2   1001  Q501001    -0.2715
     15  C31       16.2900   19.4800    5.3320 C.3   1001  Q501001     0.1732
     16  C32       15.7940   19.5590    3.8840 C.3   1001  Q501001     0.0408
     17  C33       15.6970   18.2300    3.1140 C.3   1001  Q501001     0.0908
     18  C34       17.0490   17.8280    2.5830 C.2   1001  Q501001     0.2608
     19  O35       17.7960   18.6550    2.0740 O.2   1001  Q501001    -0.2717
     20  N36       17.3610   16.5420    2.6910 N.am  1001  Q501001    -0.0878
     21  N30       16.1850   20.8720    5.6940 N.am  1001  Q501001    -0.1978
     22  C28       15.0460   21.3940    6.1270 C.2   1001  Q501001     0.2417
     23  O29       14.0120   20.7170    6.2180 O.2   1001  Q501001    -0.2733
     24  C20       15.0840   22.8800    6.4190 C.3   1001  Q501001     0.0851
     25  C21       15.6510   23.3280    7.7350 C.3   1001  Q501001     0.0356
     26  C22       15.5260   22.2030    8.6680 C.ar  1001  Q501001    -0.0217
     27  C23       14.3090   21.9370    9.2910 C.ar  1001  Q501001    -0.0043
     28  C24       14.2700   20.8360   10.1510 C.ar  1001  Q501001    -0.0003
     29  C25       15.4180   20.0660   10.3660 C.ar  1001  Q501001    -0.0000
     30  C26       16.5890   20.3380    9.7170 C.ar  1001  Q501001    -0.0003
     31  C27       16.6440   21.4230    8.8610 C.ar  1001  Q501001    -0.0043
     32  C19       13.6800   23.4380    6.3340 C.3   1001  Q501001     0.0442
     33  C17       13.4230   23.7170    4.8570 C.3   1001  Q501001     0.1727
     34  O18       14.0780   24.9530    4.5370 O.3   1001  Q501001    -0.2213
     35  C9        11.9070   23.6980    4.5770 C.3   1001  Q501001     0.1333
     36  N8        11.2360   24.8030    5.2760 N.am  1001  Q501001    -0.1675
     37  C6        10.7190   24.6790    6.4730 C.2   1001  Q501001     0.4209
     38  O7        10.7920   23.6130    7.0740 O.2   1001  Q501001    -0.2246
     39  O5        10.0650   25.8830    7.0100 O.3   1001  Q501001    -0.4408
     40  C1         9.5900   26.1170    8.3260 C.3   1001  Q501001     0.1379
     41  C4        10.7050   25.8170    9.3020 C.3   1001  Q501001     0.0437
     42  C3         8.3440   25.2760    8.5850 C.3   1001  Q501001     0.0437
     43  C2         9.2050   27.5960    8.4100 C.3   1001  Q501001     0.0437
     44  C10       11.5760   23.9060    3.1030 C.3   1001  Q501001     0.0507
     45  C11       10.0660   23.8980    2.8660 C.ar  1001  Q501001    -0.0204
     46  C12        9.4310   25.0740    2.5610 C.ar  1001  Q501001    -0.0042
     47  C13        8.0520   25.1340    2.3730 C.ar  1001  Q501001    -0.0003
     48  C14        7.2930   23.9690    2.4790 C.ar  1001  Q501001    -0.0000
     49  C15        7.9340   22.7860    2.7650 C.ar  1001  Q501001    -0.0003
     50  C16        9.3110   22.7290    2.9780 C.ar  1001  Q501001    -0.0042
@<TRIPOS>BOND
     1    19    18    2
     2    47    48   ar
     3    47    46   ar
     4    48    49   ar
     5    46    45   ar
     6    18    20   am
     7    18    17    1
     8    49    50   ar
     9    45    50   ar
    10    45    44    1
    11    44    35    1
    12    17    16    1
    13    16    15    1
    14     3     2   am
    15    34    33    1
    16    35    33    1
    17    35    36    1
    18    33    32    1
    19    36    37   am
    20    14    13    2
    21    15    13    1
    22    15    21    1
    23     2     1    2
    24     2     4    1
    25    13    12   am
    26    21    22   am
    27    12     4    1
    28     4     5    1
    29    22    23    2
    30    22    24    1
    31    32    24    1
    32    24    25    1
    33    37    39    1
    34    37    38    2
    35    39    40    1
    36     5     6    1
    37    25    26    1
    38    40    43    1
    39    40    42    1
    40    40    41    1
    41     6    11   ar
    42     6     7   ar
    43    11    10   ar
    44    26    31   ar
    45    26    27   ar
    46    31    30   ar
    47     7     8   ar
    48    27    28   ar
    49    10     9   ar
    50    30    29   ar
    51     8     9   ar
    52    28    29   ar
