@<TRIPOS>MOLECULE
1izi_Q50_B_1.pdb
 50 52 0 0 0
SMALL
GASTEIGER

@<TRIPOS>ATOM
      1  O49       -3.9530   14.6600   -7.6440 O.2   1001  Q501001    -0.2698
      2  C48       -4.2930   15.8400   -7.7910 C.2   1001  Q501001     0.2809
      3  N50       -4.5600   16.3310   -9.0110 N.am  1001  Q501001    -0.0863
      4  C40       -4.4850   16.8570   -6.6450 C.3   1001  Q501001     0.1787
      5  C41       -3.1780   17.3160   -5.9450 C.3   1001  Q501001     0.0575
      6  C42       -2.2930   16.2270   -5.3300 C.ar  1001  Q501001    -0.0200
      7  C43       -2.6210   15.5970   -4.1330 C.ar  1001  Q501001    -0.0042
      8  C44       -1.7590   14.6470   -3.5640 C.ar  1001  Q501001    -0.0003
      9  C45       -0.5510   14.3010   -4.1450 C.ar  1001  Q501001    -0.0000
     10  C46       -0.2120   14.9300   -5.3270 C.ar  1001  Q501001    -0.0003
     11  C47       -1.0550   15.8850   -5.9040 C.ar  1001  Q501001    -0.0042
     12  N39       -5.4320   16.3400   -5.6420 N.am  1001  Q501001    -0.1959
     13  C37       -6.4340   17.0550   -5.0880 C.2   1001  Q501001     0.2616
     14  O38       -6.5610   18.2700   -5.3930 O.2   1001  Q501001    -0.2715
     15  C31       -7.3090   16.1970   -4.0950 C.3   1001  Q501001     0.1732
     16  C32       -8.6100   15.6400   -4.6070 C.3   1001  Q501001     0.0408
     17  C33       -8.3160   14.7610   -5.7950 C.3   1001  Q501001     0.0908
     18  C34       -8.3420   15.6690   -6.9720 C.2   1001  Q501001     0.2608
     19  O35       -9.0380   16.6530   -6.9410 O.2   1001  Q501001    -0.2717
     20  N36       -7.5680   15.3710   -8.0180 N.am  1001  Q501001    -0.0878
     21  N30       -7.6550   16.9040   -2.8890 N.am  1001  Q501001    -0.1978
     22  C28       -7.5570   16.3320   -1.7260 C.2   1001  Q501001     0.2417
     23  O29       -7.2820   15.1350   -1.6000 O.2   1001  Q501001    -0.2733
     24  C20       -7.8610   17.2930   -0.6240 C.3   1001  Q501001     0.0851
     25  C21       -6.6180   17.7820    0.1270 C.3   1001  Q501001     0.0356
     26  C22       -5.3110   17.8050   -0.6420 C.ar  1001  Q501001    -0.0217
     27  C23       -4.3130   16.8700   -0.3330 C.ar  1001  Q501001    -0.0043
     28  C24       -3.1010   16.9150   -1.0320 C.ar  1001  Q501001    -0.0003
     29  C25       -2.8240   17.8960   -2.0090 C.ar  1001  Q501001    -0.0000
     30  C26       -3.8050   18.8320   -2.3110 C.ar  1001  Q501001    -0.0003
     31  C27       -5.0340   18.7910   -1.6150 C.ar  1001  Q501001    -0.0043
     32  C19       -8.7030   16.5880    0.3920 C.3   1001  Q501001     0.0442
     33  C17      -10.1200   16.5030   -0.0710 C.3   1001  Q501001     0.1727
     34  O18      -10.5440   17.8640    0.2220 O.3   1001  Q501001    -0.2213
     35  C9       -10.7220   15.2360    0.5860 C.3   1001  Q501001     0.1333
     36  N8       -10.7880   15.4390    2.0550 N.am  1001  Q501001    -0.1675
     37  C6        -9.9930   14.7200    2.8970 C.2   1001  Q501001     0.4209
     38  O7        -9.2790   13.8920    2.3210 O.2   1001  Q501001    -0.2246
     39  O5       -10.0040   14.8980    4.3980 O.3   1001  Q501001    -0.4408
     40  C1        -9.0380   14.9940    5.5250 C.3   1001  Q501001     0.1379
     41  C4        -7.8290   15.8470    5.2340 C.3   1001  Q501001     0.0437
     42  C3        -8.5770   13.6610    6.0520 C.3   1001  Q501001     0.0437
     43  C2        -9.6780   15.5550    6.7800 C.3   1001  Q501001     0.0437
     44  C10      -12.0860   14.7920    0.0020 C.3   1001  Q501001     0.0507
     45  C11      -12.6780   13.5780    0.7010 C.ar  1001  Q501001    -0.0204
     46  C12      -13.7160   13.7350    1.6590 C.ar  1001  Q501001    -0.0042
     47  C13      -14.2830   12.6480    2.3460 C.ar  1001  Q501001    -0.0003
     48  C14      -13.8400   11.3510    2.0920 C.ar  1001  Q501001    -0.0000
     49  C15      -12.8230   11.1770    1.1240 C.ar  1001  Q501001    -0.0003
     50  C16      -12.2460   12.2630    0.4180 C.ar  1001  Q501001    -0.0042
@<TRIPOS>BOND
     1     3     2   am
     2    20    18   am
     3     2     1    2
     4     2     4    1
     5    18    19    2
     6    18    17    1
     7     4     5    1
     8     4    12    1
     9     5     6    1
    10    11     6   ar
    11    11    10   ar
    12    17    16    1
    13    12    13   am
    14    14    13    2
    15     6     7   ar
    16    10     9   ar
    17    13    15    1
    18    16    15    1
    19     9     8   ar
    20     7     8   ar
    21    15    21    1
    22    21    22   am
    23    30    29   ar
    24    30    31   ar
    25    29    28   ar
    26    22    23    2
    27    22    24    1
    28    31    26   ar
    29    28    27   ar
    30    26    27   ar
    31    26    25    1
    32    24    25    1
    33    24    32    1
    34    33    34    1
    35    33    32    1
    36    33    35    1
    37    44    35    1
    38    44    45    1
    39    50    45   ar
    40    50    49   ar
    41    35    36    1
    42    45    46   ar
    43    49    48   ar
    44    46    47   ar
    45    36    37   am
    46    48    47   ar
    47    38    37    2
    48    37    39    1
    49    39    40    1
    50    41    40    1
    51    40    42    1
    52    40    43    1
