@<TRIPOS>MOLECULE
1izl_PHO_A_1.pdb
 34 39 0 0 0
SMALL
GASTEIGER

@<TRIPOS>ATOM
      1  CHA       13.5350   63.8190   40.4180 C.2   367  PHO367      0.0727
      2  CHB       14.0710   61.2850   44.5190 C.2   367  PHO367      0.1301
      3  CHC       15.1210   57.2850   41.9760 C.2   367  PHO367      0.1301
      4  CHD       14.8820   59.9190   37.8650 C.2   367  PHO367      0.0981
      5  NA        13.9330   62.3590   42.3340 N.2   367  PHO367     -0.3677
      6  C1A       13.6240   63.5760   41.7970 C.2   367  PHO367      0.1426
      7  C2A       13.4250   64.5850   42.9000 C.2   367  PHO367      0.0138
      8  C3A       13.6780   63.7900   44.1760 C.2   367  PHO367      0.0336
      9  C4A       13.8930   62.3990   43.6830 C.1   367  PHO367      0.0084
     10  CMA       14.9900   64.2720   44.8050 C.3   367  PHO367      0.0412
     11  CAA       11.9430   65.1470   42.7660 C.3   367  PHO367      0.0341
     12  NB        14.5370   59.5030   42.9320 N.2   367  PHO367     -0.3327
     13  C1B       14.3010   59.9970   44.1830 C.1   367  PHO367      0.0183
     14  C2B       14.1270   58.8910   45.1070 C.2   367  PHO367      0.0408
     15  C3B       14.3650   57.7260   44.4180 C.2   367  PHO367      0.0408
     16  C4B       14.7660   58.1320   43.0460 C.1   367  PHO367      0.0183
     17  CMB       13.7290   59.0610   46.5660 C.3   367  PHO367      0.0418
     18  CAB       13.8540   56.4820   45.0680 C.3   367  PHO367      0.0418
     19  NC        14.9870   58.9140   40.1000 N.2   367  PHO367     -0.3673
     20  C1C       15.2420   57.6650   40.5920 C.1   367  PHO367      0.0084
     21  C2C       15.6840   56.8020   39.4810 C.2   367  PHO367      0.0336
     22  C3C       15.6160   57.5610   38.3410 C.2   367  PHO367      0.0141
     23  C4C       15.1380   58.8710   38.7300 C.2   367  PHO367      0.1469
     24  CMC       16.0860   55.3450   39.5720 C.3   367  PHO367      0.0412
     25  CAC       15.9560   57.1560   36.9280 C.3   367  PHO367      0.0341
     26  ND        14.3040   61.5840   39.4960 N.2   367  PHO367     -0.3338
     27  C1D       14.4420   61.1960   38.2180 C.1   367  PHO367      0.0116
     28  C2D       14.0360   62.2140   37.3130 C.2   367  PHO367      0.0470
     29  C3D       13.6650   63.2900   38.1230 C.2   367  PHO367      0.0966
     30  C4D       13.8530   62.8740   39.4480 C.1   367  PHO367      0.0137
     31  CMD       14.0010   62.1560   35.7580 C.3   367  PHO367      0.0422
     32  CAD       13.1460   64.6360   38.1500 C.2   367  PHO367      0.1873
     33  OBD       12.8150   65.4320   37.2300 O.2   367  PHO367     -0.2903
     34  CBD       13.0170   65.0320   39.6460 C.3   367  PHO367      0.1084
@<TRIPOS>BOND
     1    31    28    1
     2    25    22    1
     3    33    32    2
     4    28    29    2
     5    28    27    1
     6     4    27    2
     7     4    23    1
     8    29    32    1
     9    29    30    1
    10    32    34    1
    11    27    26    2
    12    22    23    1
    13    22    21    2
    14    23    19    2
    15    30    26    2
    16    30     1    2
    17    21    24    1
    18    21    20    1
    19    34     1    1
    20    19    20    2
    21     1     6    1
    22    20     3    2
    23     6     5    2
    24     6     7    1
    25     3    16    1
    26     5     9    2
    27    11     7    1
    28     7     8    2
    29    12    16    2
    30    12    13    2
    31    16    15    2
    32     9     8    1
    33     9     2    2
    34     8    10    1
    35    13     2    1
    36    13    14    2
    37    15    18    1
    38    15    14    1
    39    14    17    1
