@<TRIPOS>MOLECULE
1izl_HEM_0_1.pdb
 25 32 0 0 0
SMALL
GASTEIGER

@<TRIPOS>ATOM
      1  CHA       -6.6160  -45.4350   20.5610 C.2   138  HEM138      0.0000
      2  CHB       -7.8050  -41.8540   17.4500 C.2   138  HEM138      0.0000
      3  CHC       -5.4010  -44.1060   13.9770 C.2   138  HEM138      0.0000
      4  CHD       -4.6090  -47.8690   16.9410 C.2   138  HEM138      0.0000
      5  C1A       -7.1400  -44.2120   20.1030 C.2   138  HEM138      0.0000
      6  C2A       -7.8590  -43.1510   20.9270 C.2   138  HEM138      0.0000
      7  C3A       -8.2910  -42.1470   19.9330 C.2   138  HEM138      0.0000
      8  C4A       -7.7520  -42.6410   18.6080 C.2   138  HEM138      0.0000
      9  C1B       -7.2380  -42.0820   16.1950 C.ar  138  HEM138      0.0000
     10  C2B       -7.2640  -41.2190   15.1010 C.ar  138  HEM138      0.0000
     11  C3B       -6.5210  -41.8430   14.0710 C.ar  138  HEM138      0.0000
     12  C4B       -6.0930  -43.0690   14.6160 C.ar  138  HEM138      0.0000
     13  C1C       -4.9980  -45.3640   14.4200 C.2   138  HEM138      0.0000
     14  C2C       -4.2410  -46.3540   13.5490 C.2   138  HEM138      0.0000
     15  C3C       -4.0010  -47.5130   14.4430 C.2   138  HEM138      0.0000
     16  C4C       -4.6500  -47.1120   15.7670 C.2   138  HEM138      0.0000
     17  C1D       -5.1030  -47.5010   18.1980 C.ar  138  HEM138      0.0000
     18  C2D       -5.0140  -48.2510   19.3500 C.ar  138  HEM138      0.0000
     19  C3D       -5.5860  -47.5730   20.4490 C.ar  138  HEM138      0.0000
     20  C4D       -5.9880  -46.3990   19.7920 C.ar  138  HEM138      0.0000
     21  NA        -7.0960  -43.8490   18.7590 N.2   138  HEM138      0.0000
     22  NB        -6.5240  -43.2130   15.9170 N.ar  138  HEM138      0.0000
     23  NC        -5.2140  -45.8550   15.6850 N.2   138  HEM138      0.0000
     24  ND        -5.7210  -46.3350   18.4760 N.ar  138  HEM138      0.0000
     25 FE         -6.2520  -44.8520   17.2480 Fe    138  HEM138      0.0000
@<TRIPOS>BOND
     1    14    13    1
     2    14    15    2
     3     3    13    2
     4     3    12    1
     5    11    12   ar
     6    11    10   ar
     7    13    23    1
     8    15    16    1
     9    12    22   ar
    10    10     9   ar
    11    23    16    2
    12    23    25    1
    13    16     4    1
    14    22     9   ar
    15    22    25    1
    16     9     2    1
    17     4    17    2
    18    25    24    1
    19    25    21    1
    20     2     8    2
    21    17    24   ar
    22    17    18   ar
    23    24    20   ar
    24     8    21    1
    25     8     7    1
    26    21     5    2
    27    18    19   ar
    28    20    19   ar
    29    20     1    2
    30     7     6    2
    31     5     1    1
    32     5     6    1
