@<TRIPOS>MOLECULE
1izl_CLA_A_1.pdb
 35 41 0 0 0
SMALL
GASTEIGER

@<TRIPOS>ATOM
      1 MG         23.7360   49.4440   53.5640 Mg    365  CLA365      0.0000
      2  CHA       27.2460   49.0410   52.8580 C.2   365  CLA365      0.0000
      3  CHB       23.3800   50.9650   50.5560 C.2   365  CLA365      0.0000
      4  CHC       20.2760   48.9150   53.6390 C.2   365  CLA365      0.0000
      5  CHD       24.0700   47.3460   56.2710 C.2   365  CLA365      0.0000
      6  NA        25.1250   49.9290   51.9480 N.2   365  CLA365      0.0000
      7  C1A       26.5140   49.7830   51.9450 C.2   365  CLA365      0.0000
      8  C2A       27.1140   50.6240   50.8260 C.2   365  CLA365      0.0000
      9  C3A       25.8820   51.2900   50.2180 C.2   365  CLA365      0.0000
     10  C4A       24.7220   50.6830   50.9030 C.1   365  CLA365      0.0000
     11  CMA       25.9350   52.7380   50.6610 C.3   365  CLA365      0.0000
     12  CAA       27.7540   49.7470   49.6960 C.3   365  CLA365      0.0000
     13  NB        22.1280   49.7920   52.2560 N.ar  365  CLA365      0.0000
     14  C1B       22.2350   50.5400   51.1240 C.ar  365  CLA365      0.0000
     15  C2B       20.8900   50.7180   50.5530 C.ar  365  CLA365      0.0000
     16  C3B       19.9920   50.1310   51.4360 C.ar  365  CLA365      0.0000
     17  C4B       20.7770   49.5930   52.5330 C.ar  365  CLA365      0.0000
     18  CMB       20.6090   51.3350   49.1670 C.3   365  CLA365      0.0000
     19  CAB       18.6010   50.0280   51.0320 C.3   365  CLA365      0.0000
     20  NC        22.4150   48.2820   54.7310 N.2   365  CLA365      0.0000
     21  C1C       21.0470   48.3080   54.6690 C.1   365  CLA365      0.0000
     22  C2C       20.5010   47.5960   55.8260 C.2   365  CLA365      0.0000
     23  C3C       21.5580   47.1660   56.5660 C.2   365  CLA365      0.0000
     24  C4C       22.7750   47.5990   55.8680 C.2   365  CLA365      0.0000
     25  CMC       19.0420   47.3800   56.1390 C.3   365  CLA365      0.0000
     26  CAC       21.5280   46.4460   57.8830 C.3   365  CLA365      0.0000
     27  ND        25.2210   48.3920   54.4190 N.ar  365  CLA365      0.0000
     28  C1D       25.2430   47.7090   55.5890 C.ar  365  CLA365      0.0000
     29  C2D       26.5540   47.3820   55.9950 C.ar  365  CLA365      0.0000
     30  C3D       27.3830   47.9000   55.0030 C.ar  365  CLA365      0.0000
     31  C4D       26.5140   48.4810   54.0040 C.ar  365  CLA365      0.0000
     32  CMD       26.9700   46.5880   57.2410 C.3   365  CLA365      0.0000
     33  CAD       28.6600   47.9020   54.4040 C.2   365  CLA365      0.0000
     34  OBD       29.8040   47.6740   54.8010 O.2   365  CLA365      0.0000
     35  CBD       28.5640   48.4830   53.1160 C.3   365  CLA365      0.0000
@<TRIPOS>BOND
     1    18    15    1
     2    12     8    1
     3     9    11    1
     4     9     8    2
     5     9    10    1
     6    15    14   ar
     7    15    16   ar
     8     3    10    2
     9     3    14    1
    10     8     7    1
    11    10     6    2
    12    19    16    1
    13    14    13   ar
    14    16    17   ar
    15     7     6    2
    16     7     2    1
    17    13    17   ar
    18    13     1    1
    19    17     4    1
    20     2    35    1
    21     2    31    2
    22    35    33    1
    23     1    27    1
    24     4    21    2
    25    31    27   ar
    26    31    30   ar
    27    33    34    2
    28    33    30    1
    29    27    28   ar
    30    21    20    2
    31    21    22    1
    32    20    24    2
    33    30    29   ar
    34    28    29   ar
    35    28     5    2
    36    22    25    1
    37    22    23    2
    38    24     5    1
    39    24    23    1
    40    29    32    1
    41    23    26    1
