@<TRIPOS>MOLECULE
1izo_HEM_A_1.pdb
 43 50 0 0 0
SMALL
GASTEIGER

@<TRIPOS>ATOM
      1 FE         82.3450   12.7700   43.8170 Fe    501  HEM501      0.0000
      2  CHA       82.1140   16.2100   44.1200 C.2   501  HEM501      0.0000
      3  CHB       84.8540   13.1860   41.4580 C.2   501  HEM501      0.0000
      4  CHC       82.3370    9.3610   43.1920 C.2   501  HEM501      0.0000
      5  CHD       79.3640   12.2630   45.8920 C.2   501  HEM501      0.0000
      6  NA        83.3110   14.4470   42.9590 N.ar  501  HEM501      0.0000
      7  C1A       83.1410   15.7180   43.3030 C.ar  501  HEM501      0.0000
      8  C2A       84.1660   16.5860   42.6750 C.ar  501  HEM501      0.0000
      9  C3A       84.9190   15.7690   41.9430 C.ar  501  HEM501      0.0000
     10  C4A       84.3620   14.4420   42.1260 C.ar  501  HEM501      0.0000
     11  CMA       86.1160   16.1240   41.0620 C.3   501  HEM501      0.0000
     12  CAA       84.2940   18.0920   42.8350 C.3   501  HEM501      0.0000
     13  CBA       85.2750   18.5510   43.9540 C.3   501  HEM501      0.0000
     14  CGA       85.3050   20.1060   44.0660 C.2   501  HEM501      0.0000
     15  O1A       86.2630   20.6910   44.6810 O.co2 501  HEM501      0.0000
     16  O2A       84.3490   20.7260   43.5580 O.co2 501  HEM501      0.0000
     17  NB        83.3140   11.6340   42.5980 N.2   501  HEM501      0.0000
     18  C1B       84.3230   11.9260   41.6870 C.2   501  HEM501      0.0000
     19  C2B       84.7770   10.7540   40.9990 C.2   501  HEM501      0.0000
     20  C3B       84.0600    9.6760   41.4900 C.2   501  HEM501      0.0000
     21  C4B       83.1740   10.2080   42.4840 C.2   501  HEM501      0.0000
     22  CMB       85.8810   10.7200   39.9160 C.3   501  HEM501      0.0000
     23  CAB       84.2040    8.2970   41.0640 C.3   501  HEM501      0.0000
     24  CBB       83.1400    7.4840   40.5690 C.3   501  HEM501      0.0000
     25  NC        81.0320   11.1490   44.4830 N.ar  501  HEM501      0.0000
     26  C1C       81.3120    9.8840   44.1970 C.ar  501  HEM501      0.0000
     27  C2C       80.4630    8.9630   44.9440 C.ar  501  HEM501      0.0000
     28  C3C       79.6100    9.7350   45.7020 C.ar  501  HEM501      0.0000
     29  C4C       79.9910   11.1180   45.3790 C.ar  501  HEM501      0.0000
     30  CMC       80.5410    7.4210   44.8460 C.3   501  HEM501      0.0000
     31  CAC       78.5820    9.3130   46.5640 C.2   501  HEM501      0.0000
     32  CBC       78.7230    8.5370   47.6720 C.2   501  HEM501      0.0000
     33  ND        81.0690   13.9000   44.7140 N.2   501  HEM501      0.0000
     34  C1D       79.9350   13.6340   45.4980 C.2   501  HEM501      0.0000
     35  C2D       79.3250   14.8580   45.9340 C.2   501  HEM501      0.0000
     36  C3D       80.0590   15.9080   45.4830 C.2   501  HEM501      0.0000
     37  C4D       81.1560   15.3390   44.7210 C.2   501  HEM501      0.0000
     38  CMD       78.0530   14.9600   46.7970 C.3   501  HEM501      0.0000
     39  CAD       79.7810   17.4190   45.7220 C.3   501  HEM501      0.0000
     40  CBD       80.2400   17.9290   47.0970 C.3   501  HEM501      0.0000
     41  CGD       80.4300   19.4800   47.2190 C.2   501  HEM501      0.0000
     42  O1D       80.7750   19.9280   48.2960 O.co2 501  HEM501      0.0000
     43  O2D       80.2190   20.2160   46.2480 O.co2 501  HEM501      0.0000
@<TRIPOS>BOND
     1    22    19    1
     2    24    23    1
     3    19    20    2
     4    19    18    1
     5    11     9    1
     6    23    20    1
     7     3    18    1
     8     3    10    2
     9    20    21    1
    10    18    17    2
    11     9    10   ar
    12     9     8   ar
    13    10     6   ar
    14    21    17    1
    15    21     4    2
    16    17     1    1
    17     8    12    1
    18     8     7   ar
    19    12    13    1
    20     6     7   ar
    21     6     1    1
    22     4    26    1
    23     7     2    2
    24    16    14   ar
    25     1    25    1
    26     1    33    1
    27    13    14    1
    28    14    15   ar
    29     2    37    1
    30    26    25   ar
    31    26    27   ar
    32    25    29   ar
    33    33    37    2
    34    33    34    1
    35    37    36    1
    36    30    27    1
    37    27    28   ar
    38    29    28   ar
    39    29     5    1
    40    36    39    1
    41    36    35    2
    42    34     5    2
    43    34    35    1
    44    28    31    1
    45    39    40    1
    46    35    38    1
    47    43    41   ar
    48    31    32    2
    49    40    41    1
    50    41    42   ar
