@<TRIPOS>MOLECULE
1j01_XIL_A_1.pdb
 18 19 0 0 0
SMALL
GASTEIGER

@<TRIPOS>ATOM
      1  C1        16.9390   65.2780   38.6890 C.3   601  XIL601      0.2695
      2  C2        16.7360   64.2640   39.8230 C.3   601  XIL601      0.2406
      3  O2        17.6110   63.1630   39.6270 O.3   601  XIL601     -0.2149
      4  C3        15.2860   63.7640   39.8530 C.3   601  XIL601      0.2198
      5  O3        15.0750   62.9680   41.0130 O.3   601  XIL601     -0.2174
      6  C4        14.3070   64.9340   39.8570 C.3   601  XIL601      0.2143
      7  O4        12.9860   64.4390   39.7100 O.3   601  XIL601     -0.2176
      8  C5        14.6260   65.9000   38.7090 C.3   601  XIL601      0.1803
      9  O5        15.9950   66.3540   38.8070 O.3   601  XIL601     -0.3257
     10  N1'       20.3010   67.7760   35.6970 N.2   601  XIL601     -0.2041
     11  C2'       20.3400   68.3380   37.0000 C.1   601  XIL601      0.1591
     12  C3'       19.6480   67.6930   38.0530 C.3   601  XIL601      0.2829
     13  O2'       21.1920   69.1770   37.2630 O.2   601  XIL601     -0.2244
     14  O3'       19.2260   68.4610   39.1620 O.3   601  XIL601     -0.2023
     15  C4'       18.5500   66.6550   37.6440 C.3   601  XIL601      0.1662
     16  O4'       18.2770   65.8240   38.7680 O.3   601  XIL601     -0.3272
     17  C5'       19.0280   65.8500   36.4310 C.3   601  XIL601      0.0606
     18  C6'       19.2710   66.8340   35.3220 C.3   601  XIL601      0.1402
@<TRIPOS>BOND
     1    18    10    1
     2    18    17    1
     3    10    11    2
     4    17    15    1
     5    11    13    2
     6    11    12    1
     7    15    12    1
     8    15    16    1
     9    12    14    1
    10     1    16    1
    11     1     9    1
    12     1     2    1
    13     8     9    1
    14     8     6    1
    15     3     2    1
    16     7     6    1
    17     2     4    1
    18     4     6    1
    19     4     5    1
