@<TRIPOS>MOLECULE
1j02_HEM_A_1.pdb
 43 50 0 0 0
SMALL
GASTEIGER

@<TRIPOS>ATOM
      1 FE        -90.7300  -11.9800  -88.3610 Fe    300  HEM300      0.0000
      2  CHA      -89.2070   -9.0130  -87.6480 C.2   300  HEM300      0.0000
      3  CHB      -89.0960  -12.0940  -91.3630 C.2   300  HEM300      0.0000
      4  CHC      -92.1100  -15.0530  -88.9730 C.2   300  HEM300      0.0000
      5  CHD      -92.5260  -11.7870  -85.4740 C.2   300  HEM300      0.0000
      6  NA       -89.4380  -10.7750  -89.3300 N.ar  300  HEM300      0.0000
      7  C1A      -88.9120   -9.5710  -88.8900 C.ar  300  HEM300      0.0000
      8  C2A      -88.0340   -8.9800  -89.8790 C.ar  300  HEM300      0.0000
      9  C3A      -88.0620   -9.8120  -90.9640 C.ar  300  HEM300      0.0000
     10  C4A      -88.8900  -10.9640  -90.5810 C.ar  300  HEM300      0.0000
     11  CMA      -87.3920   -9.6410  -92.3000 C.3   300  HEM300      0.0000
     12  CAA      -87.2270   -7.6840  -89.6990 C.2   300  HEM300      0.0000
     13  CBA      -88.0450   -6.3520  -89.8200 C.2   300  HEM300      0.0000
     14  CGA      -87.4440   -5.1790  -89.2660 C.2   300  HEM300      0.0000
     15  O1A      -88.2260   -4.1470  -89.1560 O.co2 300  HEM300      0.0000
     16  O2A      -86.2460   -5.1030  -88.9020 O.co2 300  HEM300      0.0000
     17  NB       -90.6710  -13.2670  -89.8740 N.2   300  HEM300      0.0000
     18  C1B      -89.9930  -13.1290  -91.0710 C.2   300  HEM300      0.0000
     19  C2B      -90.3380  -14.1960  -91.9990 C.2   300  HEM300      0.0000
     20  C3B      -91.0390  -15.1130  -91.2780 C.2   300  HEM300      0.0000
     21  C4B      -91.3110  -14.4920  -89.9790 C.2   300  HEM300      0.0000
     22  CMB      -89.9600  -14.2110  -93.4650 C.3   300  HEM300      0.0000
     23  CAB      -91.4580  -16.5070  -91.6740 C.3   300  HEM300      0.0000
     24  CBB      -92.8740  -16.5720  -92.2800 C.3   300  HEM300      0.0000
     25  NC       -92.0000  -13.1820  -87.3930 N.ar  300  HEM300      0.0000
     26  C1C      -92.4460  -14.4540  -87.7850 C.ar  300  HEM300      0.0000
     27  C2C      -93.3030  -15.0460  -86.7650 C.ar  300  HEM300      0.0000
     28  C3C      -93.3820  -14.1280  -85.7770 C.ar  300  HEM300      0.0000
     29  C4C      -92.6300  -12.9700  -86.1940 C.ar  300  HEM300      0.0000
     30  CMC      -93.9210  -16.4350  -86.8580 C.3   300  HEM300      0.0000
     31  CAC      -94.0960  -14.2710  -84.4220 C.3   300  HEM300      0.0000
     32  CBC      -95.6460  -14.1830  -84.5570 C.3   300  HEM300      0.0000
     33  ND       -90.8300  -10.6660  -86.8650 N.2   300  HEM300      0.0000
     34  C1D      -91.6190  -10.7510  -85.7310 C.2   300  HEM300      0.0000
     35  C2D      -91.3980   -9.6130  -84.8380 C.2   300  HEM300      0.0000
     36  C3D      -90.5140   -8.8150  -85.4780 C.2   300  HEM300      0.0000
     37  C4D      -90.1430   -9.4970  -86.7320 C.2   300  HEM300      0.0000
     38  CMD      -92.0730   -9.4620  -83.5070 C.3   300  HEM300      0.0000
     39  CAD      -89.9380   -7.4670  -85.0850 C.3   300  HEM300      0.0000
     40  CBD      -88.5300   -7.5840  -84.3460 C.3   300  HEM300      0.0000
     41  CGD      -88.0410   -6.3320  -83.9110 C.2   300  HEM300      0.0000
     42  O1D      -87.8320   -6.1360  -82.6750 O.co2 300  HEM300      0.0000
     43  O2D      -87.8040   -5.4010  -84.7300 O.co2 300  HEM300      0.0000
@<TRIPOS>BOND
     1    22    19    1
     2    11     9    1
     3    24    23    1
     4    19    20    2
     5    19    18    1
     6    23    20    1
     7     3    18    1
     8     3    10    2
     9    20    21    1
    10    18    17    2
    11     9    10   ar
    12     9     8   ar
    13    10     6   ar
    14    21    17    1
    15    21     4    2
    16     8    12    1
    17     8     7   ar
    18    17     1    1
    19    13    12    2
    20    13    14    1
    21     6     7   ar
    22     6     1    1
    23    14    15   ar
    24    14    16   ar
    25     4    26    1
    26     7     2    2
    27     1    25    1
    28     1    33    1
    29    26    25   ar
    30    26    27   ar
    31     2    37    1
    32    25    29   ar
    33    33    37    2
    34    33    34    1
    35    30    27    1
    36    27    28   ar
    37    37    36    1
    38    29    28   ar
    39    29     5    1
    40    28    31    1
    41    34     5    2
    42    34    35    1
    43    36    39    1
    44    36    35    2
    45    39    40    1
    46    35    38    1
    47    43    41   ar
    48    32    31    1
    49    40    41    1
    50    41    42   ar
