@<TRIPOS>MOLECULE
1j07_DCU_A_1.pdb
 36 39 0 0 0
SMALL
GASTEIGER

@<TRIPOS>ATOM
      1  C2        39.1110   24.0780    4.9510 C.3   951  DCU951      0.0913
      2  C3        38.8710   24.0030    3.4080 C.3   951  DCU951      0.0218
      3  C4        39.0990   22.6660    2.6670 C.3   951  DCU951      0.0064
      4  C5        40.5850   22.2530    2.7240 C.3   951  DCU951      0.0258
      5  C6        41.3310   22.5260    1.4350 C.2   951  DCU951     -0.0307
      6  C7        42.6340   21.9620    1.3120 C.2   951  DCU951     -0.0307
      7  C8        43.3210   22.1700   -0.0310 C.3   951  DCU951      0.0256
      8  C9        44.8520   22.3810    0.0780 C.3   951  DCU951      0.0025
      9  C10       45.5940   21.6890   -1.0650 C.3   951  DCU951     -0.0219
     10  C11       46.8360   22.4100   -1.6650 C.3   951  DCU951     -0.0733
     11  N12       48.1670   21.7190   -1.4410 N.4   951  DCU951      0.3857
     12  C13       49.2410   22.5990   -1.9150 C.3   951  DCU951     -0.0960
     13  C14       48.2580   20.4360   -2.1980 C.3   951  DCU951     -0.0960
     14  C15       48.4280   21.4380   -0.0070 C.3   951  DCU951     -0.0960
     15  C16       41.1840   27.2100    9.4870 C.ar  951  DCU951      0.0012
     16  C17       40.5310   26.6970    8.3210 C.ar  951  DCU951     -0.0008
     17  C18       41.3240   26.6900    7.0560 C.ar  951  DCU951      0.0144
     18  C19       42.6540   27.2670    7.1170 C.ar  951  DCU951      0.0193
     19  C20       43.2470   27.7800    8.3040 C.ar  951  DCU951      0.0891
     20  C21       42.5070   27.7480    9.5050 C.ar  951  DCU951      0.0180
     21  C22       40.8850   25.8360    5.9780 C.2   951  DCU951      0.0482
     22  N23       39.6310   25.1270    6.0400 N.pl3 951  DCU951     -0.3018
     23  C24       38.7860   25.3030    7.1850 C.3   951  DCU951      0.1192
     24  C25       39.2080   26.1640    8.3120 C.2   951  DCU951     -0.0000
     25  C26       37.5680   24.5520    7.4130 C.2   951  DCU951      0.0158
     26  C27       36.7870   24.5880    8.5990 C.2   951  DCU951      0.0868
     27  C28       37.2100   25.4110    9.6390 C.2   951  DCU951      0.0175
     28  C29       38.3960   26.1710    9.4660 C.2   951  DCU951     -0.0010
     29  C30       41.7560   25.7440    4.7550 C.ar  951  DCU951      0.0133
     30  C31       42.7740   24.7330    4.6830 C.ar  951  DCU951      0.0012
     31  C32       43.6430   24.6720    3.5560 C.ar  951  DCU951      0.0000
     32  C33       43.5050   25.6050    2.5000 C.ar  951  DCU951      0.0000
     33  C34       42.4920   26.6070    2.5640 C.ar  951  DCU951      0.0000
     34  C35       41.6180   26.6730    3.6940 C.ar  951  DCU951      0.0012
     35  N36       44.5400   28.3370    8.3040 N.pl3 951  DCU951     -0.1281
     36  N37       35.6220   23.8150    8.7690 N.pl3 951  DCU951     -0.1283
@<TRIPOS>BOND
     1    13    11    1
     2    12    11    1
     3    10    11    1
     4    10     9    1
     5    11    14    1
     6     9     8    1
     7     7     8    1
     8     7     6    1
     9     6     5    2
    10     5     4    1
    11    32    33   ar
    12    32    31   ar
    13    33    34   ar
    14     3     4    1
    15     3     2    1
    16     2     1    1
    17    31    30   ar
    18    34    29   ar
    19    30    29   ar
    20    29    21    1
    21     1    22    1
    22    21    22    1
    23    21    17    2
    24    22    23    1
    25    17    18   ar
    26    17    16   ar
    27    18    19   ar
    28    23    25    1
    29    23    24    1
    30    25    26    2
    31    35    19    1
    32    19    20   ar
    33    24    16    2
    34    24    28    1
    35    16    15   ar
    36    26    36    1
    37    26    27    1
    38    28    27    2
    39    15    20   ar
