@<TRIPOS>MOLECULE
1j09_ATP_A_1.pdb
 31 33 0 0 0
SMALL
GASTEIGER

@<TRIPOS>ATOM
      1  PG        35.6850   39.7890   -5.5820 P.3   501  ATP501      0.5373
      2  O1G       36.7730   39.4690   -6.5900 O.2   501  ATP501     -0.2221
      3  O2G       34.3960   39.0910   -5.9820 O.3   501  ATP501     -0.1143
      4  O3G       35.4580   41.2880   -5.5370 O.3   501  ATP501     -0.1143
      5  PB        36.8870   37.8650   -3.8460 P.3   501  ATP501      0.2277
      6  O1B       37.4490   37.3580   -5.1220 O.2   501  ATP501     -0.5168
      7  O2B       35.9490   37.0210   -3.0590 O.3   501  ATP501     -0.4368
      8  O3B       36.1320   39.2880   -4.0950 O.3   501  ATP501     -0.2258
      9  PA        39.5040   38.9000   -3.3780 P.3   501  ATP501      0.2189
     10  O1A       39.3100   39.2830   -4.7990 O.2   501  ATP501     -0.5170
     11  O2A       39.8760   39.9350   -2.3770 O.3   501  ATP501     -0.4371
     12  O3A       38.1140   38.2430   -2.8370 O.3   501  ATP501     -0.2700
     13  O5'       40.5530   37.6990   -3.3110 O.3   501  ATP501     -0.3112
     14  C5'       41.2250   37.3760   -2.0950 C.3   501  ATP501      0.1813
     15  C4'       42.0380   36.1110   -2.2610 C.3   501  ATP501      0.1821
     16  O4'       41.1520   34.9570   -2.2350 O.3   501  ATP501     -0.3135
     17  C3'       42.8450   35.9880   -3.5490 C.3   501  ATP501      0.2184
     18  O3'       44.0500   35.2680   -3.2960 O.3   501  ATP501     -0.2174
     19  C2'       41.9000   35.1970   -4.4530 C.3   501  ATP501      0.2570
     20  O2'       42.5390   34.4890   -5.5020 O.3   501  ATP501     -0.2130
     21  C1'       41.2620   34.2380   -3.4500 C.3   501  ATP501      0.3186
     22  N9        39.9190   33.7970   -3.8280 N.pl3 501  ATP501     -0.1439
     23  C8        38.8270   34.5820   -4.1050 C.3   501  ATP501      0.3377
     24  N7        37.7430   33.9000   -4.3860 N.2   501  ATP501     -0.2095
     25  C5        38.1500   32.5760   -4.2940 C.2   501  ATP501      0.2526
     26  C6        37.4630   31.3610   -4.4710 C.2   501  ATP501      0.4393
     27  N6        36.1690   31.2830   -4.7970 N.pl3 501  ATP501      0.2180
     28  N1        38.1610   30.2140   -4.3010 N.2   501  ATP501      0.0021
     29  C2        39.4590   30.2950   -3.9850 C.3   501  ATP501      0.5254
     30  N3        40.2150   31.3770   -3.7940 N.2   501  ATP501     -0.0055
     31  C4        39.4900   32.4980   -3.9610 C.2   501  ATP501      0.3518
@<TRIPOS>BOND
     1     2     1    2
     2     3     1    1
     3     1     4    1
     4     1     8    1
     5    20    19    1
     6     6     5    2
     7    10     9    2
     8    27    26    1
     9    26    28    2
    10    26    25    1
    11    19    17    1
    12    19    21    1
    13    24    25    2
    14    24    23    1
    15    28    29    1
    16    25    31    1
    17    23    22    1
    18     8     5    1
    19    29    30    1
    20    31    22    1
    21    31    30    2
    22     5     7    1
    23     5    12    1
    24    22    21    1
    25    17    18    1
    26    17    15    1
    27    21    16    1
    28     9    13    1
    29     9    12    1
    30     9    11    1
    31    13    14    1
    32    15    16    1
    33    15    14    1
