@<TRIPOS>MOLECULE
1j09_GLU_A_1.pdb
 10 9 0 0 0
SMALL
GASTEIGER

@<TRIPOS>ATOM
      1  N         48.2200   38.8450   -4.7900 N.3   500  GLU500     -0.1208
      2  CA        47.5870   37.8620   -5.6700 C.3   500  GLU500      0.1949
      3  C         46.2710   37.3800   -5.0430 C.2   500  GLU500      0.3819
      4  O         45.5640   38.2530   -4.5000 O.co2 500  GLU500     -0.2441
      5  CB        48.5490   36.6870   -5.8950 C.3   500  GLU500      0.0424
      6  CG        48.1230   35.7090   -6.9760 C.3   500  GLU500      0.1161
      7  CD        49.1690   34.6400   -7.2280 C.2   500  GLU500      0.3649
      8  OE1       50.0170   34.8230   -8.1300 O.co2 500  GLU500     -0.2457
      9  OE2       49.1490   33.6190   -6.5100 O.co2 500  GLU500     -0.2457
     10  OXT       46.0940   36.1540   -4.8540 O.co2 500  GLU500     -0.2441
@<TRIPOS>BOND
     1     8     7   ar
     2     7     6    1
     3     7     9   ar
     4     6     5    1
     5     5     2    1
     6     2     3    1
     7     2     1    1
     8     3    10   ar
     9     3     4   ar
