@<TRIPOS>MOLECULE
1j0a_PLP_A_1.pdb
 15 15 0 0 0
SMALL
GASTEIGER

@<TRIPOS>ATOM
      1  N1        46.3270   92.3890   21.1730 N.ar  401  PLP401     -0.2452
      2  C2        46.8960   93.4820   21.8310 C.ar  401  PLP401      0.0978
      3  C2A       47.1520   94.7540   21.0570 C.3   401  PLP401      0.0555
      4  C3        47.2250   93.3820   23.1730 C.ar  401  PLP401      0.2049
      5  O3        47.7910   94.4470   23.8400 O.3   401  PLP401     -0.2857
      6  C4        46.9750   92.1630   23.8470 C.ar  401  PLP401      0.0182
      7  C4A       47.3620   92.0780   25.3400 C.3   401  PLP401      0.0342
      8  C5        46.3890   91.0560   23.1310 C.ar  401  PLP401      0.0261
      9  C6        46.0750   91.2000   21.7980 C.ar  401  PLP401      0.0965
     10  C5A       46.1000   89.7100   23.7700 C.3   401  PLP401      0.1815
     11  O4P       45.0980   89.5710   24.7480 O.3   401  PLP401     -0.2653
     12  P         44.8380   88.1980   25.4830 P.3   401  PLP401      0.5329
     13  O1P       44.5130   87.1820   24.4730 O.2   401  PLP401     -0.2224
     14  O2P       43.6370   88.5670   26.4450 O.3   401  PLP401     -0.1145
     15  O3P       46.0350   87.9810   26.3140 O.3   401  PLP401     -0.1145
@<TRIPOS>BOND
     1     3     2    1
     2     1     9   ar
     3     1     2   ar
     4     9     8   ar
     5     2     4   ar
     6     8    10    1
     7     8     6   ar
     8     4     5    1
     9     4     6   ar
    10    10    11    1
    11     6     7    1
    12    13    12    2
    13    11    12    1
    14    12    15    1
    15    12    14    1
