@<TRIPOS>MOLECULE
1j0b_5PA_A_1.pdb
 22 23 0 0 0
SMALL
GASTEIGER

@<TRIPOS>ATOM
      1  C4        14.3980   -6.3380   -5.4450 C.ar  1011  5PA1011     0.0587
      2  C4A       15.0790   -6.2760   -6.6580 C.2   1011  5PA1011     0.0966
      3  P         18.7500   -6.0050   -4.5960 P.3   1011  5PA1011     0.5329
      4  O1P       19.5360   -5.9070   -5.9940 O.2   1011  5PA1011    -0.2224
      5  O2P       18.8990   -4.7480   -3.8300 O.3   1011  5PA1011    -0.1145
      6  O3P       19.1840   -7.2670   -3.9610 O.3   1011  5PA1011    -0.1145
      7  O4P       17.2210   -6.1200   -5.0900 O.3   1011  5PA1011    -0.2653
      8  C5A       16.4250   -6.6090   -4.1000 C.3   1011  5PA1011     0.1819
      9  C5        15.0480   -6.7140   -4.2700 C.ar  1011  5PA1011     0.0316
     10  N1        12.9640   -6.9040   -3.1580 N.ar  1011  5PA1011    -0.2452
     11  C6        14.2820   -7.0110   -3.1450 C.ar  1011  5PA1011     0.0968
     12  C2        12.2990   -6.5340   -4.2630 C.ar  1011  5PA1011     0.0981
     13  C2A       10.7720   -6.4330   -4.2350 C.3   1011  5PA1011     0.0555
     14  C3        13.0070   -6.2530   -5.4300 C.ar  1011  5PA1011     0.2103
     15  O3        12.3320   -5.8630   -6.5440 O.3   1011  5PA1011    -0.2853
     16  N         14.4750   -5.8850   -7.7680 N.2   1011  5PA1011    -0.2618
     17  C8        15.0450   -5.8150   -8.9700 C.3   1011  5PA1011     0.1775
     18  C7        14.0600   -5.7080  -10.1340 C.2   1011  5PA1011     0.3842
     19  O7        13.0210   -5.0400   -9.9470 O.co2 1011  5PA1011    -0.2436
     20  O8        14.3790   -6.2180  -11.2290 O.co2 1011  5PA1011    -0.2436
     21  C9        16.1910   -4.8070   -9.0760 C.3   1011  5PA1011     0.0360
     22  C10       16.4900   -6.2510   -9.2250 C.3   1011  5PA1011     0.0360
@<TRIPOS>BOND
     1    20    18   ar
     2    18    19   ar
     3    18    17    1
     4    22    21    1
     5    22    17    1
     6    21    17    1
     7    17    16    1
     8    16     2    2
     9     2     1    1
    10    15    14    1
    11     4     3    2
    12     1    14   ar
    13     1     9   ar
    14    14    12   ar
    15     7     3    1
    16     7     8    1
    17     3     6    1
    18     3     5    1
    19     9     8    1
    20     9    11   ar
    21    12    13    1
    22    12    10   ar
    23    10    11   ar
