@<TRIPOS>MOLECULE
1j0c_PLP_A_1.pdb
 15 15 0 0 0
SMALL
GASTEIGER

@<TRIPOS>ATOM
      1  N1        29.7580  127.6090   16.9070 N.ar  401  PLP401     -0.2452
      2  C2        29.0660  128.0020   18.0480 C.ar  401  PLP401      0.0978
      3  C2A       27.8270  127.1970   18.4700 C.3   401  PLP401      0.0555
      4  C3        29.5150  129.1120   18.7750 C.ar  401  PLP401      0.2049
      5  O3        28.8460  129.5210   19.9110 O.3   401  PLP401     -0.2857
      6  C4        30.6760  129.8090   18.3190 C.ar  401  PLP401      0.0182
      7  C4A       31.1670  131.0360   19.1280 C.3   401  PLP401      0.0342
      8  C5        31.3510  129.3560   17.1310 C.ar  401  PLP401      0.0261
      9  C6        30.8740  128.2630   16.4540 C.ar  401  PLP401      0.0965
     10  C5A       32.5840  130.0040   16.5490 C.3   401  PLP401      0.1815
     11  O4P       33.7690  130.0410   17.2830 O.3   401  PLP401     -0.2653
     12  P         35.0540  130.7240   16.7070 P.3   401  PLP401      0.5329
     13  O1P       35.3860  130.0120   15.4600 O.2   401  PLP401     -0.2224
     14  O2P       36.0890  130.5040   17.8810 O.3   401  PLP401     -0.1145
     15  O3P       34.7660  132.1500   16.6170 O.3   401  PLP401     -0.1145
@<TRIPOS>BOND
     1    13    12    2
     2     9     1   ar
     3     9     8   ar
     4    10     8    1
     5    10    11    1
     6    15    12    1
     7    12    11    1
     8    12    14    1
     9     1     2   ar
    10     8     6   ar
    11     2     3    1
    12     2     4   ar
    13     6     4   ar
    14     6     7    1
    15     4     5    1
