@<TRIPOS>MOLECULE
1j0d_5PA_A_1.pdb
 22 23 0 0 0
SMALL
GASTEIGER

@<TRIPOS>ATOM
      1  C4        30.5800  129.8920   18.0430 C.ar  1401  5PA1401     0.0353
      2  C4A       30.8210  131.0440   19.0580 C.3   1401  5PA1401     0.1185
      3  P         35.1050  130.9720   16.5630 P.3   1401  5PA1401     0.5329
      4  O1P       35.7510  130.5880   15.3020 O.2   1401  5PA1401    -0.2224
      5  O2P       35.9200  130.6370   17.8690 O.3   1401  5PA1401    -0.1145
      6  O3P       34.6280  132.3430   16.6550 O.3   1401  5PA1401    -0.1145
      7  O4P       33.8690  130.0730   16.7650 O.3   1401  5PA1401    -0.2653
      8  C5A       32.5780  130.5640   16.5470 C.3   1401  5PA1401     0.1816
      9  C5        31.4060  129.6930   16.8870 C.ar  1401  5PA1401     0.0275
     10  N1        30.0950  127.8270   16.2790 N.ar  1401  5PA1401    -0.2452
     11  C6        31.1440  128.6640   16.0310 C.ar  1401  5PA1401     0.0965
     12  C2        29.2670  127.9720   17.3830 C.ar  1401  5PA1401     0.0978
     13  C2A       28.1180  126.9810   17.5710 C.3   1401  5PA1401     0.0555
     14  C3        29.4970  129.0110   18.2810 C.ar  1401  5PA1401     0.2062
     15  O3        28.6960  129.1800   19.3760 O.3   1401  5PA1401    -0.2856
     16  N         30.1680  131.8420   19.8890 N.3   1401  5PA1401    -0.2051
     17  C8        30.0170  133.2810   20.3980 C.3   1401  5PA1401     0.1529
     18  C7        28.7000  133.4780   21.2940 C.2   1401  5PA1401     0.3784
     19  O7        28.0330  132.4630   21.5860 O.co2 1401  5PA1401    -0.2442
     20  O8        28.3980  134.6250   21.6760 O.co2 1401  5PA1401    -0.2442
     21  C9        31.3230  134.1070   20.7430 C.3   1401  5PA1401     0.0290
     22  C10       30.5350  134.4610   19.4900 C.3   1401  5PA1401     0.0290
@<TRIPOS>BOND
     1     4     3    2
     2    11    10   ar
     3    11     9   ar
     4    10    12   ar
     5     8     7    1
     6     8     9    1
     7     3     6    1
     8     3     7    1
     9     3     5    1
    10     9     1   ar
    11    12    13    1
    12    12    14   ar
    13     1    14   ar
    14     1     2    1
    15    14    15    1
    16     2    16    1
    17    22    17    1
    18    22    21    1
    19    16    17    1
    20    17    21    1
    21    17    18    1
    22    18    19   ar
    23    18    20   ar
