@<TRIPOS>MOLECULE
1j0e_PLP_A_1.pdb
 15 15 0 0 0
SMALL
GASTEIGER

@<TRIPOS>ATOM
      1  N1        29.7920  128.4510   15.8540 N.ar  1401  PLP1401    -0.2452
      2  C2        29.0300  128.3240   16.9980 C.ar  1401  PLP1401     0.0978
      3  C2A       27.8170  127.3830   16.9720 C.3   1401  PLP1401     0.0555
      4  C3        29.3790  129.0460   18.1320 C.ar  1401  PLP1401     0.2049
      5  O3        28.6390  128.9370   19.2810 O.3   1401  PLP1401    -0.2857
      6  C4        30.5160  129.9030   18.0820 C.ar  1401  PLP1401     0.0182
      7  C4A       30.8890  130.7050   19.3570 C.3   1401  PLP1401     0.0342
      8  C5        31.2740  129.9960   16.8620 C.ar  1401  PLP1401     0.0261
      9  C6        30.8890  129.2640   15.7770 C.ar  1401  PLP1401     0.0965
     10  C5A       32.5020  130.8630   16.6710 C.3   1401  PLP1401     0.1815
     11  O4P       33.7800  130.2940   16.6420 O.3   1401  PLP1401    -0.2653
     12  P         35.0760  131.1750   16.6630 P.3   1401  PLP1401     0.5329
     13  O1P       35.6000  131.2120   15.2850 O.2   1401  PLP1401    -0.2224
     14  O2P       35.9760  130.3760   17.6860 O.3   1401  PLP1401    -0.1145
     15  O3P       34.7130  132.4440   17.2720 O.3   1401  PLP1401    -0.1145
@<TRIPOS>BOND
     1    13    12    2
     2     9     1   ar
     3     9     8   ar
     4     1     2   ar
     5    11    12    1
     6    11    10    1
     7    12    15    1
     8    12    14    1
     9    10     8    1
    10     8     6   ar
    11     3     2    1
    12     2     4   ar
    13     6     4   ar
    14     6     7    1
    15     4     5    1
