@<TRIPOS>MOLECULE
1j0i_GLC_A_1.pdb
 11 11 0 0 0
SMALL
GASTEIGER

@<TRIPOS>ATOM
      1  C1        29.5310    4.1330   65.7280 C.3   601  GLC601      0.1777
      2  C2        29.0810    4.1920   67.1890 C.3   601  GLC601      0.2141
      3  C3        28.4760    5.5730   67.4610 C.3   601  GLC601      0.2173
      4  C4        29.5030    6.6720   67.1510 C.3   601  GLC601      0.2142
      5  C5        30.0830    6.5130   65.7320 C.3   601  GLC601      0.1810
      6  C6        31.3050    7.3960   65.5440 C.3   601  GLC601      0.2141
      7  O2        28.1150    3.1800   67.4420 O.3   601  GLC601     -0.2176
      8  O3        28.0690    5.6590   68.8180 O.3   601  GLC601     -0.2175
      9  O4        28.8820    7.9470   67.2640 O.3   601  GLC601     -0.2176
     10  O5        30.5160    5.1470   65.4860 O.3   601  GLC601     -0.3481
     11  O6        31.3690    7.9180   64.2260 O.3   601  GLC601     -0.2176
@<TRIPOS>BOND
     1    11     6    1
     2    10     1    1
     3    10     5    1
     4     6     5    1
     5     1     2    1
     6     5     4    1
     7     4     9    1
     8     4     3    1
     9     2     7    1
    10     2     3    1
    11     3     8    1
