@<TRIPOS>MOLECULE
1j0j_GLC_A_1.pdb
 11 11 0 0 0
SMALL
GASTEIGER

@<TRIPOS>ATOM
      1  C1        26.4140   -2.6950  -61.5910 C.3   601  GLC601      0.1777
      2  C2        25.5530   -3.5890  -62.4840 C.3   601  GLC601      0.2141
      3  C3        26.0910   -5.0360  -62.5120 C.3   601  GLC601      0.2173
      4  C4        27.6000   -5.0830  -62.7720 C.3   601  GLC601      0.2142
      5  C5        28.3240   -4.1250  -61.8270 C.3   601  GLC601      0.1810
      6  C6        29.8080   -4.0310  -62.1090 C.3   601  GLC601      0.2141
      7  O2        24.2180   -3.5900  -61.9950 O.3   601  GLC601     -0.2176
      8  O3        25.4250   -5.7660  -63.5300 O.3   601  GLC601     -0.2175
      9  O4        28.0820   -6.4050  -62.5780 O.3   601  GLC601     -0.2176
     10  O5        27.7740   -2.8010  -61.9800 O.3   601  GLC601     -0.3481
     11  O6        30.0450   -3.3890  -63.3560 O.3   601  GLC601     -0.2176
@<TRIPOS>BOND
     1     8     3    1
     2    11     6    1
     3     4     9    1
     4     4     3    1
     5     4     5    1
     6     3     2    1
     7     2     7    1
     8     2     1    1
     9     6     5    1
    10    10     5    1
    11    10     1    1
