@<TRIPOS>MOLECULE
1j0k_GLC_A_1.pdb
 11 11 0 0 0
SMALL
GASTEIGER

@<TRIPOS>ATOM
      1  C1        26.2860    2.6020   61.9210 C.3   601  GLC601      0.1777
      2  C2        25.4720    3.5450   62.8120 C.3   601  GLC601      0.2141
      3  C3        26.0500    4.9670   62.7290 C.3   601  GLC601      0.2173
      4  C4        27.5540    4.9500   63.0780 C.3   601  GLC601      0.2142
      5  C5        28.2870    3.9220   62.2080 C.3   601  GLC601      0.1810
      6  C6        29.7310    3.7520   62.6030 C.3   601  GLC601      0.2141
      7  O2        24.1220    3.5550   62.3770 O.3   601  GLC601     -0.2176
      8  O3        25.3440    5.8230   63.6150 O.3   601  GLC601     -0.2175
      9  O4        28.1240    6.2320   62.8670 O.3   601  GLC601     -0.2176
     10  O5        27.6560    2.6230   62.3250 O.3   601  GLC601     -0.3481
     11  O6        29.8510    3.5390   63.9990 O.3   601  GLC601     -0.2176
@<TRIPOS>BOND
     1     1    10    1
     2     1     2    1
     3     5    10    1
     4     5     6    1
     5     5     4    1
     6     7     2    1
     7     6    11    1
     8     3     2    1
     9     3     4    1
    10     3     8    1
    11     9     4    1
