@<TRIPOS>MOLECULE
1j0n_CEG_A_1.pdb
 17 18 0 0 0
SMALL
GASTEIGER

@<TRIPOS>ATOM
      1  C1        18.0070   57.5050    9.6290 C.3   780  CEG780      0.3023
      2  C2        17.5760   56.3160   10.5150 C.3   780  CEG780      0.2433
      3  C3        16.1370   55.8040   10.2170 C.3   780  CEG780      0.2168
      4  C4        15.2660   56.9160    9.6320 C.3   780  CEG780      0.1806
      5  C5        15.8620   57.4370    8.2790 C.3   780  CEG780      0.1771
      6  C6        15.0240   58.3620    7.9710 C.3   780  CEG780      0.1772
      7  C7        13.0700   57.4470    9.0160 C.3   780  CEG780      0.2839
      8  C8        12.4790   58.0920   10.1540 C.2   780  CEG780      0.4151
      9  C9        12.1110   56.6250    8.0690 C.3   780  CEG780      0.0737
     10  O1        19.3490   57.3850    9.3410 O.3   780  CEG780     -0.1869
     11  O2        17.6590   56.7450   11.8670 O.3   780  CEG780     -0.2148
     12  O3        15.5450   55.3350   11.4300 O.3   780  CEG780     -0.2175
     13  O4        13.9340   56.3690    9.4090 O.3   780  CEG780     -0.3232
     14  O5        17.3380   57.5470    8.3650 O.3   780  CEG780     -0.3239
     15  O6        13.6000   58.2920    7.8720 O.3   780  CEG780     -0.3233
     16  O8A       12.7260   57.7000   11.3070 O.co2 780  CEG780     -0.2402
     17  O8B       11.7240   59.0460    9.8590 O.co2 780  CEG780     -0.2402
@<TRIPOS>BOND
     1    15     6    1
     2    15     7    1
     3     6     5    1
     4     9     7    1
     5     5    14    1
     6     5     4    1
     7    14     1    1
     8     7    13    1
     9     7     8    1
    10    10     1    1
    11    13     4    1
    12     1     2    1
    13     4     3    1
    14    17     8   ar
    15     8    16   ar
    16     3     2    1
    17     3    12    1
    18     2    11    1
