@<TRIPOS>MOLECULE
1j0o_HEM_A_1.pdb
 43 50 0 0 0
SMALL
GASTEIGER

@<TRIPOS>ATOM
      1 FE         23.8850   38.9940   25.7970 Fe    1004  HEM1004     0.0000
      2  CHA       21.8970   41.6770   25.2190 C.2   1004  HEM1004     0.0000
      3  CHB       21.6480   36.9870   24.1890 C.2   1004  HEM1004     0.0000
      4  CHC       25.7430   36.2660   26.5230 C.2   1004  HEM1004     0.0000
      5  CHD       26.2010   41.0090   27.2000 C.2   1004  HEM1004     0.0000
      6  NA        22.0380   39.2960   24.9000 N.ar  1004  HEM1004     0.0000
      7  C1A       21.3720   40.4810   24.8170 C.ar  1004  HEM1004     0.0000
      8  C2A       20.1270   40.2100   24.1950 C.ar  1004  HEM1004     0.0000
      9  C3A       20.0500   38.8890   23.9150 C.ar  1004  HEM1004     0.0000
     10  C4A       21.2630   38.2730   24.3760 C.ar  1004  HEM1004     0.0000
     11  CMA       18.9050   38.1520   23.2810 C.3   1004  HEM1004     0.0000
     12  CAA       19.0870   41.2460   23.8260 C.3   1004  HEM1004     0.0000
     13  CBA       19.1770   41.5970   22.3360 C.3   1004  HEM1004     0.0000
     14  CGA       18.0250   42.4570   21.8410 C.2   1004  HEM1004     0.0000
     15  O1A       16.8630   42.1230   22.1770 O.co2 1004  HEM1004     0.0000
     16  O2A       18.2650   43.4840   21.2030 O.co2 1004  HEM1004     0.0000
     17  NB        23.7590   36.9980   25.3550 N.2   1004  HEM1004     0.0000
     18  C1B       22.8410   36.4000   24.5620 C.2   1004  HEM1004     0.0000
     19  C2B       23.2290   35.0270   24.2850 C.2   1004  HEM1004     0.0000
     20  C3B       24.3720   34.7970   24.9890 C.2   1004  HEM1004     0.0000
     21  C4B       24.7000   36.0240   25.6680 C.2   1004  HEM1004     0.0000
     22  CMB       22.4460   34.1200   23.3510 C.3   1004  HEM1004     0.0000
     23  CAB       25.2250   33.6330   24.9920 C.3   1004  HEM1004     0.0000
     24  CBB       26.0210   33.4360   23.7500 C.3   1004  HEM1004     0.0000
     25  NC        25.6450   38.6900   26.7450 N.ar  1004  HEM1004     0.0000
     26  C1C       26.1590   37.4800   27.0460 C.ar  1004  HEM1004     0.0000
     27  C2C       27.2250   37.6730   27.9870 C.ar  1004  HEM1004     0.0000
     28  C3C       27.4290   39.0560   28.1630 C.ar  1004  HEM1004     0.0000
     29  C4C       26.3830   39.6600   27.3640 C.ar  1004  HEM1004     0.0000
     30  CMC       27.9960   36.5070   28.6430 C.3   1004  HEM1004     0.0000
     31  CAC       28.3750   39.7490   29.0610 C.3   1004  HEM1004     0.0000
     32  CBC       29.7670   39.4110   28.7550 C.3   1004  HEM1004     0.0000
     33  ND        24.0230   41.0170   26.1330 N.2   1004  HEM1004     0.0000
     34  C1D       25.1220   41.6370   26.6320 C.2   1004  HEM1004     0.0000
     35  C2D       24.9330   43.0550   26.5350 C.2   1004  HEM1004     0.0000
     36  C3D       23.7000   43.2550   26.0390 C.2   1004  HEM1004     0.0000
     37  C4D       23.1240   41.9600   25.7840 C.2   1004  HEM1004     0.0000
     38  CMD       25.9530   44.0770   26.9850 C.3   1004  HEM1004     0.0000
     39  CAD       22.9960   44.5440   25.8480 C.3   1004  HEM1004     0.0000
     40  CBD       22.3130   45.0490   27.1040 C.3   1004  HEM1004     0.0000
     41  CGD       21.3810   46.2360   26.8820 C.2   1004  HEM1004     0.0000
     42  O1D       21.8460   47.3010   26.4670 O.co2 1004  HEM1004     0.0000
     43  O2D       20.1510   46.0590   27.0780 O.co2 1004  HEM1004     0.0000
@<TRIPOS>BOND
     1    16    14   ar
     2    14    15   ar
     3    14    13    1
     4    13    12    1
     5    11     9    1
     6    22    19    1
     7    24    23    1
     8    12     8    1
     9     9     8   ar
    10     9    10   ar
    11     3    10    2
    12     3    18    1
    13     8     7   ar
    14    19    18    1
    15    19    20    2
    16    10     6   ar
    17    18    17    2
    18     7     6   ar
    19     7     2    2
    20     6     1    1
    21    20    23    1
    22    20    21    1
    23     2    37    1
    24    17    21    1
    25    17     1    1
    26    21     4    2
    27    37    36    1
    28    37    33    2
    29     1    33    1
    30     1    25    1
    31    39    36    1
    32    39    40    1
    33    36    35    2
    34    33    34    1
    35    42    41   ar
    36     4    26    1
    37    35    34    1
    38    35    38    1
    39    34     5    2
    40    25    26   ar
    41    25    29   ar
    42    41    43   ar
    43    41    40    1
    44    26    27   ar
    45     5    29    1
    46    29    28   ar
    47    27    28   ar
    48    27    30    1
    49    28    31    1
    50    32    31    1
