@<TRIPOS>MOLECULE
1j0p_HEM_A_1.pdb
 43 50 0 0 0
SMALL
GASTEIGER

@<TRIPOS>ATOM
      1 FE         23.6180   39.0210   25.5370 Fe    1004  HEM1004     0.0000
      2  CHA       21.6660   41.7670   24.9130 C.2   1004  HEM1004     0.0000
      3  CHB       21.4820   37.0640   23.8200 C.2   1004  HEM1004     0.0000
      4  CHC       25.4400   36.2480   26.3320 C.2   1004  HEM1004     0.0000
      5  CHD       25.8980   41.0010   27.0290 C.2   1004  HEM1004     0.0000
      6  NA        21.8740   39.3460   24.5930 N.ar  1004  HEM1004     0.0000
      7  C1A       21.1980   40.5270   24.4820 C.ar  1004  HEM1004     0.0000
      8  C2A       19.9450   40.2910   23.7970 C.ar  1004  HEM1004     0.0000
      9  C3A       19.8890   38.9860   23.5190 C.ar  1004  HEM1004     0.0000
     10  C4A       21.1080   38.3690   24.0080 C.ar  1004  HEM1004     0.0000
     11  CMA       18.8310   38.1710   22.8000 C.3   1004  HEM1004     0.0000
     12  CAA       18.9190   41.3390   23.4610 C.3   1004  HEM1004     0.0000
     13  CBA       18.9780   41.6830   21.9550 C.3   1004  HEM1004     0.0000
     14  CGA       17.8280   42.5440   21.4960 C.2   1004  HEM1004     0.0000
     15  O1A       16.6670   42.2040   21.8290 O.co2 1004  HEM1004     0.0000
     16  O2A       18.0690   43.6020   20.8470 O.co2 1004  HEM1004     0.0000
     17  NB        23.5120   37.0510   25.1340 N.2   1004  HEM1004     0.0000
     18  C1B       22.6200   36.4950   24.2720 C.2   1004  HEM1004     0.0000
     19  C2B       22.9700   35.1430   23.9960 C.2   1004  HEM1004     0.0000
     20  C3B       24.1040   34.8600   24.7330 C.2   1004  HEM1004     0.0000
     21  C4B       24.4170   36.0850   25.4490 C.2   1004  HEM1004     0.0000
     22  CMB       22.2540   34.2260   22.9970 C.3   1004  HEM1004     0.0000
     23  CAB       24.9220   33.6490   24.7890 C.3   1004  HEM1004     0.0000
     24  CBB       25.7840   33.3980   23.5840 C.3   1004  HEM1004     0.0000
     25  NC        25.3230   38.6810   26.5440 N.ar  1004  HEM1004     0.0000
     26  C1C       25.8070   37.4600   26.8880 C.ar  1004  HEM1004     0.0000
     27  C2C       26.8820   37.6150   27.8210 C.ar  1004  HEM1004     0.0000
     28  C3C       27.0820   38.9890   28.0110 C.ar  1004  HEM1004     0.0000
     29  C4C       26.0610   39.6300   27.1800 C.ar  1004  HEM1004     0.0000
     30  CMC       27.6050   36.4580   28.4820 C.3   1004  HEM1004     0.0000
     31  CAC       28.0520   39.6510   28.8840 C.3   1004  HEM1004     0.0000
     32  CBC       29.4700   39.2670   28.5880 C.3   1004  HEM1004     0.0000
     33  ND        23.7580   41.0130   25.8680 N.2   1004  HEM1004     0.0000
     34  C1D       24.8410   41.6210   26.4030 C.2   1004  HEM1004     0.0000
     35  C2D       24.6790   43.0590   26.3440 C.2   1004  HEM1004     0.0000
     36  C3D       23.4580   43.2830   25.8140 C.2   1004  HEM1004     0.0000
     37  C4D       22.8920   41.9810   25.4970 C.2   1004  HEM1004     0.0000
     38  CMD       25.6600   44.0490   26.8770 C.3   1004  HEM1004     0.0000
     39  CAD       22.7510   44.5680   25.6040 C.3   1004  HEM1004     0.0000
     40  CBD       21.9950   45.0380   26.8590 C.3   1004  HEM1004     0.0000
     41  CGD       21.1370   46.2480   26.5870 C.2   1004  HEM1004     0.0000
     42  O1D       21.6210   47.3220   26.1790 O.co2 1004  HEM1004     0.0000
     43  O2D       19.8760   46.0910   26.7360 O.co2 1004  HEM1004     0.0000
@<TRIPOS>BOND
     1    16    14   ar
     2    14    15   ar
     3    14    13    1
     4    13    12    1
     5    11     9    1
     6    22    19    1
     7    12     8    1
     8     9     8   ar
     9     9    10   ar
    10    24    23    1
    11     8     7   ar
    12     3    10    2
    13     3    18    1
    14    19    18    1
    15    19    20    2
    16    10     6   ar
    17    18    17    2
    18     7     6   ar
    19     7     2    2
    20     6     1    1
    21    20    23    1
    22    20    21    1
    23     2    37    1
    24    17    21    1
    25    17     1    1
    26    21     4    2
    27    37    36    1
    28    37    33    2
    29     1    33    1
    30     1    25    1
    31    39    36    1
    32    39    40    1
    33    36    35    2
    34    33    34    1
    35    42    41   ar
    36     4    26    1
    37    35    34    1
    38    35    38    1
    39    34     5    2
    40    25    26   ar
    41    25    29   ar
    42    41    43   ar
    43    41    40    1
    44    26    27   ar
    45     5    29    1
    46    29    28   ar
    47    27    28   ar
    48    27    30    1
    49    28    31    1
    50    32    31    1
