@<TRIPOS>MOLECULE
1j0x_NAD_P_1.pdb
 44 48 0 0 0
SMALL
GASTEIGER

@<TRIPOS>ATOM
      1  PA        -1.0580    4.6110   36.4530 P.3   1336  NAD1336     0.2189
      2  O1A       -1.4680    6.0200   36.2380 O.3   1336  NAD1336    -0.4371
      3  O2A       -0.9860    3.4310   35.5410 O.2   1336  NAD1336    -0.5170
      4  O5B       -0.0490    4.5320   37.7060 O.3   1336  NAD1336    -0.3112
      5  C5B        0.1230    5.6050   38.7020 C.3   1336  NAD1336     0.1813
      6  C4B       -0.2600    5.0580   40.0710 C.3   1336  NAD1336     0.1821
      7  O4B       -0.0260    6.1710   41.0210 O.3   1336  NAD1336    -0.3135
      8  C3B       -1.7820    4.6860   40.2930 C.3   1336  NAD1336     0.2184
      9  O3B       -1.9340    3.2740   40.6300 O.3   1336  NAD1336    -0.2174
     10  C2B       -2.2990    5.6240   41.3830 C.3   1336  NAD1336     0.2570
     11  O2B       -3.2950    5.1460   42.2390 O.3   1336  NAD1336    -0.2130
     12  C1B       -0.9690    6.0490   42.0670 C.3   1336  NAD1336     0.3186
     13  N9A       -1.0470    7.3770   42.6900 N.pl3 1336  NAD1336    -0.1439
     14  C8A       -1.6580    8.5750   42.3040 C.3   1336  NAD1336     0.3377
     15  N7A       -1.4900    9.5680   43.1620 N.2   1336  NAD1336    -0.2095
     16  C5A       -0.7520    9.0970   44.1820 C.2   1336  NAD1336     0.2526
     17  C6A       -0.2380    9.7140   45.4300 C.2   1336  NAD1336     0.4393
     18  N6A       -0.4710   10.9780   45.7490 N.pl3 1336  NAD1336     0.2180
     19  N1A        0.5080    8.8550   46.2400 N.2   1336  NAD1336     0.0021
     20  C2A        0.7790    7.5570   45.9700 C.3   1336  NAD1336     0.5254
     21  N3A        0.3130    6.9210   44.8000 N.2   1336  NAD1336    -0.0055
     22  C4A       -0.4510    7.7260   43.9270 C.2   1336  NAD1336     0.3518
     23  O3         0.2590    5.0470   35.6020 O.3   1336  NAD1336    -0.2703
     24  PN         1.5950    4.2950   34.9460 P.3   1336  NAD1336     0.2189
     25  O1N        1.2560    3.8150   33.5920 O.2   1336  NAD1336    -0.5170
     26  O2N        2.0780    3.3150   35.9660 O.3   1336  NAD1336    -0.4371
     27  O5D        2.5960    5.5690   34.7830 O.3   1336  NAD1336    -0.3112
     28  C5D        3.1140    6.2600   35.9710 C.3   1336  NAD1336     0.1813
     29  C4D        4.3910    6.9590   35.6550 C.3   1336  NAD1336     0.1799
     30  O4D        5.2060    6.1310   34.7150 O.3   1336  NAD1336    -0.3327
     31  C3D        4.2280    8.3420   34.9220 C.3   1336  NAD1336     0.2158
     32  O3D        5.1170    9.3230   35.4960 O.3   1336  NAD1336    -0.2175
     33  C2D        4.6130    8.0490   33.4610 C.3   1336  NAD1336     0.2309
     34  O2D        5.0200    9.1960   32.7620 O.3   1336  NAD1336    -0.2158
     35  C1D        5.7270    6.9570   33.6480 C.3   1336  NAD1336     0.2261
     36  N1N        5.9990    6.0880   32.4440 N.pl3 1336  NAD1336    -0.2831
     37  C2N        4.9130    5.2840   31.8820 C.2   1336  NAD1336     0.0633
     38  C3N        5.1670    4.2780   31.0250 C.2   1336  NAD1336     0.0490
     39  C7N        4.0460    3.4240   30.4290 C.2   1336  NAD1336     0.2814
     40  O7N        3.8560    3.4620   29.1840 O.2   1336  NAD1336    -0.2670
     41  N7N        3.3000    2.6560   31.2400 N.am  1336  NAD1336    -0.0839
     42  C4N        6.6060    3.9430   30.6160 C.3   1336  NAD1336     0.0341
     43  C5N        7.5160    5.1600   30.7570 C.3   1336  NAD1336     0.0264
     44  C6N        7.3010    6.0210   31.8680 C.3   1336  NAD1336     0.0934
@<TRIPOS>BOND
     1    40    39    2
     2    39    38    1
     3    39    41   am
     4    42    43    1
     5    42    38    1
     6    43    44    1
     7    38    37    2
     8    44    36    1
     9    37    36    1
    10    36    35    1
    11    34    33    1
    12    33    35    1
    13    33    31    1
    14    25    24    2
    15    35    30    1
    16    30    29    1
    17    27    24    1
    18    27    28    1
    19    31    32    1
    20    31    29    1
    21    24    23    1
    22    24    26    1
    23     3     1    2
    24    23     1    1
    25    29    28    1
    26     2     1    1
    27     1     4    1
    28     4     5    1
    29     5     6    1
    30     6     8    1
    31     6     7    1
    32     8     9    1
    33     8    10    1
    34     7    12    1
    35    10    12    1
    36    10    11    1
    37    12    13    1
    38    14    13    1
    39    14    15    1
    40    13    22    1
    41    15    16    2
    42    22    16    1
    43    22    21    2
    44    16    17    1
    45    21    20    1
    46    17    18    1
    47    17    19    2
    48    20    19    1
