@<TRIPOS>MOLECULE
1j0y_BGC_A_1.pdb
 12 12 0 0 0
SMALL
GASTEIGER

@<TRIPOS>ATOM
      1  C2        22.8170   60.9770   37.5860 C.3   1601  BGC1601     0.2434
      2  C3        22.0670   61.9700   38.4750 C.3   1601  BGC1601     0.2199
      3  C4        20.8700   61.2820   39.1290 C.3   1601  BGC1601     0.2144
      4  C5        21.3140   60.0060   39.8530 C.3   1601  BGC1601     0.1836
      5  C6        20.1600   59.1970   40.4110 C.3   1601  BGC1601     0.2142
      6  C1        23.1990   59.7430   38.4130 C.3   1601  BGC1601     0.3024
      7  O1        23.8090   58.8060   37.5990 O.3   1601  BGC1601    -0.1869
      8  O2        23.9900   61.5890   37.0570 O.3   1601  BGC1601    -0.2148
      9  O3        21.6210   63.0890   37.7060 O.3   1601  BGC1601    -0.2174
     10  O4        20.2760   62.1780   40.0580 O.3   1601  BGC1601    -0.2176
     11  O5        22.0260   59.1370   38.9540 O.3   1601  BGC1601    -0.3236
     12  O6        19.3870   58.6110   39.3690 O.3   1601  BGC1601    -0.2176
@<TRIPOS>BOND
     1     8     1    1
     2     1     6    1
     3     1     2    1
     4     7     6    1
     5     9     2    1
     6     6    11    1
     7     2     3    1
     8    11     4    1
     9     3     4    1
    10     3    10    1
    11    12     5    1
    12     4     5    1
