@<TRIPOS>MOLECULE
1j0z_BGC_A_1.pdb
 12 12 0 0 0
SMALL
GASTEIGER

@<TRIPOS>ATOM
      1  C2        26.8730   57.7510   39.6340 C.3   602  BGC602      0.2434
      2  C3        26.0710   58.7940   38.8790 C.3   602  BGC602      0.2199
      3  C4        24.8850   59.2340   39.7460 C.3   602  BGC602      0.2144
      4  C5        25.4280   59.7700   41.0790 C.3   602  BGC602      0.1836
      5  C6        24.3500   60.1900   42.0640 C.3   602  BGC602      0.2142
      6  C1        27.3530   58.3530   40.9440 C.3   602  BGC602      0.3024
      7  O1        28.0520   57.4010   41.6600 O.3   602  BGC602     -0.1869
      8  O2        27.9830   57.3390   38.8520 O.3   602  BGC602     -0.2148
      9  O3        25.6300   58.2540   37.6430 O.3   602  BGC602     -0.2174
     10  O4        24.1460   60.2730   39.0710 O.3   602  BGC602     -0.2176
     11  O5        26.2310   58.7620   41.7330 O.3   602  BGC602     -0.3236
     12  O6        23.6010   59.0720   42.5200 O.3   602  BGC602     -0.2176
@<TRIPOS>BOND
     1     9     2    1
     2     8     1    1
     3     2     1    1
     4     2     3    1
     5    10     3    1
     6     1     6    1
     7     3     4    1
     8     6     7    1
     9     6    11    1
    10     4    11    1
    11     4     5    1
    12     5    12    1
