@<TRIPOS>MOLECULE
1j0z_GLC_A_1.pdb
 11 11 0 0 0
SMALL
GASTEIGER

@<TRIPOS>ATOM
      1  C1        23.1290   59.8660   38.1970 C.3   601  GLC601      0.1777
      2  C2        22.6930   61.0590   37.3600 C.3   601  GLC601      0.2141
      3  C3        22.0660   62.0970   38.2850 C.3   601  GLC601      0.2173
      4  C4        20.8770   61.4790   39.0090 C.3   601  GLC601      0.2142
      5  C5        21.3000   60.2030   39.7590 C.3   601  GLC601      0.1810
      6  C6        20.1160   59.4250   40.3140 C.3   601  GLC601      0.2141
      7  O2        23.8220   61.6100   36.7010 O.3   601  GLC601     -0.2176
      8  O3        21.6430   63.2330   37.5430 O.3   601  GLC601     -0.2175
      9  O4        20.3570   62.4260   39.9280 O.3   601  GLC601     -0.2176
     10  O5        22.0090   59.3020   38.8770 O.3   601  GLC601     -0.3481
     11  O6        19.3890   58.7760   39.2740 O.3   601  GLC601     -0.2176
@<TRIPOS>BOND
     1     7     2    1
     2     2     1    1
     3     2     3    1
     4     8     3    1
     5     1    10    1
     6     3     4    1
     7    10     5    1
     8     4     5    1
     9     4     9    1
    10    11     6    1
    11     5     6    1
