@<TRIPOS>MOLECULE
1j10_GLC_A_1.pdb
 11 11 0 0 0
SMALL
GASTEIGER

@<TRIPOS>ATOM
      1  C1        32.3720   59.8920   40.3250 C.3   603  GLC603      0.1777
      2  C2        32.2350   59.4220   41.7750 C.3   603  GLC603      0.2141
      3  C3        30.8210   58.9020   42.0400 C.3   603  GLC603      0.2173
      4  C4        29.7860   59.9510   41.6390 C.3   603  GLC603      0.2142
      5  C5        30.0070   60.3690   40.1740 C.3   603  GLC603      0.1810
      6  C6        29.0890   61.4980   39.7260 C.3   603  GLC603      0.2141
      7  O2        33.1720   58.3850   42.0330 O.3   603  GLC603     -0.2176
      8  O3        30.6740   58.5880   43.4170 O.3   603  GLC603     -0.2175
      9  O4        28.4810   59.4100   41.8110 O.3   603  GLC603     -0.2176
     10  O5        31.3590   60.8380   39.9950 O.3   603  GLC603     -0.3481
     11  O6        29.3620   62.6980   40.4360 O.3   603  GLC603     -0.2176
@<TRIPOS>BOND
     1     6     5    1
     2     6    11    1
     3    10     5    1
     4    10     1    1
     5     5     4    1
     6     1     2    1
     7     4     9    1
     8     4     3    1
     9     2     7    1
    10     2     3    1
    11     3     8    1
