@<TRIPOS>MOLECULE
1j10_XYP_A_1.pdb
 10 10 0 0 0
SMALL
GASTEIGER

@<TRIPOS>ATOM
      1  O4A       56.9030   80.2930   49.0850 O.3   609  XYP609     -0.1869
      2  C1B       55.6130   80.1120   48.6830 C.3   609  XYP609      0.3024
      3  C2B       54.9570   78.9770   49.4660 C.3   609  XYP609      0.2434
      4  C3B       53.4580   78.8510   49.1370 C.3   609  XYP609      0.2199
      5  C4B       52.7280   80.2100   49.1100 C.3   609  XYP609      0.2143
      6  C5B       53.5590   81.2650   48.3690 C.3   609  XYP609      0.1804
      7  O2B       55.6090   77.7510   49.1500 O.3   609  XYP609     -0.2148
      8  O3B       52.8400   78.0110   50.1050 O.3   609  XYP609     -0.2174
      9  O4B       51.4630   80.0530   48.4230 O.3   609  XYP609     -0.2176
     10  O5B       54.8950   81.3240   48.9070 O.3   609  XYP609     -0.3237
@<TRIPOS>BOND
     1     6    10    1
     2     6     5    1
     3     9     5    1
     4     2    10    1
     5     2     1    1
     6     2     3    1
     7     5     4    1
     8     4     3    1
     9     4     8    1
    10     7     3    1
