@<TRIPOS>MOLECULE
1j11_EPG_A_1.pdb
 16 16 0 0 0
SMALL
GASTEIGER

@<TRIPOS>ATOM
      1  C1        23.1040   59.8500   38.5830 C.3   601  EPG601      0.2695
      2  O1        23.9390   60.1760   39.6760 O.3   601  EPG601     -0.3258
      3  C2        22.6930   61.0460   37.7020 C.3   601  EPG601      0.2406
      4  O2        23.8030   61.6780   37.0620 O.3   601  EPG601     -0.2149
      5  C3        21.9450   62.0330   38.5840 C.3   601  EPG601      0.2198
      6  O3        21.4870   63.1350   37.8250 O.3   601  EPG601     -0.2174
      7  C4        20.7640   61.3650   39.2770 C.3   601  EPG601      0.2144
      8  O4        20.2260   62.2580   40.2360 O.3   601  EPG601     -0.2176
      9  C5        21.2130   60.0800   39.9930 C.3   601  EPG601      0.1835
     10  O5        21.9340   59.2280   39.0770 O.3   601  EPG601     -0.3256
     11  C6        20.0740   59.2810   40.5820 C.3   601  EPG601      0.2142
     12  O6        19.2310   58.7560   39.5660 O.3   601  EPG601     -0.2176
     13  C7        24.3760   59.0820   40.4450 C.3   601  EPG601      0.1775
     14  C8        24.7200   59.5820   41.8270 C.3   601  EPG601      0.1816
     15  C9        25.7170   60.7130   41.6810 C.3   601  EPG601      0.0382
     16  O8        23.5290   60.0470   42.4860 O.3   601  EPG601     -0.2204
@<TRIPOS>BOND
     1     4     3    1
     2     3     1    1
     3     3     5    1
     4     6     5    1
     5     1    10    1
     6     1     2    1
     7     5     7    1
     8    10     9    1
     9     7     9    1
    10     7     8    1
    11    12    11    1
    12     2    13    1
    13     9    11    1
    14    13    14    1
    15    15    14    1
    16    14    16    1
