@<TRIPOS>MOLECULE
1j12_EBG_A_1.pdb
 17 17 0 0 0
SMALL
GASTEIGER

@<TRIPOS>ATOM
      1  C1        23.1760   59.7590   38.2780 C.3   601  EBG601      0.2695
      2  O1        24.2560   60.0600   39.1230 O.3   601  EBG601     -0.3285
      3  C2        22.7370   60.9620   37.4600 C.3   601  EBG601      0.2406
      4  O2        23.8650   61.5850   36.8630 O.3   601  EBG601     -0.2149
      5  C3        22.0140   61.9460   38.3870 C.3   601  EBG601      0.2198
      6  O3        21.5490   63.0680   37.6500 O.3   601  EBG601     -0.2174
      7  C4        20.8400   61.2570   39.0730 C.3   601  EBG601      0.2144
      8  O4        20.2790   62.1500   40.0180 O.3   601  EBG601     -0.2176
      9  C5        21.2640   59.9660   39.7930 C.3   601  EBG601      0.1835
     10  O5        22.0630   59.1220   38.9210 O.3   601  EBG601     -0.3256
     11  C6        20.0850   59.1280   40.2420 C.3   601  EBG601      0.2142
     12  O6        19.3840   58.5930   39.1240 O.3   601  EBG601     -0.2176
     13  C7        25.3300   59.1570   39.1470 C.3   601  EBG601      0.1475
     14  C8        25.3290   58.3580   40.4580 C.3   601  EBG601      0.0650
     15  C9        25.4000   59.2720   41.7190 C.3   601  EBG601      0.1546
     16  C10       26.2940   60.4970   41.4760 C.3   601  EBG601      0.0356
     17  O9        24.0770   59.6870   42.1010 O.3   601  EBG601     -0.2231
@<TRIPOS>BOND
     1     4     3    1
     2     3     1    1
     3     3     5    1
     4     6     5    1
     5     1    10    1
     6     1     2    1
     7     5     7    1
     8    10     9    1
     9     7     9    1
    10     7     8    1
    11     2    13    1
    12    12    11    1
    13    13    14    1
    14     9    11    1
    15    14    15    1
    16    16    15    1
    17    15    17    1
