@<TRIPOS>MOLECULE
1j17_ZEN_T_1.pdb
 34 38 0 0 0
SMALL
GASTEIGER

@<TRIPOS>ATOM
      1  N1        18.5550   50.7460   60.2510 N.ar    1  ZEN1       -0.2422
      2  C2        18.3350   50.7600   61.5890 C.ar    1  ZEN1        0.1002
      3  C3        17.1270   50.2600   62.1090 C.ar    1  ZEN1        0.0352
      4  C5        16.4120   49.7340   59.8510 C.ar    1  ZEN1        0.0352
      5  C6        17.6340   50.2500   59.3870 C.ar    1  ZEN1        0.1002
      6  C4        16.1530   49.7430   61.2260 C.ar    1  ZEN1        0.0510
      7  N7        14.9290   49.2200   61.7440 N.pl3   1  ZEN1       -0.3074
      8  C8        14.5110   49.5150   63.1380 C.3     1  ZEN1        0.0913
      9  C9        13.1890   50.3120   63.1290 C.3     1  ZEN1        0.0305
     10  C11       12.5410   49.2560   60.9340 C.3     1  ZEN1        0.0305
     11  C12       13.9240   48.5390   60.8740 C.3     1  ZEN1        0.0913
     12  C10       12.0790   49.4920   62.4130 C.3     1  ZEN1        0.0801
     13  C13       10.7440   50.2250   62.4430 C.2     1  ZEN1        0.2253
     14  O23       10.8350   51.4570   62.5380 O.2     1  ZEN1       -0.2749
     15  N14        9.5510   49.6290   62.3760 N.am    1  ZEN1       -0.2766
     16  C15        9.3600   48.1550   62.2660 C.3     1  ZEN1        0.1126
     17  C16        8.4700   47.8600   61.0290 C.3     1  ZEN1        0.1173
     18  C18        7.5060   50.1330   61.1170 C.3     1  ZEN1        0.1173
     19  C19        8.3110   50.4480   62.4030 C.3     1  ZEN1        0.1126
     20  N17        7.2310   48.6760   61.0880 N.3     1  ZEN1       -0.1520
     21  S20        6.1600   48.2550   59.9220 S.O2    1  ZEN1        0.0634
     22  O21        4.9890   49.1080   60.0410 O.2     1  ZEN1       -0.1528
     23  O22        5.9200   46.8530   60.0990 O.2     1  ZEN1       -0.1528
     24  C24        6.8680   48.4890   58.2970 C.ar    1  ZEN1        0.1222
     25  C25        6.8400   49.7590   57.6620 C.ar    1  ZEN1        0.0199
     26  C33        7.4910   47.4070   57.6470 C.ar    1  ZEN1        0.0199
     27  C34        8.0580   47.5740   56.3770 C.ar    1  ZEN1        0.0014
     28  C26        7.4140   49.9340   56.3820 C.ar    1  ZEN1        0.0014
     29  C27        8.0160   48.8260   55.7420 C.ar    1  ZEN1        0.0009
     30  C28        8.5800   48.9810   54.4930 C.ar    1  ZEN1        0.0114
     31  C30        7.9500   51.3360   54.4560 C.ar    1  ZEN1        0.0114
     32  C31        7.3800   51.1910   55.7290 C.ar    1  ZEN1        0.0009
     33  C29        8.5570   50.2170   53.8420 C.ar    1  ZEN1        0.0577
     34 CL32        9.3320   50.3470   52.2770 Cl      1  ZEN1       -0.0822
@<TRIPOS>BOND
     1    34    33    1
     2    33    31   ar
     3    33    30   ar
     4    31    32   ar
     5    30    29   ar
     6    32    28   ar
     7    29    27   ar
     8    29    28   ar
     9    27    26   ar
    10    28    25   ar
    11    26    24   ar
    12    25    24   ar
    13    24    21    1
    14     5     4   ar
    15     5     1   ar
    16     4     6   ar
    17    21    22    2
    18    21    23    2
    19    21    20    1
    20     1     2   ar
    21    11    10    1
    22    11     7    1
    23    10    12    1
    24    17    20    1
    25    17    16    1
    26    20    18    1
    27    18    19    1
    28     6     7    1
    29     6     3   ar
    30     2     3   ar
    31     7     8    1
    32    16    15    1
    33    15    19    1
    34    15    13   am
    35    12    13    1
    36    12     9    1
    37    13    14    2
    38     9     8    1
