@<TRIPOS>MOLECULE
1j18_BGC_A_1.pdb
 12 12 0 0 0
SMALL
GASTEIGER

@<TRIPOS>ATOM
      1  C2        34.1690   13.1070   32.9100 C.3   607  BGC607      0.2434
      2  C3        33.6640   14.2850   33.7340 C.3   607  BGC607      0.2199
      3  C4        33.9630   14.0550   35.2170 C.3   607  BGC607      0.2144
      4  C5        35.4460   13.7360   35.4330 C.3   607  BGC607      0.1836
      5  C6        35.7430   13.3320   36.8680 C.3   607  BGC607      0.2142
      6  C1        35.6610   12.9050   33.1960 C.3   607  BGC607      0.3024
      7  O1        36.1330   11.8180   32.4810 O.3   607  BGC607     -0.1869
      8  O2        33.9610   13.3570   31.5270 O.3   607  BGC607     -0.2148
      9  O3        32.2630   14.4360   33.5510 O.3   607  BGC607     -0.2174
     10  O4        33.6080   15.2320   35.9580 O.3   607  BGC607     -0.2176
     11  O5        35.8490   12.6310   34.5930 O.3   607  BGC607     -0.3236
     12  O6        37.1390   13.1760   37.0770 O.3   607  BGC607     -0.2176
@<TRIPOS>BOND
     1     8     1    1
     2     7     6    1
     3     1     6    1
     4     1     2    1
     5     6    11    1
     6     9     2    1
     7     2     3    1
     8    11     4    1
     9     3     4    1
    10     3    10    1
    11     4     5    1
    12     5    12    1
