@<TRIPOS>MOLECULE
1j18_GLC_A_1.pdb
 11 11 0 0 0
SMALL
GASTEIGER

@<TRIPOS>ATOM
      1  C1         4.1360    8.6230   18.8150 C.3   601  GLC601      0.1777
      2  C2         3.7680    9.7590   19.7490 C.3   601  GLC601      0.2141
      3  C3         3.5610    9.1740   21.1490 C.3   601  GLC601      0.2173
      4  C4         2.5110    8.0510   21.1250 C.3   601  GLC601      0.2142
      5  C5         2.9160    6.9900   20.0940 C.3   601  GLC601      0.1810
      6  C6         1.9070    5.8680   19.9140 C.3   601  GLC601      0.2141
      7  O2         4.8710   10.6670   19.7820 O.3   601  GLC601     -0.2176
      8  O3         3.1750   10.1980   22.0480 O.3   601  GLC601     -0.2175
      9  O4         2.4280    7.4560   22.4100 O.3   601  GLC601     -0.2176
     10  O5         3.1200    7.6170   18.8090 O.3   601  GLC601     -0.3481
     11  O6         0.7530    6.3080   19.2130 O.3   601  GLC601     -0.2176
@<TRIPOS>BOND
     1    10     1    1
     2    10     5    1
     3     1     2    1
     4    11     6    1
     5     2     7    1
     6     2     3    1
     7     6     5    1
     8     5     4    1
     9     4     3    1
    10     4     9    1
    11     3     8    1
