@<TRIPOS>MOLECULE
1j1b_ANP_A_1.pdb
 31 33 0 0 0
SMALL
GASTEIGER

@<TRIPOS>ATOM
      1  PG        19.1990   11.3530  -13.9220 P.3   430  ANP430      0.4884
      2  O1G       19.9180   12.1680  -14.9930 O.2   430  ANP430     -0.2331
      3  O2G       18.8010    9.9990  -14.5030 O.3   430  ANP430     -0.1240
      4  O3G       20.2160   11.1580  -12.6450 O.3   430  ANP430     -0.1240
      5  PB        17.3840   13.5880  -14.0140 P.3   430  ANP430      0.4669
      6  O1B       18.3290   14.0420  -15.1380 O.2   430  ANP430     -0.2351
      7  O2B       15.9720   13.5670  -14.6120 O.3   430  ANP430     -0.1253
      8  N3B       17.8200   12.1070  -13.3840 N.3   430  ANP430     -0.0163
      9  PA        18.5380   14.5880  -11.5550 P.3   430  ANP430      0.2220
     10  O1A       17.6910   14.7310  -10.3110 O.3   430  ANP430     -0.4370
     11  O2A       19.3520   13.3140  -11.5370 O.2   430  ANP430     -0.5170
     12  O3A       17.5950   14.6600  -12.8500 O.3   430  ANP430     -0.2360
     13  O5'       19.5270   15.8050  -11.7040 O.3   430  ANP430     -0.3111
     14  C5'       20.5910   15.7040  -12.7210 C.3   430  ANP430      0.1813
     15  C4'       21.8980   16.2240  -12.1890 C.3   430  ANP430      0.1821
     16  O4'       21.6110   17.5730  -11.7330 O.3   430  ANP430     -0.3135
     17  C3'       22.4350   15.4670  -10.9550 C.3   430  ANP430      0.2184
     18  O3'       23.0760   14.2160  -11.1860 O.3   430  ANP430     -0.2174
     19  C2'       23.2470   16.5810  -10.3040 C.3   430  ANP430      0.2570
     20  O2'       24.6070   16.6680  -10.7480 O.3   430  ANP430     -0.2130
     21  C1'       22.3940   17.8650  -10.5730 C.3   430  ANP430      0.3186
     22  N9        21.5450   18.0570   -9.3750 N.pl3 430  ANP430     -0.1439
     23  C8        20.3040   17.5030   -8.9790 C.3   430  ANP430      0.3377
     24  N7        19.7050   17.8230   -7.8030 N.2   430  ANP430     -0.2095
     25  C5        20.6700   18.6940   -7.3760 C.2   430  ANP430      0.2526
     26  C6        20.7740   19.4750   -6.1600 C.2   430  ANP430      0.4393
     27  N6        19.8170   19.4080   -5.2300 N.pl3 430  ANP430      0.2180
     28  N1        21.8550   20.2970   -5.9440 N.2   430  ANP430      0.0021
     29  C2        22.8560   20.4030   -6.8540 C.3   430  ANP430      0.5254
     30  N3        22.9310   19.7660   -8.0120 N.2   430  ANP430     -0.0055
     31  C4        21.8010   18.8480   -8.3320 C.2   430  ANP430      0.3518
@<TRIPOS>BOND
     1     6     5    2
     2     2     1    2
     3     7     5    1
     4     3     1    1
     5     5     8    1
     6     5    12    1
     7     1     8    1
     8     1     4    1
     9    12     9    1
    10    14    15    1
    11    14    13    1
    12    15    16    1
    13    15    17    1
    14    16    21    1
    15    13     9    1
    16     9    11    2
    17     9    10    1
    18    18    17    1
    19    17    19    1
    20    20    19    1
    21    21    19    1
    22    21    22    1
    23    22    23    1
    24    22    31    1
    25    23    24    1
    26    31    30    2
    27    31    25    1
    28    30    29    1
    29    24    25    2
    30    25    26    1
    31    29    28    1
    32    26    28    2
    33    26    27    1
