@<TRIPOS>MOLECULE
1j1c_ADP_A_1.pdb
 27 29 0 0 0
SMALL
GASTEIGER

@<TRIPOS>ATOM
      1  PB        17.4080   13.1000  -13.9290 P.3   430  ADP430      0.5373
      2  O1B       18.4420   12.0360  -13.5180 O.3   430  ADP430     -0.1143
      3  O2B       17.7820   13.6460  -15.3170 O.2   430  ADP430     -0.2221
      4  O3B       16.0230   12.4590  -13.9800 O.3   430  ADP430     -0.1143
      5  PA        18.3430   14.4980  -11.5090 P.3   430  ADP430      0.2231
      6  O1A       17.4810   14.7410  -10.2810 O.3   430  ADP430     -0.4370
      7  O2A       19.2530   13.2810  -11.3260 O.2   430  ADP430     -0.5169
      8  O3A       17.4170   14.3230  -12.8640 O.3   430  ADP430     -0.2261
      9  O5'       19.2490   15.7990  -11.7690 O.3   430  ADP430     -0.3111
     10  C5'       20.1960   15.8600  -12.8800 C.3   430  ADP430      0.1813
     11  C4'       21.5400   16.3620  -12.3550 C.3   430  ADP430      0.1821
     12  O4'       21.2860   17.7090  -11.8590 O.3   430  ADP430     -0.3135
     13  C3'       22.0980   15.5890  -11.1200 C.3   430  ADP430      0.2184
     14  O3'       22.7520   14.3390  -11.3460 O.3   430  ADP430     -0.2174
     15  C2'       22.9240   16.6770  -10.4500 C.3   430  ADP430      0.2570
     16  O2'       24.2650   16.7690  -10.9210 O.3   430  ADP430     -0.2130
     17  C1'       22.0860   17.9600  -10.6800 C.3   430  ADP430      0.3186
     18  N9        21.2470   18.1220   -9.4600 N.pl3 430  ADP430     -0.1439
     19  C8        20.0080   17.5680   -9.0730 C.3   430  ADP430      0.3377
     20  N7        19.4230   17.8500   -7.8690 N.2   430  ADP430     -0.2095
     21  C5        20.4020   18.7010   -7.4110 C.2   430  ADP430      0.2526
     22  C6        20.5330   19.4340   -6.1510 C.2   430  ADP430      0.4393
     23  N6        19.5990   19.3610   -5.1980 N.pl3 430  ADP430      0.2180
     24  N1        21.6170   20.2280   -5.9290 N.2   430  ADP430      0.0021
     25  C2        22.5920   20.3450   -6.8410 C.3   430  ADP430      0.5254
     26  N3        22.6550   19.7620   -8.0220 N.2   430  ADP430     -0.0055
     27  C4        21.5230   18.8690   -8.3710 C.2   430  ADP430      0.3518
@<TRIPOS>BOND
     1     3     1    2
     2     4     1    1
     3     1     2    1
     4     1     8    1
     5    10    11    1
     6    10     9    1
     7     8     5    1
     8    11    12    1
     9    11    13    1
    10    12    17    1
    11     9     5    1
    12     5     7    2
    13     5     6    1
    14    14    13    1
    15    13    15    1
    16    16    15    1
    17    17    15    1
    18    17    18    1
    19    18    19    1
    20    18    27    1
    21    19    20    1
    22    27    26    2
    23    27    21    1
    24    26    25    1
    25    20    21    2
    26    21    22    1
    27    25    24    1
    28    22    24    2
    29    22    23    1
