@<TRIPOS>MOLECULE
1j1f_5GP_A_1.pdb
 24 26 0 0 0
SMALL
GASTEIGER

@<TRIPOS>ATOM
      1  P         23.5650   25.0200   69.3740 P.3   295  5GP295      0.5327
      2  O1P       23.9540   26.3640   68.9350 O.3   295  5GP295     -0.1145
      3  O2P       22.2170   24.9870   70.0650 O.3   295  5GP295     -0.1145
      4  O3P       23.5900   24.0150   68.1830 O.2   295  5GP295     -0.2224
      5  O5'       24.6290   24.4060   70.4100 O.3   295  5GP295     -0.2675
      6  C5'       25.0590   25.1620   71.5510 C.3   295  5GP295      0.1859
      7  C4'       26.0720   24.4290   72.4120 C.3   295  5GP295      0.1801
      8  O4'       27.2850   25.2680   72.2960 O.3   295  5GP295     -0.3326
      9  C3'       25.8030   24.3410   73.9110 C.3   295  5GP295      0.2158
     10  O3'       25.1830   23.1280   74.3080 O.3   295  5GP295     -0.2175
     11  C2'       27.1630   24.4940   74.5770 C.3   295  5GP295      0.2310
     12  O2'       27.7810   23.2190   74.8430 O.3   295  5GP295     -0.2158
     13  C1'       27.9560   25.3300   73.5780 C.3   295  5GP295      0.2293
     14  N9        28.2110   26.7600   73.9070 N.pl3 295  5GP295     -0.2354
     15  C8        29.3980   27.4070   74.1200 C.3   295  5GP295      0.2246
     16  N7        29.3040   28.6900   74.3750 N.2   295  5GP295     -0.2322
     17  C5        27.9130   28.9050   74.3200 C.2   295  5GP295      0.2182
     18  C6        27.1950   30.1290   74.5240 C.1   295  5GP295      0.2372
     19  O6        27.6550   31.2330   74.7750 O.2   295  5GP295     -0.2069
     20  N1        25.7870   29.9430   74.3870 N.2   295  5GP295     -0.2485
     21  C2        25.1900   28.7170   74.1000 C.1   295  5GP295      0.2531
     22  N2        23.8400   28.7640   74.0200 N.pl3 295  5GP295     -0.0226
     23  N3        25.8640   27.5640   73.9090 N.2   295  5GP295     -0.3074
     24  C4        27.2300   27.7370   74.0400 C.2   295  5GP295      0.2300
@<TRIPOS>BOND
     1     4     1    2
     2     2     1    1
     3     1     3    1
     4     1     5    1
     5     5     6    1
     6     6     7    1
     7     8     7    1
     8     8    13    1
     9     7     9    1
    10    13    14    1
    11    13    11    1
    12    14    24    1
    13    14    15    1
    14    23    24    2
    15    23    21    2
    16     9    10    1
    17     9    11    1
    18    22    21    1
    19    24    17    1
    20    21    20    2
    21    15    16    1
    22    17    16    2
    23    17    18    1
    24    20    18    2
    25    18    19    2
    26    11    12    1
