@<TRIPOS>MOLECULE
1j1g_5GP_A_1.pdb
 24 26 0 0 0
SMALL
GASTEIGER

@<TRIPOS>ATOM
      1  P         23.5230   58.4660   31.1040 P.3   295  5GP295      0.5327
      2  O1P       23.8540   59.8060   30.5950 O.3   295  5GP295     -0.1145
      3  O2P       22.2620   58.4520   31.9470 O.3   295  5GP295     -0.1145
      4  O3P       23.4110   57.4400   29.9380 O.2   295  5GP295     -0.2224
      5  O5'       24.6980   57.8600   32.0250 O.3   295  5GP295     -0.2675
      6  C5'       25.0890   58.5100   33.2440 C.3   295  5GP295      0.1859
      7  C4'       26.2110   57.7950   33.9820 C.3   295  5GP295      0.1801
      8  O4'       27.3650   58.7100   33.8500 O.3   295  5GP295     -0.3326
      9  C3'       26.0410   57.5800   35.4840 C.3   295  5GP295      0.2158
     10  O3'       25.5970   56.2760   35.8190 O.3   295  5GP295     -0.2175
     11  C2'       27.4000   57.8570   36.1120 C.3   295  5GP295      0.2310
     12  O2'       28.1450   56.6470   36.3620 O.3   295  5GP295     -0.2158
     13  C1'       28.0870   58.7680   35.1030 C.3   295  5GP295      0.2293
     14  N9        28.2970   60.1950   35.4730 N.pl3 295  5GP295     -0.2354
     15  C8        29.4660   60.8650   35.7280 C.3   295  5GP295      0.2246
     16  N7        29.3350   62.1370   36.0150 N.2   295  5GP295     -0.2322
     17  C5        27.9390   62.3190   35.9420 C.2   295  5GP295      0.2182
     18  C6        27.1900   63.5210   36.1610 C.1   295  5GP295      0.2372
     19  O6        27.6170   64.6270   36.4530 O.2   295  5GP295     -0.2069
     20  N1        25.7900   63.3060   35.9950 N.2   295  5GP295     -0.2485
     21  C2        25.2250   62.0760   35.6590 C.1   295  5GP295      0.2531
     22  N2        23.8790   62.1030   35.5530 N.pl3 295  5GP295     -0.0226
     23  N3        25.9310   60.9370   35.4500 N.2   295  5GP295     -0.3074
     24  C4        27.2890   61.1420   35.6120 C.2   295  5GP295      0.2300
@<TRIPOS>BOND
     1     4     1    2
     2     2     1    1
     3     1     3    1
     4     1     5    1
     5     5     6    1
     6     6     7    1
     7     8     7    1
     8     8    13    1
     9     7     9    1
    10    13    14    1
    11    13    11    1
    12    23    24    2
    13    23    21    2
    14    14    24    1
    15    14    15    1
    16     9    10    1
    17     9    11    1
    18    22    21    1
    19    24    17    1
    20    21    20    2
    21    15    16    1
    22    17    16    2
    23    17    18    1
    24    20    18    2
    25    11    12    1
    26    18    19    2
