@<TRIPOS>MOLECULE
1j1m_TRE_A_1.pdb
 23 24 0 0 0
SMALL
GASTEIGER

@<TRIPOS>ATOM
      1  C1        60.0170   -2.0320  107.4150 C.3   304  TRE304      0.2713
      2  C2        61.5690   -1.9910  107.5090 C.3   304  TRE304      0.2406
      3  C3        62.0320   -0.5090  107.4680 C.3   304  TRE304      0.2198
      4  C4        61.5930    0.0310  106.0850 C.3   304  TRE304      0.2144
      5  C5        60.0330   -0.0150  105.9880 C.3   304  TRE304      0.1835
      6  C6        59.4640    0.4780  104.6920 C.3   304  TRE304      0.2142
      7  O1        59.5080   -1.4310  108.5630 O.3   304  TRE304     -0.3016
      8  O2        61.9260   -2.5880  108.7080 O.3   304  TRE304     -0.2149
      9  O3        63.4150   -0.4670  107.5590 O.3   304  TRE304     -0.2174
     10  O4        61.9530    1.3560  105.9150 O.3   304  TRE304     -0.2176
     11  O5        59.5390   -1.3730  106.1690 O.3   304  TRE304     -0.3256
     12  O6        58.0610    0.3780  104.7660 O.3   304  TRE304     -0.2176
     13  C1P       58.0910   -1.3480  108.7520 C.3   304  TRE304      0.2713
     14  C2P       57.0300   -0.4160  109.3550 C.3   304  TRE304      0.2406
     15  C3P       57.3450   -0.3700  110.9150 C.3   304  TRE304      0.2198
     16  C4P       57.0900   -1.8000  111.4440 C.3   304  TRE304      0.2144
     17  C5P       58.1000   -2.8120  110.7330 C.3   304  TRE304      0.1835
     18  C6P       57.8770   -4.2530  111.1990 C.3   304  TRE304      0.2142
     19  O2P       57.2530    0.8380  108.8310 O.3   304  TRE304     -0.2149
     20  O3P       56.4430    0.4690  111.5550 O.3   304  TRE304     -0.2174
     21  O4P       57.3270   -1.8670  112.8370 O.3   304  TRE304     -0.2176
     22  O5P       57.8680   -2.7090  109.3020 O.3   304  TRE304     -0.3256
     23  O6P       56.5470   -4.6410  110.9410 O.3   304  TRE304     -0.2176
@<TRIPOS>BOND
     1     6    12    1
     2     6     5    1
     3    10     4    1
     4     5     4    1
     5     5    11    1
     6     4     3    1
     7    11     1    1
     8     1     2    1
     9     1     7    1
    10     3     2    1
    11     3     9    1
    12     2     8    1
    13     7    13    1
    14    13    22    1
    15    13    14    1
    16    19    14    1
    17    22    17    1
    18    14    15    1
    19    17    18    1
    20    17    16    1
    21    15    16    1
    22    15    20    1
    23    23    18    1
    24    16    21    1
