@<TRIPOS>MOLECULE
1j1n_LGU_A_1.pdb
 12 12 0 0 0
SMALL
GASTEIGER

@<TRIPOS>ATOM
      1  C1       -31.4180   21.2170   10.2170 C.3   603  LGU603      0.1783
      2  C2       -31.1380   19.7650   10.6360 C.3   603  LGU603      0.2141
      3  O2       -32.2920   18.9750   10.3960 O.3   603  LGU603     -0.2176
      4  C3       -29.9580   19.1830    9.8550 C.3   603  LGU603      0.2178
      5  O3       -30.3220   18.9810    8.4920 O.3   603  LGU603     -0.2175
      6  C4       -28.7580   20.1200    9.9340 C.3   603  LGU603      0.2227
      7  O4       -28.2520   20.1550   11.2800 O.3   603  LGU603     -0.2171
      8  C5       -29.1290   21.5360    9.5090 C.3   603  LGU603      0.2512
      9  O5       -30.2260   22.0200   10.3190 O.3   603  LGU603     -0.3403
     10  C6       -27.9270   22.4500    9.6830 C.2   603  LGU603      0.3940
     11  O6A      -28.0280   23.4430   10.4330 O.co2 603  LGU603     -0.2429
     12  O6B      -26.8720   22.1540    9.0870 O.co2 603  LGU603     -0.2429
@<TRIPOS>BOND
     1     5     4    1
     2    12    10   ar
     3     8    10    1
     4     8     6    1
     5     8     9    1
     6    10    11   ar
     7     4     6    1
     8     4     2    1
     9     6     7    1
    10     1     9    1
    11     1     2    1
    12     3     2    1
