@<TRIPOS>MOLECULE
1j1n_BEM_A_1.pdb
 11 11 0 0 0
SMALL
GASTEIGER

@<TRIPOS>ATOM
      1  C1       -23.2420   16.5620   13.6140 C.3   601  BEM601      0.1781
      2  C2       -22.3130   15.4620   13.0850 C.3   601  BEM601      0.2116
      3  O2       -21.4190   16.0330   12.1460 O.3   601  BEM601     -0.2177
      4  C3       -21.5210   14.9200   14.2380 C.3   601  BEM601      0.1877
      5  O3       -20.6740   13.8390   13.8660 O.3   601  BEM601     -0.2202
      6  C4       -20.9620   15.9210   15.1840 C.3   601  BEM601      0.0769
      7  C5       -21.6830   17.1420   15.3800 C.3   601  BEM601      0.2204
      8  O5       -22.4960   17.5870   14.2960 O.3   601  BEM601     -0.3422
      9  C6       -21.0320   18.1970   16.0900 C.2   601  BEM601      0.3914
     10  O6A      -21.2830   19.3620   15.7130 O.co2 601  BEM601     -0.2430
     11  O6B      -20.2660   17.9200   17.0380 O.co2 601  BEM601     -0.2430
@<TRIPOS>BOND
     1     3     2    1
     2     2     1    1
     3     2     4    1
     4     1     8    1
     5     5     4    1
     6     4     6    1
     7     8     7    1
     8     6     7    1
     9     7     9    1
    10    10     9   ar
    11     9    11   ar
