@<TRIPOS>MOLECULE
1j1n_MAV_A_1.pdb
 12 12 0 0 0
SMALL
GASTEIGER

@<TRIPOS>ATOM
      1  C1       -27.0270   19.5130   11.4210 C.3   602  MAV602      0.1783
      2  C2       -26.3120   20.0070   12.6770 C.3   602  MAV602      0.2141
      3  O2       -27.1080   19.7100   13.8160 O.3   602  MAV602     -0.2176
      4  C3       -24.9450   19.3130   12.7830 C.3   602  MAV602      0.2178
      5  O3       -24.3170   19.6560   14.0150 O.3   602  MAV602     -0.2175
      6  C4       -25.0970   17.7850   12.6830 C.3   602  MAV602      0.2227
      7  O4       -23.8090   17.1830   12.5220 O.3   602  MAV602     -0.2171
      8  C5       -25.9180   17.4070   11.4610 C.3   602  MAV602      0.2512
      9  O5       -27.1730   18.1010   11.4790 O.3   602  MAV602     -0.3403
     10  C6       -26.1280   15.9130   11.3920 C.2   602  MAV602      0.3940
     11  O6A      -27.0320   15.3950   12.0850 O.co2 602  MAV602     -0.2429
     12  O6B      -25.3540   15.2600   10.6660 O.co2 602  MAV602     -0.2429
@<TRIPOS>BOND
     1    12    10   ar
     2    10     8    1
     3    10    11   ar
     4     1     9    1
     5     1     2    1
     6     8     9    1
     7     8     6    1
     8     7     6    1
     9     2     4    1
    10     2     3    1
    11     6     4    1
    12     4     5    1
