@<TRIPOS>MOLECULE
1j1r_ADE_A_1.pdb
 10 11 0 0 0
SMALL
GASTEIGER

@<TRIPOS>ATOM
      1  N9        31.5980   25.2710   17.0810 N.2   701  ADE701     -0.1914
      2  C8        32.6540   25.9640   17.5520 C.3   701  ADE701      0.2618
      3  N7        32.6120   27.2180   17.2270 N.2   701  ADE701     -0.2267
      4  C5        31.5120   27.3230   16.3730 C.2   701  ADE701      0.2303
      5  C6        30.9880   28.3900   15.6010 C.2   701  ADE701      0.4393
      6  N6        31.5210   29.6360   15.6180 N.pl3 701  ADE701      0.2185
      7  N1        29.9800   28.0800   14.7650 N.2   701  ADE701     -0.0265
      8  C2        29.5490   26.8320   14.7070 C.3   701  ADE701      0.4008
      9  N3        29.9310   25.7720   15.4040 N.2   701  ADE701     -0.1640
     10  C4        30.9450   26.0990   16.2170 C.1   701  ADE701      0.0579
@<TRIPOS>BOND
     1     8     7    1
     2     8     9    1
     3     7     5    2
     4     9    10    2
     5     5     6    1
     6     5     4    1
     7    10     4    1
     8    10     1    2
     9     4     3    2
    10     1     2    1
    11     3     2    1
