@<TRIPOS>MOLECULE
1j1s_FMP_A_1.pdb
 23 25 0 0 0
SMALL
GASTEIGER

@<TRIPOS>ATOM
      1  P         35.8350   22.6340   11.5190 P.3   701  FMP701      0.5327
      2  O1P       35.4720   22.0160   10.1540 O.2   701  FMP701     -0.2224
      3  O2P       36.9690   21.9300   12.2620 O.3   701  FMP701     -0.1145
      4  O3P       36.0100   24.1590   11.5440 O.3   701  FMP701     -0.1145
      5  O5'       34.4660   22.1980   12.3740 O.3   701  FMP701     -0.2675
      6  C5'       33.4300   22.8460   13.1550 C.3   701  FMP701      0.1858
      7  C4'       33.6150   22.5130   14.6450 C.3   701  FMP701      0.1786
      8  O4'       33.2980   23.7000   15.3380 O.3   701  FMP701     -0.3447
      9  C3'       32.5570   21.6020   15.3130 C.3   701  FMP701      0.2143
     10  O3'       33.2470   20.5280   15.9580 O.3   701  FMP701     -0.2176
     11  C2'       31.8650   22.5510   16.3310 C.3   701  FMP701      0.2173
     12  O2'       31.8070   21.8700   17.5840 O.3   701  FMP701     -0.2173
     13  C1'       32.8580   23.6180   16.6790 C.3   701  FMP701      0.1910
     14  C9        32.7270   25.0950   16.6330 C.2   701  FMP701      0.1291
     15  N8        33.4890   25.9260   17.2450 N.2   701  FMP701     -0.1480
     16  N7        33.1410   27.2010   17.0160 N.2   701  FMP701     -0.1387
     17  C6        31.2390   28.1760   15.5660 C.2   701  FMP701      0.4334
     18  N6        31.4870   29.4870   15.7780 N.pl3 701  FMP701      0.2178
     19  C5        32.0510   27.1650   16.1720 C.2   701  FMP701      0.2111
     20  C4        31.7590   25.8690   15.9110 C.2   701  FMP701      0.1251
     21  N3        30.7100   25.4580   15.0840 N.2   701  FMP701     -0.2155
     22  C2        30.0210   26.4960   14.5740 C.3   701  FMP701      0.3922
     23  N1        30.2130   27.8010   14.7560 N.2   701  FMP701     -0.0278
@<TRIPOS>BOND
     1     2     1    2
     2     1     4    1
     3     1     3    1
     4     1     5    1
     5     5     6    1
     6     6     7    1
     7    22    23    1
     8    22    21    1
     9     7     9    1
    10     7     8    1
    11    23    17    2
    12    21    20    2
    13     9    10    1
    14     9    11    1
    15     8    13    1
    16    17    18    1
    17    17    19    1
    18    20    19    1
    19    20    14    1
    20    19    16    2
    21    11    13    1
    22    11    12    1
    23    14    13    1
    24    14    15    2
    25    16    15    1
