@<TRIPOS>MOLECULE
1j1w_NAP_A_1.pdb
 48 52 0 0 0
SMALL
GASTEIGER

@<TRIPOS>ATOM
      1  PA        48.2450   -9.7740   35.7810 P.3   1000  NAP1000     0.2189
      2  O1A       48.0140   -8.3930   35.7750 O.3   1000  NAP1000    -0.4371
      3  O2A       49.4090  -10.4580   35.0920 O.2   1000  NAP1000    -0.5170
      4  O5B       46.9350  -10.5250   35.2700 O.3   1000  NAP1000    -0.3112
      5  C5B       46.6140  -10.5060   33.8630 C.3   1000  NAP1000     0.1813
      6  C4B       46.6820  -12.0250   33.5030 C.3   1000  NAP1000     0.1820
      7  O4B       46.3570  -12.0490   32.0500 O.3   1000  NAP1000    -0.3136
      8  C3B       48.1000  -12.6740   33.5400 C.3   1000  NAP1000     0.2157
      9  O3B       48.1940  -13.3960   34.7760 O.3   1000  NAP1000    -0.2175
     10  C2B       48.0870  -13.5510   32.3300 C.3   1000  NAP1000     0.2314
     11  O2B       47.3230  -14.7530   32.5530 O.3   1000  NAP1000    -0.2630
     12  C1B       47.4000  -12.6280   31.2960 C.3   1000  NAP1000     0.3158
     13  N9A       48.3240  -11.6130   30.7520 N.pl3 1000  NAP1000    -0.1439
     14  C8A       48.7300  -10.3710   31.2260 C.3   1000  NAP1000     0.3377
     15  N7A       49.5710   -9.7300   30.4510 N.2   1000  NAP1000    -0.2095
     16  C5A       49.7330  -10.6060   29.3890 C.2   1000  NAP1000     0.2526
     17  C6A       50.5030  -10.4630   28.2490 C.2   1000  NAP1000     0.4393
     18  N6A       51.2910   -9.4060   27.9390 N.pl3 1000  NAP1000     0.2180
     19  N1A       50.4750  -11.5060   27.3320 N.2   1000  NAP1000     0.0021
     20  C2A       49.6910  -12.6500   27.5520 C.3   1000  NAP1000     0.5254
     21  N3A       48.9160  -12.8210   28.6720 N.2   1000  NAP1000    -0.0055
     22  C4A       48.9610  -11.7690   29.5660 C.2   1000  NAP1000     0.3518
     23  O3        48.2540  -10.3310   37.2610 O.3   1000  NAP1000    -0.2703
     24  PN        47.9040   -9.7100   38.6720 P.3   1000  NAP1000     0.2189
     25  O1N       47.9870  -10.7560   39.6900 O.3   1000  NAP1000    -0.4371
     26  O2N       46.6020   -9.0330   38.5190 O.2   1000  NAP1000    -0.5170
     27  O5D       49.0890   -8.6830   38.9490 O.3   1000  NAP1000    -0.3112
     28  C5D       50.3780   -8.8530   38.2630 C.3   1000  NAP1000     0.1813
     29  C4D       51.3820   -7.8800   38.8010 C.3   1000  NAP1000     0.1799
     30  O4D       51.4160   -6.7270   37.9610 O.3   1000  NAP1000    -0.3327
     31  C3D       51.1450   -7.3510   40.2520 C.3   1000  NAP1000     0.2158
     32  O3D       52.3570   -7.3820   41.0060 O.3   1000  NAP1000    -0.2175
     33  C2D       50.6300   -5.9530   40.0570 C.3   1000  NAP1000     0.2309
     34  O2D       50.9780   -5.0970   41.1300 O.3   1000  NAP1000    -0.2158
     35  C1D       51.2630   -5.5340   38.7700 C.3   1000  NAP1000     0.2263
     36  N1N       50.5050   -4.6260   37.8600 N.pl3 1000  NAP1000    -0.2787
     37  C2N       51.1090   -3.4800   37.2480 C.3   1000  NAP1000     0.1244
     38  C3N       50.3160   -2.6770   36.4130 C.2   1000  NAP1000     0.0544
     39  C7N       50.9410   -1.4430   35.7400 C.2   1000  NAP1000     0.2818
     40  O7N       50.2000   -0.7810   35.0370 O.2   1000  NAP1000    -0.2670
     41  N7N       52.2010   -1.1280   35.9280 N.am  1000  NAP1000    -0.0839
     42  C4N       48.8990   -2.9840   36.1810 C.2   1000  NAP1000     0.0033
     43  C5N       48.3530   -4.1540   36.7930 C.2   1000  NAP1000     0.0157
     44  C6N       49.1320   -4.9850   37.6480 C.2   1000  NAP1000     0.0633
     45  P2B       47.2900  -16.1070   31.6220 P.3   1000  NAP1000     0.5328
     46  O1X       47.8980  -17.2110   32.5160 O.3   1000  NAP1000    -0.1145
     47  O2X       45.8300  -16.2750   31.3770 O.3   1000  NAP1000    -0.1145
     48  O3X       48.1220  -15.8560   30.3900 O.2   1000  NAP1000    -0.2224
@<TRIPOS>BOND
     1    19    20    1
     2    19    17    2
     3    20    21    1
     4    18    17    1
     5    17    16    1
     6    21    22    2
     7    16    22    1
     8    16    15    2
     9    22    13    1
    10    48    45    2
    11    15    14    1
    12    13    14    1
    13    13    12    1
    14    12     7    1
    15    12    10    1
    16    47    45    1
    17    45    46    1
    18    45    11    1
    19     7     6    1
    20    10    11    1
    21    10     8    1
    22     6     8    1
    23     6     5    1
    24     8     9    1
    25     5     4    1
    26    40    39    2
    27     3     1    2
    28     4     1    1
    29    39    41   am
    30    39    38    1
    31     2     1    1
    32     1    23    1
    33    42    38    2
    34    42    43    1
    35    38    37    1
    36    43    44    2
    37    37    36    1
    38    23    24    1
    39    44    36    1
    40    36    35    1
    41    30    35    1
    42    30    29    1
    43    28    29    1
    44    28    27    1
    45    26    24    2
    46    24    27    1
    47    24    25    1
    48    35    33    1
    49    29    31    1
    50    33    31    1
    51    33    34    1
    52    31    32    1
