@<TRIPOS>MOLECULE
1j1z_ATP_A_1.pdb
 31 33 0 0 0
SMALL
GASTEIGER

@<TRIPOS>ATOM
      1  PG         1.8340   52.2370   68.7620 P.3   510  ATP510      0.5373
      2  O1G        0.5160   52.9090   69.0550 O.3   510  ATP510     -0.1143
      3  O2G        2.2090   51.1480   69.7230 O.3   510  ATP510     -0.1143
      4  O3G        1.8750   51.7560   67.3470 O.2   510  ATP510     -0.2221
      5  PB         3.1820   54.7860   69.3010 P.3   510  ATP510      0.2277
      6  O1B        4.4690   55.2150   69.7290 O.3   510  ATP510     -0.4368
      7  O2B        2.0000   55.5840   69.6270 O.2   510  ATP510     -0.5168
      8  O3B        3.0560   53.2580   68.9080 O.3   510  ATP510     -0.2258
      9  PA         2.6510   55.8750   66.5050 P.3   510  ATP510      0.2189
     10  O1A        2.7310   54.9700   65.3830 O.2   510  ATP510     -0.5170
     11  O2A        1.6620   56.9530   66.4950 O.3   510  ATP510     -0.4371
     12  O3A        3.3990   55.6180   67.8840 O.3   510  ATP510     -0.2700
     13  O5'        3.8220   56.6560   66.2940 O.3   510  ATP510     -0.3112
     14  C5'        4.6120   57.5150   66.6500 C.3   510  ATP510      0.1813
     15  C4'        5.5340   58.5930   66.7560 C.3   510  ATP510      0.1821
     16  O4'        4.8090   59.7850   66.4880 O.3   510  ATP510     -0.3135
     17  C3'        5.6450   58.3280   68.1830 C.3   510  ATP510      0.2184
     18  O3'        6.5070   57.3090   68.6140 O.3   510  ATP510     -0.2174
     19  C2'        5.8750   59.7280   68.6890 C.3   510  ATP510      0.2570
     20  O2'        7.2670   59.9840   68.6690 O.3   510  ATP510     -0.2130
     21  C1'        5.0180   60.6220   67.6960 C.3   510  ATP510      0.3186
     22  N9         3.6760   61.0150   68.2110 N.pl3 510  ATP510     -0.1439
     23  C8         2.4060   60.4420   68.0080 C.3   510  ATP510      0.3377
     24  N7         1.4400   61.0630   68.6150 N.2   510  ATP510     -0.2095
     25  C5         2.1040   62.1030   69.2540 C.2   510  ATP510      0.2526
     26  C6         1.6590   63.1820   70.0990 C.2   510  ATP510      0.4393
     27  N6         0.3860   63.3360   70.4130 N.pl3 510  ATP510      0.2180
     28  N1         2.5940   64.0780   70.5920 N.2   510  ATP510      0.0021
     29  C2         3.9040   63.9480   70.2890 C.3   510  ATP510      0.5254
     30  N3         4.4470   62.9860   69.5090 N.2   510  ATP510     -0.0055
     31  C4         3.4580   62.0790   69.0170 C.2   510  ATP510      0.3518
@<TRIPOS>BOND
     1    10     9    2
     2    13     9    1
     3    13    14    1
     4    16    15    1
     5    16    21    1
     6    11     9    1
     7     9    12    1
     8    14    15    1
     9    15    17    1
    10     4     1    2
    11    21    22    1
    12    21    19    1
    13    12     5    1
    14    23    22    1
    15    23    24    1
    16    17    18    1
    17    17    19    1
    18    22    31    1
    19    24    25    2
    20    20    19    1
    21     1     8    1
    22     1     2    1
    23     1     3    1
    24     8     5    1
    25    31    25    1
    26    31    30    2
    27    25    26    1
    28     5     7    2
    29     5     6    1
    30    30    29    1
    31    26    27    1
    32    26    28    2
    33    29    28    1
