@<TRIPOS>MOLECULE
1j1z_CIR_A_1.pdb
 12 11 0 0 0
SMALL
GASTEIGER

@<TRIPOS>ATOM
      1  C1        -0.2310   56.6120   56.9650 C.2   520  CIR520      0.3819
      2  O1        -0.5950   57.7580   57.1760 O.co2 520  CIR520     -0.2441
      3  O2         0.7280   56.3240   56.2720 O.co2 520  CIR520     -0.2441
      4  C2        -1.0230   55.4570   57.6330 C.3   520  CIR520      0.1944
      5  N2        -0.9520   54.2320   56.7760 N.3   520  CIR520     -0.1208
      6  C3        -0.4160   55.1260   59.0070 C.3   520  CIR520      0.0324
      7  C4        -1.0200   56.0020   60.0790 C.3   520  CIR520      0.0256
      8  C5        -0.4690   55.5770   61.4160 C.3   520  CIR520      0.1169
      9  N6        -1.0600   54.2510   61.7290 N.am  520  CIR520     -0.1859
     10  C7        -0.7460   53.6140   62.8190 C.2   520  CIR520      0.3589
     11  O7         0.4020   53.6880   63.2810 O.2   520  CIR520     -0.2474
     12  N8        -1.6460   52.8720   63.4100 N.am  520  CIR520     -0.0679
@<TRIPOS>BOND
     1     3     1   ar
     2     5     4    1
     3     1     2   ar
     4     1     4    1
     5     4     6    1
     6     6     7    1
     7     7     8    1
     8     8     9    1
     9     9    10   am
    10    10    11    2
    11    10    12   am
