@<TRIPOS>MOLECULE
1j20_AS1_A_1.pdb
 20 19 0 0 0
SMALL
GASTEIGER

@<TRIPOS>ATOM
      1  O51       -0.4980   57.5670   57.1840 O.co2 520  AS1520     -0.2440
      2  O52        0.8710   56.2170   56.1750 O.co2 520  AS1520     -0.2440
      3  C5        -0.1860   56.4100   56.8210 C.2   520  AS1520      0.3829
      4  C4        -1.0700   55.2470   57.1830 C.3   520  AS1520      0.2073
      5  N4        -1.1070   53.9370   56.5810 N.3   520  AS1520     -0.1197
      6  C3        -1.9500   55.5100   58.4240 C.3   520  AS1520      0.1098
      7  C2        -1.0770   55.4420   59.6660 C.1   520  AS1520     -0.0472
      8  C1        -0.4240   55.4260   61.0160 C.1   520  AS1520      0.1290
      9  N2         0.5020   54.9270   62.2530 N.pl3 520  AS1520     -0.0078
     10  C          1.2330   53.9190   62.5560 C.cat 520  AS1520      0.5131
     11  N3         0.4970   52.7410   62.2730 N.pl3 520  AS1520      0.1334
     12  N1         2.5240   53.7070   62.8280 N.pl3 520  AS1520     -0.0595
     13  CA         3.4380   53.4720   61.9020 C.2   520  AS1520      0.2270
     14  CG         4.9410   53.4810   62.3060 C.2   520  AS1520      0.4178
     15  OG2        5.7340   52.5730   62.1310 O.co2 520  AS1520     -0.2376
     16  OG1        5.4030   54.4490   62.8850 O.co2 520  AS1520     -0.2376
     17  CB         3.0100   53.8100   60.1850 C.3   520  AS1520      0.1848
     18  CD         3.9850   53.9830   58.9960 C.2   520  AS1520      0.3726
     19  OD1        3.6530   53.5770   57.8410 O.co2 520  AS1520     -0.2452
     20  OD2        5.0650   54.6010   59.2250 O.co2 520  AS1520     -0.2452
@<TRIPOS>BOND
     1     2     3   ar
     2     5     4    1
     3     3     4    1
     4     3     1   ar
     5     4     6    1
     6    19    18   ar
     7     6     7    1
     8    18    20   ar
     9    18    17    1
    10     7     8    3
    11    17    13    1
    12     8     9    1
    13    13    14    1
    14    13    12    2
    15    15    14   ar
    16     9    10    1
    17    11    10    2
    18    14    16   ar
    19    10    12    1
