@<TRIPOS>MOLECULE
1j20_AMP_A_1.pdb
 23 25 0 0 0
SMALL
GASTEIGER

@<TRIPOS>ATOM
      1  P          1.8680   55.5540   66.2330 P.3   510  AMP510      0.5327
      2  O1P        2.2830   53.9650   66.4180 O.3   510  AMP510     -0.1145
      3  O2P        1.1090   55.5010   64.8030 O.2   510  AMP510     -0.2224
      4  O3P        0.9280   55.9200   67.1810 O.3   510  AMP510     -0.1145
      5  O5'        3.1500   56.2610   66.2610 O.3   510  AMP510     -0.2675
      6  C5'        3.4820   57.7550   66.0490 C.3   510  AMP510      0.1860
      7  C4'        4.8120   58.1710   66.6500 C.3   510  AMP510      0.1823
      8  O4'        4.8650   59.6260   66.4020 O.3   510  AMP510     -0.3135
      9  C3'        4.8910   57.9010   68.2790 C.3   510  AMP510      0.2184
     10  O3'        5.7240   56.6610   68.4060 O.3   510  AMP510     -0.2174
     11  C2'        5.5330   59.2870   68.7260 C.3   510  AMP510      0.2570
     12  O2'        6.9520   59.3500   68.7750 O.3   510  AMP510     -0.2130
     13  C1'        4.9840   60.3670   67.6800 C.3   510  AMP510      0.3186
     14  N9         3.6040   60.9500   68.1520 N.pl3 510  AMP510     -0.1439
     15  C8         2.2660   60.5220   67.8550 C.3   510  AMP510      0.3377
     16  N7         1.2260   61.2330   68.3960 N.2   510  AMP510     -0.2095
     17  C5         1.9480   62.2000   69.0960 C.2   510  AMP510      0.2526
     18  C6         1.5060   63.3110   69.9030 C.2   510  AMP510      0.4393
     19  N6         0.1620   63.5280   70.0530 N.pl3 510  AMP510      0.2180
     20  N1         2.5110   64.1020   70.4780 N.2   510  AMP510      0.0021
     21  C2         3.8660   63.8600   70.3010 C.3   510  AMP510      0.5254
     22  N3         4.3620   62.8330   69.5460 N.2   510  AMP510     -0.0055
     23  C4         3.3900   62.0520   68.9780 C.2   510  AMP510      0.3518
@<TRIPOS>BOND
     1     3     1    2
     2     6     5    1
     3     6     7    1
     4     1     5    1
     5     1     2    1
     6     1     4    1
     7     8     7    1
     8     8    13    1
     9     7     9    1
    10    13    14    1
    11    13    11    1
    12    15    14    1
    13    15    16    1
    14    14    23    1
    15     9    10    1
    16     9    11    1
    17    16    17    2
    18    11    12    1
    19    23    17    1
    20    23    22    2
    21    17    18    1
    22    22    21    1
    23    18    19    1
    24    18    20    2
    25    21    20    1
