@<TRIPOS>MOLECULE
1j21_ATP_A_1.pdb
 31 33 0 0 0
SMALL
GASTEIGER

@<TRIPOS>ATOM
      1  PG         3.9970   54.7900   72.3110 P.3   510  ATP510      0.5373
      2  O1G        3.9080   53.4060   72.9040 O.3   510  ATP510     -0.1143
      3  O2G        3.8180   55.8970   73.3030 O.3   510  ATP510     -0.1143
      4  O3G        5.2610   54.9520   71.5000 O.2   510  ATP510     -0.2221
      5  PB         2.6600   54.2240   69.8030 P.3   510  ATP510      0.2277
      6  O1B        1.3020   54.2210   69.2750 O.2   510  ATP510     -0.5168
      7  O2B        3.6270   53.1890   69.3690 O.3   510  ATP510     -0.4368
      8  O3B        2.8650   54.9780   71.1950 O.3   510  ATP510     -0.2258
      9  PA         2.5600   55.7640   67.1960 P.3   510  ATP510      0.2189
     10  O1A        2.4990   54.9170   66.0230 O.2   510  ATP510     -0.5170
     11  O2A        1.7900   57.0120   67.2720 O.3   510  ATP510     -0.4371
     12  O3A        3.2130   55.2470   68.5670 O.3   510  ATP510     -0.2700
     13  O5'        3.7780   56.4870   66.9870 O.3   510  ATP510     -0.3112
     14  C5'        4.6270   57.2810   67.3300 C.3   510  ATP510      0.1813
     15  C4'        5.6470   58.2780   67.2570 C.3   510  ATP510      0.1821
     16  O4'        4.9510   59.4560   66.8170 O.3   510  ATP510     -0.3135
     17  C3'        5.7640   58.2260   68.7040 C.3   510  ATP510      0.2184
     18  O3'        6.6330   57.2730   69.2520 O.3   510  ATP510     -0.2174
     19  C2'        6.0050   59.6960   68.9960 C.3   510  ATP510      0.2570
     20  O2'        7.3940   59.9450   68.9090 O.3   510  ATP510     -0.2130
     21  C1'        5.1600   60.4530   67.8980 C.3   510  ATP510      0.3186
     22  N9         3.8150   60.9130   68.3610 N.pl3 510  ATP510     -0.1439
     23  C8         2.5370   60.3640   68.1440 C.3   510  ATP510      0.3377
     24  N7         1.5630   61.0320   68.6920 N.2   510  ATP510     -0.2095
     25  C5         2.2320   62.0870   69.3070 C.2   510  ATP510      0.2526
     26  C6         1.7820   63.2110   70.0870 C.2   510  ATP510      0.4393
     27  N6         0.5060   63.4100   70.3490 N.pl3 510  ATP510      0.2180
     28  N1         2.7170   64.1070   70.5710 N.2   510  ATP510      0.0021
     29  C2         4.0320   63.9320   70.3190 C.3   510  ATP510      0.5254
     30  N3         4.5800   62.9230   69.6010 N.2   510  ATP510     -0.0055
     31  C4         3.5950   62.0190   69.1150 C.2   510  ATP510      0.3518
@<TRIPOS>BOND
     1    10     9    2
     2    16    15    1
     3    16    21    1
     4    13     9    1
     5    13    14    1
     6     9    11    1
     7     9    12    1
     8    15    14    1
     9    15    17    1
    10    21    22    1
    11    21    19    1
    12    23    22    1
    13    23    24    1
    14    22    31    1
    15    12     5    1
    16    24    25    2
    17    17    19    1
    18    17    18    1
    19    20    19    1
    20    31    25    1
    21    31    30    2
    22     6     5    2
    23    25    26    1
    24     7     5    1
    25    30    29    1
    26     5     8    1
    27    26    27    1
    28    26    28    2
    29    29    28    1
    30     8     1    1
    31     4     1    2
    32     1     2    1
    33     1     3    1
