@<TRIPOS>MOLECULE
1j21_CIR_A_1.pdb
 12 11 0 0 0
SMALL
GASTEIGER

@<TRIPOS>ATOM
      1  C1        -0.2730   56.3910   56.9800 C.2   520  CIR520      0.3819
      2  O1        -0.5010   57.5830   57.1460 O.co2 520  CIR520     -0.2441
      3  O2         0.6500   55.9660   56.3050 O.co2 520  CIR520     -0.2441
      4  C2        -1.1980   55.3540   57.6730 C.3   520  CIR520      0.1944
      5  N2        -1.3350   54.1770   56.7730 N.3   520  CIR520     -0.1208
      6  C3        -0.5880   54.8580   59.0030 C.3   520  CIR520      0.0324
      7  C4        -0.8210   55.8410   60.1260 C.3   520  CIR520      0.0256
      8  C5        -0.5180   55.1770   61.4570 C.3   520  CIR520      0.1169
      9  N6        -1.5030   54.0660   61.6580 N.am  520  CIR520     -0.1859
     10  C7        -1.4710   53.3050   62.7300 C.2   520  CIR520      0.3589
     11  O7        -0.3890   53.0360   63.2860 O.2   520  CIR520     -0.2474
     12  N8        -2.5870   52.8160   63.2030 N.am  520  CIR520     -0.0679
@<TRIPOS>BOND
     1     3     1   ar
     2     5     4    1
     3     1     2   ar
     4     1     4    1
     5     4     6    1
     6     6     7    1
     7     7     8    1
     8     8     9    1
     9     9    10   am
    10    10    12   am
    11    10    11    2
