@<TRIPOS>MOLECULE
1j2c_BLA_A_1.pdb
 37 40 0 0 0
SMALL
GASTEIGER

@<TRIPOS>ATOM
      1  CHA      -88.9760   -8.5780  -87.8680 C.3   300  BLA300      0.1085
      2  NA       -88.9340  -10.3280  -89.5700 N.2   300  BLA300     -0.4183
      3  C1A      -88.4760   -9.1320  -89.0740 C.2   300  BLA300      0.0926
      4  C2A      -87.6370   -8.4490  -90.0910 C.3   300  BLA300      0.0548
      5  C3A      -87.9620   -9.0950  -91.2680 C.3   300  BLA300      0.0548
      6  C4A      -88.6890  -10.3310  -90.9050 C.2   300  BLA300      0.0926
      7  CMA      -87.8190   -8.5560  -92.6990 C.3   300  BLA300      0.0075
      8  CAA      -86.4390   -7.5060  -89.8270 C.3   300  BLA300      0.0075
      9  CHB      -89.1860  -11.3470  -91.7640 C.3   300  BLA300      0.1096
     10  NB       -91.2510  -11.8300  -90.5810 N.2   300  BLA300     -0.3448
     11  C1B      -90.3490  -12.1370  -91.5820 C.2   300  BLA300      0.1067
     12  C2B      -90.8540  -13.2830  -92.4290 C.3   300  BLA300      0.0672
     13  C3B      -92.0170  -13.7220  -91.7690 C.3   300  BLA300      0.1414
     14  C4B      -92.3390  -12.6340  -90.8300 C.1   300  BLA300      0.1800
     15  CMB      -90.4560  -13.5780  -93.8750 C.3   300  BLA300      0.0083
     16  OB       -93.3210  -12.6160  -90.0680 O.2   300  BLA300     -0.2142
     17  NC       -91.7620  -12.9490  -87.5180 N.2   300  BLA300     -0.3375
     18  C1C      -91.8240  -14.3340  -87.6570 C.1   300  BLA300      0.2000
     19  C2C      -92.9530  -14.8660  -86.9200 C.2   300  BLA300      0.0710
     20  C3C      -93.3210  -13.8620  -86.0510 C.2   300  BLA300      0.0124
     21  C4C      -92.4820  -12.6550  -86.4050 C.2   300  BLA300      0.1251
     22  CMC      -93.4110  -16.3690  -87.0130 C.3   300  BLA300      0.0445
     23  OC       -91.2880  -14.9460  -88.6060 O.2   300  BLA300     -0.2096
     24  CAC      -94.3970  -14.0170  -85.1570 C.3   300  BLA300      0.0291
     25  CBC      -94.3950  -14.5430  -83.8340 C.3   300  BLA300      0.0051
     26  CHD      -92.2190  -11.5210  -85.6350 C.3   300  BLA300      0.1138
     27  ND       -90.7260  -10.1930  -87.0900 N.2   300  BLA300     -0.4183
     28  C1D      -91.3000  -10.4920  -85.8720 C.2   300  BLA300      0.0929
     29  C2D      -91.0440   -9.3930  -84.9580 C.3   300  BLA300      0.0548
     30  C3D      -90.1610   -8.5550  -85.5970 C.3   300  BLA300      0.0554
     31  C4D      -89.8220   -9.1780  -86.8570 C.2   300  BLA300      0.0926
     32  CMD      -91.7500   -9.1190  -83.6150 C.3   300  BLA300      0.0075
     33  CAD      -89.3830   -7.4340  -84.9550 C.3   300  BLA300      0.0189
     34  CBD      -88.0290   -7.5870  -84.2400 C.3   300  BLA300      0.1145
     35  CGD      -87.5490   -6.2270  -83.8480 C.2   300  BLA300      0.3649
     36  O1D      -87.2920   -5.3750  -84.7210 O.co2 300  BLA300     -0.2457
     37  O2D      -87.8100   -5.7310  -82.6150 O.co2 300  BLA300     -0.2457
@<TRIPOS>BOND
     1    15    12    1
     2     7     5    1
     3    12    13    1
     4    12    11    1
     5    13    14    1
     6     9    11    1
     7     9     6    1
     8    11    10    2
     9     5     6    1
    10     5     4    1
    11     6     2    2
    12    14    10    2
    13    14    16    2
    14     4     8    1
    15     4     3    1
    16     2     3    2
    17     3     1    1
    18    23    18    2
    19     1    31    1
    20    18    17    2
    21    18    19    1
    22    17    21    2
    23    27    31    2
    24    27    28    2
    25    22    19    1
    26    19    20    2
    27    31    30    1
    28    21    20    1
    29    21    26    1
    30    20    24    1
    31    28    26    1
    32    28    29    1
    33    30    29    1
    34    30    33    1
    35    24    25    1
    36    29    32    1
    37    33    34    1
    38    36    35   ar
    39    34    35    1
    40    35    37   ar
