@<TRIPOS>MOLECULE
1j2g_AZA_A_1.pdb
 11 12 0 0 0
SMALL
GASTEIGER

@<TRIPOS>ATOM
      1  N1       -16.3810   43.3210    1.0610 N.2   4320  AZA4320    -0.2300
      2  C2       -16.8650   43.9870    2.1080 C.1   4320  AZA4320     0.3745
      3  O2       -16.5260   45.1280    2.3290 O.2   4320  AZA4320    -0.1738
      4  N3       -17.6700   43.4440    2.9850 N.2   4320  AZA4320    -0.2491
      5  C4       -18.0960   42.2010    2.8190 C.1   4320  AZA4320     0.1531
      6  C5       -17.6860   41.3780    1.7070 C.2   4320  AZA4320     0.2717
      7  C6       -16.7250   42.0500    0.7850 C.1   4320  AZA4320     0.2477
      8  O6       -16.2770   41.4660   -0.2220 O.2   4320  AZA4320    -0.2062
      9  N7       -18.2970   40.1260    1.8240 N.2   4320  AZA4320    -0.1149
     10  N8       -19.1060   40.1930    3.0440 N.pl3 4320  AZA4320    -0.0026
     11  N9       -18.9740   41.4680    3.6100 N.2   4320  AZA4320    -0.0705
@<TRIPOS>BOND
     1     8     7    2
     2     7     1    2
     3     7     6    1
     4     1     2    2
     5     6     9    2
     6     6     5    1
     7     9    10    1
     8     2     3    2
     9     2     4    2
    10     5     4    2
    11     5    11    2
    12    10    11    1
