@<TRIPOS>MOLECULE
1j2j_GTP_A_1.pdb
 32 34 0 0 0
SMALL
GASTEIGER

@<TRIPOS>ATOM
      1  PG        16.1700   29.3720   34.0120 P.3   1001  GTP1001     0.5373
      2  O1G       17.0030   30.3070   34.7880 O.3   1001  GTP1001    -0.1143
      3  O2G       15.7480   28.1490   34.8050 O.3   1001  GTP1001    -0.1143
      4  O3G       16.8050   28.9730   32.6830 O.2   1001  GTP1001    -0.2221
      5  O3B       14.7920   30.2020   33.7220 O.3   1001  GTP1001    -0.2258
      6  PB        13.5360   29.6150   32.9270 P.3   1001  GTP1001     0.2277
      7  O1B       13.6140   30.0300   31.5150 O.2   1001  GTP1001    -0.5168
      8  O2B       13.2570   28.1450   33.2330 O.3   1001  GTP1001    -0.4368
      9  O3A       12.3410   30.5470   33.5120 O.3   1001  GTP1001    -0.2700
     10  PA        11.1000   30.1020   34.4430 P.3   1001  GTP1001     0.2189
     11  O1A       10.2490   29.0740   33.7930 O.2   1001  GTP1001    -0.5170
     12  O2A       11.6960   29.7410   35.8000 O.3   1001  GTP1001    -0.4371
     13  O5'       10.2680   31.4690   34.5280 O.3   1001  GTP1001    -0.3112
     14  C5'       10.8890   32.6450   34.9510 C.3   1001  GTP1001     0.1813
     15  C4'        9.7710   33.6020   35.3940 C.3   1001  GTP1001     0.1799
     16  O4'        8.9570   33.9820   34.3060 O.3   1001  GTP1001    -0.3326
     17  C3'        8.8210   32.9460   36.3830 C.3   1001  GTP1001     0.2158
     18  O3'        8.4920   33.9190   37.3530 O.3   1001  GTP1001    -0.2175
     19  C2'        7.5720   32.6050   35.6250 C.3   1001  GTP1001     0.2310
     20  O2'        6.4830   32.8150   36.5060 O.3   1001  GTP1001    -0.2158
     21  C1'        7.5940   33.7060   34.5850 C.3   1001  GTP1001     0.2293
     22  N9         6.9150   33.2950   33.3780 N.pl3 1001  GTP1001    -0.2354
     23  C8         7.0660   32.1440   32.6430 C.3   1001  GTP1001     0.2246
     24  N7         6.2440   32.2220   31.5770 N.2   1001  GTP1001    -0.2322
     25  C5         5.5500   33.3930   31.6270 C.2   1001  GTP1001     0.2182
     26  C6         4.5810   33.9730   30.8100 C.1   1001  GTP1001     0.2372
     27  O6         4.1370   33.4580   29.7620 O.2   1001  GTP1001    -0.2069
     28  N1         4.1250   35.2250   31.1770 N.2   1001  GTP1001    -0.2485
     29  C2         4.5870   35.8620   32.3060 C.1   1001  GTP1001     0.2531
     30  N2         4.1060   37.0650   32.6400 N.pl3 1001  GTP1001    -0.0226
     31  N3         5.5510   35.2960   33.1090 N.2   1001  GTP1001    -0.3074
     32  C4         6.0100   34.0730   32.7470 C.2   1001  GTP1001     0.2300
@<TRIPOS>BOND
     1    27    26    2
     2    26    28    2
     3    26    25    1
     4    28    29    2
     5     7     6    2
     6    24    25    2
     7    24    23    1
     8    25    32    1
     9    29    30    1
    10    29    31    2
    11    23    22    1
    12     4     1    2
    13    32    31    2
    14    32    22    1
    15     6     8    1
    16     6     9    1
    17     6     5    1
    18    22    21    1
    19     9    10    1
    20     5     1    1
    21    11    10    2
    22     1     2    1
    23     1     3    1
    24    16    21    1
    25    16    15    1
    26    10    13    1
    27    10    12    1
    28    13    14    1
    29    21    19    1
    30    14    15    1
    31    15    17    1
    32    19    17    1
    33    19    20    1
    34    17    18    1
