@<TRIPOS>MOLECULE
1j2q_CIB_H_1.pdb
 27 26 0 0 0
SMALL
GASTEIGER

@<TRIPOS>ATOM
      1  N1       120.0790   22.4980   92.5510 N.am  1001  CIB1001    -0.1978
      2  CA1      121.2790   23.0970   91.9580 C.3   1001  CIB1001     0.1727
      3  C1       122.4820   22.6450   92.7690 C.2   1001  CIB1001     0.2616
      4  O1       122.4860   22.8140   93.9990 O.2   1001  CIB1001    -0.2715
      5  CB1      121.2800   24.6490   92.0170 C.3   1001  CIB1001     0.0311
      6  CG1      120.2030   25.3960   91.2150 C.3   1001  CIB1001     0.0022
      7  CD1      120.4380   26.9170   91.4970 C.3   1001  CIB1001     0.0001
      8  CD2      120.3990   25.1610   89.6810 C.3   1001  CIB1001     0.0001
      9  C10      119.8480   21.1270   92.5350 C.2   1001  CIB1001     0.2423
     10  C25      118.5790   20.5990   93.1810 C.3   1001  CIB1001     0.0964
     11  O28      120.6160   20.3190   92.0290 O.2   1001  CIB1001    -0.2733
     12  N2       123.5040   22.0910   92.0590 N.am  1001  CIB1001    -0.1963
     13  CA2      124.7180   21.6440   92.7030 C.3   1001  CIB1001     0.1728
     14  C2       125.9070   22.4040   92.1180 C.2   1001  CIB1001     0.2616
     15  O2       125.8910   22.8180   90.9370 O.2   1001  CIB1001    -0.2715
     16  CB2      124.9720   20.0760   92.5310 C.3   1001  CIB1001     0.0311
     17  CG2      123.9070   19.0670   93.1160 C.3   1001  CIB1001     0.0022
     18  CD3      124.3710   17.5930   92.8350 C.3   1001  CIB1001     0.0001
     19  CD4      123.7410   19.2290   94.6780 C.3   1001  CIB1001     0.0001
     20  N3       126.9420   22.5430   93.0030 N.am  1001  CIB1001    -0.1977
     21  CA3      128.2480   23.1720   92.8050 C.3   1001  CIB1001     0.1596
     22  C3       129.2090   22.0170   92.8380 C.2   1001  CIB1001     0.2287
     23  O3       128.8520   20.8190   92.9990 O.2   1001  CIB1001    -0.2864
     24  CB3      128.6390   24.0510   94.0040 C.3   1001  CIB1001     0.0297
     25  CG3      127.8310   25.3300   94.1890 C.3   1001  CIB1001     0.0022
     26  CE3      127.4940   27.5990   93.0970 C.3   1001  CIB1001     0.0000
     27  C19      128.5130   26.5680   93.5830 C.3   1001  CIB1001     0.0001
@<TRIPOS>BOND
     1     8     6    1
     2    15    14    2
     3     6     7    1
     4     6     5    1
     5     2     5    1
     6     2     1    1
     7     2     3    1
     8    11     9    2
     9    12    13    1
    10    12     3   am
    11    14    13    1
    12    14    20   am
    13    16    13    1
    14    16    17    1
    15     9     1   am
    16     9    10    1
    17     3     4    2
    18    21    22    1
    19    21    20    1
    20    21    24    1
    21    18    17    1
    22    22    23    2
    23    26    27    1
    24    17    19    1
    25    27    25    1
    26    24    25    1
