@<TRIPOS>MOLECULE
1j2y_DQA_A_1.pdb
 13 13 0 0 0
SMALL
GASTEIGER

@<TRIPOS>ATOM
      1  C1        97.1110  -24.5580   87.5690 C.3   219  DQA219      0.2283
      2  C2        97.3570  -23.3780   88.3910 C.3   219  DQA219      0.0780
      3  C3        96.6880  -22.1860   87.8710 C.3   219  DQA219      0.1924
      4  O3        96.8270  -21.0440   88.6850 O.3   219  DQA219     -0.2198
      5  C4        97.3160  -21.9010   86.6120 C.3   219  DQA219      0.2388
      6  O4        96.8830  -20.7580   85.9570 O.3   219  DQA219     -0.2124
      7  C5        97.2060  -23.1010   85.6530 C.2   219  DQA219      0.1864
      8  C6        97.6120  -24.3640   86.1800 C.3   219  DQA219      0.1088
      9  C         97.7630  -25.7260   87.9590 C.2   219  DQA219      0.3921
     10  O1        98.6000  -25.7510   88.9790 O.co2 219  DQA219     -0.2429
     11  O2        97.6010  -26.8870   87.3360 O.co2 219  DQA219     -0.2429
     12  O5        96.8840  -23.2150   84.6230 O.2   219  DQA219     -0.2932
     13  O6        95.7620  -24.9670   87.7070 O.3   219  DQA219     -0.2136
@<TRIPOS>BOND
     1    12     7    2
     2     7     8    1
     3     7     5    1
     4     6     5    1
     5     8     1    1
     6     5     3    1
     7    11     9   ar
     8     1    13    1
     9     1     9    1
    10     1     2    1
    11     3     2    1
    12     3     4    1
    13     9    10   ar
