@<TRIPOS>MOLECULE
1j32_PLP_A_1.pdb
 15 15 0 0 0
SMALL
GASTEIGER

@<TRIPOS>ATOM
      1  N1        78.3640  104.3910   98.5200 N.ar  413  PLP413     -0.2452
      2  C2        77.2300  103.6020   98.5350 C.ar  413  PLP413      0.0978
      3  C2A       77.3650  102.1130   98.8610 C.3   413  PLP413      0.0555
      4  C3        76.0050  104.1710   98.2730 C.ar  413  PLP413      0.2049
      5  O3        74.8890  103.3860   98.2330 O.3   413  PLP413     -0.2857
      6  C4        75.9320  105.5660   98.0030 C.ar  413  PLP413      0.0182
      7  C4A       74.5490  106.1900   97.7940 C.3   413  PLP413      0.0342
      8  C5        77.1450  106.3440   97.9950 C.ar  413  PLP413      0.0261
      9  C6        78.3310  105.7230   98.2550 C.ar  413  PLP413      0.0965
     10  C5A       77.2480  107.8390   97.7110 C.3   413  PLP413      0.1815
     11  O4P       76.6370  108.4290   96.5960 O.3   413  PLP413     -0.2653
     12  P         76.5810  109.9940   96.3950 P.3   413  PLP413      0.5329
     13  O1P       75.2050  110.3150   96.0180 O.3   413  PLP413     -0.1145
     14  O2P       77.5990  110.1260   95.1850 O.2   413  PLP413     -0.2224
     15  O3P       77.1560  110.6600   97.5750 O.3   413  PLP413     -0.1145
@<TRIPOS>BOND
     1    14    12    2
     2    13    12    1
     3    12    11    1
     4    12    15    1
     5    11    10    1
     6    10     8    1
     7     7     6    1
     8     8     6   ar
     9     8     9   ar
    10     6     4   ar
    11     5     4    1
    12     9     1   ar
    13     4     2   ar
    14     1     2   ar
    15     2     3    1
