@<TRIPOS>MOLECULE
1j36_LPR_A_1.pdb
 29 30 0 0 0
SMALL
GASTEIGER

@<TRIPOS>ATOM
      1  O2         8.9730   -3.7270   18.9430 O.co2 801  LPR801     -0.2441
      2  O3         8.4720   -5.5280   17.7990 O.co2 801  LPR801     -0.2441
      3  C3         8.9600   -4.3930   17.8710 C.2   801  LPR801      0.3803
      4  C4         9.6100   -3.7590   16.6350 C.3   801  LPR801      0.1764
      5  C14        8.5840   -3.4400   15.4970 C.3   801  LPR801      0.0336
      6  C15        7.4970   -2.4550   15.8930 C.3   801  LPR801      0.0284
      7  C16        6.4910   -2.1120   14.8290 C.ar  801  LPR801     -0.0221
      8  C17        6.5270   -2.7720   13.5580 C.ar  801  LPR801     -0.0043
      9  C18        5.5690   -2.4500   12.5540 C.ar  801  LPR801     -0.0003
     10  C19        4.5700   -1.4630   12.8120 C.ar  801  LPR801     -0.0000
     11  C20        4.5340   -0.8000   14.0790 C.ar  801  LPR801     -0.0003
     12  C21        5.4910   -1.1270   15.0760 C.ar  801  LPR801     -0.0043
     13  N1        10.6500   -4.7360   16.0920 N.3   801  LPR801     -0.2005
     14  N3        17.3490   -6.5550   15.0770 N.3   801  LPR801     -0.1314
     15  C1        12.5270   -3.9660   17.4490 C.2   801  LPR801      0.2423
     16  C2        11.7940   -5.2460   16.9290 C.3   801  LPR801      0.1494
     17  O1        12.5770   -2.9380   16.7020 O.2   801  LPR801     -0.2733
     18  C10       12.7750   -6.0630   16.1370 C.3   801  LPR801      0.0268
     19  C11       13.8840   -6.7200   16.8100 C.3   801  LPR801      0.0035
     20  C12       15.3550   -6.1920   16.4250 C.3   801  LPR801      0.0206
     21  C13       15.8950   -6.8730   15.2810 C.3   801  LPR801      0.1093
     22  O4        15.1350   -1.0660   18.1450 O.co2 801  LPR801     -0.2434
     23  O5        15.7420   -3.1480   17.7750 O.co2 801  LPR801     -0.2434
     24  N2        13.1100   -3.9420   18.6650 N.am  801  LPR801     -0.2627
     25  C5        13.8310   -2.7070   19.1490 C.3   801  LPR801      0.2018
     26  C6        14.3250   -3.1340   20.5410 C.2   801  LPR801      0.0019
     27  C7        13.9290   -4.4160   20.7920 C.2   801  LPR801     -0.0070
     28  C8        13.1620   -5.0230   19.6830 C.3   801  LPR801      0.1204
     29  C9        15.0370   -2.3350   18.2760 C.2   801  LPR801      0.3867
@<TRIPOS>BOND
     1     9    10   ar
     2     9     8   ar
     3    10    11   ar
     4     8     7   ar
     5    11    12   ar
     6     7    12   ar
     7     7     6    1
     8    14    21    1
     9    21    20    1
    10     5     6    1
    11     5     4    1
    12    13     4    1
    13    13    16    1
    14    18    19    1
    15    18    16    1
    16    20    19    1
    17     4     3    1
    18    17    15    2
    19    16    15    1
    20    15    24   am
    21    23    29   ar
    22     2     3   ar
    23     3     1   ar
    24    22    29   ar
    25    29    25    1
    26    24    25    1
    27    24    28    1
    28    25    26    1
    29    28    27    1
    30    26    27    2
