@<TRIPOS>MOLECULE
1j37_MCO_A_1.pdb
 14 14 0 0 0
SMALL
GASTEIGER

@<TRIPOS>ATOM
      1  O2        15.3030   -1.2610   17.5100 O.co2 801  MCO801     -0.2438
      2  C9        14.7460   -2.4090   17.7410 C.2   801  MCO801      0.3831
      3  O3        14.8540   -3.3400   16.9830 O.co2 801  MCO801     -0.2438
      4  C8        13.9290   -2.4840   19.0320 C.3   801  MCO801      0.1872
      5  C7        14.7850   -2.7970   20.2280 C.3   801  MCO801      0.0591
      6  C6        14.2390   -4.0250   20.9000 C.2   801  MCO801     -0.0077
      7  C5        13.0810   -4.5230   20.1270 C.2   801  MCO801      0.0635
      8  N         12.8860   -3.5530   18.9960 N.am  801  MCO801     -0.2486
      9  C4        11.9240   -3.5900   18.0660 C.2   801  MCO801      0.2302
     10  O1        11.8780   -2.6990   17.1680 O.2   801  MCO801     -0.2745
     11  C2        10.8730   -4.6980   18.1030 C.3   801  MCO801      0.0887
     12  C3        11.0970   -5.6510   16.9240 C.3   801  MCO801      0.0105
     13  C1         9.5000   -4.0100   18.1130 C.3   801  MCO801      0.0777
     14  S          8.1180   -5.1660   18.1620 S.3   801  MCO801     -0.0816
@<TRIPOS>BOND
     1    12    11    1
     2     3     2   ar
     3    10     9    2
     4     1     2   ar
     5     2     4    1
     6     9    11    1
     7     9     8   am
     8    11    13    1
     9    13    14    1
    10     8     4    1
    11     8     7    1
    12     4     5    1
    13     7     6    2
    14     5     6    1
