@<TRIPOS>MOLECULE
1j39_UPG_A_1.pdb
 36 38 0 0 0
SMALL
GASTEIGER

@<TRIPOS>ATOM
      1  N1        59.9600   16.8310    9.4960 N.am  400  UPG400     -0.1766
      2  C2        61.2980   17.0800    9.2420 C.1   400  UPG400      0.2845
      3  N3        61.7450   16.6650    8.0160 N.2   400  UPG400     -0.2452
      4  C4        61.0050   16.0450    7.0300 C.1   400  UPG400      0.2182
      5  C5        59.6260   15.8280    7.3620 C.2   400  UPG400      0.1242
      6  C6        59.1630   16.2170    8.5580 C.2   400  UPG400      0.0929
      7  O2        62.0330   17.6320   10.0510 O.2   400  UPG400     -0.1918
      8  O4        61.5540   15.7320    5.9720 O.2   400  UPG400     -0.2085
      9  C1C       59.4470   17.2640   10.8030 C.3   400  UPG400      0.2401
     10  C2C       58.4610   18.4370   10.7680 C.3   400  UPG400      0.2319
     11  O2C       58.9300   19.4250   11.6590 O.3   400  UPG400     -0.2157
     12  C3C       57.1660   17.7880   11.2670 C.3   400  UPG400      0.2158
     13  C4C       57.7000   16.7400   12.2240 C.3   400  UPG400      0.1799
     14  O4C       58.7970   16.1900   11.4560 O.3   400  UPG400     -0.3320
     15  O3C       56.3670   18.7450   11.9530 O.3   400  UPG400     -0.2175
     16  C5C       56.7660   15.6560   12.7200 C.3   400  UPG400      0.1813
     17  O5C       56.0960   15.0280   11.6400 O.3   400  UPG400     -0.3112
     18  PA        55.5360   13.5420   11.7900 P.3   400  UPG400      0.2189
     19  O1A       54.6420   13.2650   10.6400 O.2   400  UPG400     -0.5170
     20  O2A       56.6890   12.6470   12.0550 O.3   400  UPG400     -0.4371
     21  O3A       54.6590   13.5780   13.1640 O.3   400  UPG400     -0.2703
     22  PB        53.4470   14.5640   13.6280 P.3   400  UPG400      0.2208
     23  O1B       52.4370   13.7380   14.3350 O.3   400  UPG400     -0.4371
     24  O2B       53.0240   15.4190   12.4910 O.2   400  UPG400     -0.5170
     25  O3B       54.1730   15.4850   14.7060 O.3   400  UPG400     -0.2857
     26  C1'       54.7530   15.0090   15.9280 C.3   400  UPG400      0.2742
     27  C2'       53.7960   15.0730   17.1140 C.3   400  UPG400      0.2409
     28  C3'       53.3750   16.5340   17.2880 C.3   400  UPG400      0.2198
     29  C4'       54.6090   17.4220   17.4880 C.3   400  UPG400      0.2144
     30  C5'       55.6150   17.2060   16.3440 C.3   400  UPG400      0.1835
     31  C6'       56.9330   17.9030   16.6130 C.3   400  UPG400      0.2142
     32  O2'       52.6640   14.2620   16.8560 O.3   400  UPG400     -0.2149
     33  O3'       52.4830   16.6740   18.3850 O.3   400  UPG400     -0.2174
     34  O4'       54.2120   18.7830   17.5170 O.3   400  UPG400     -0.2176
     35  O5'       55.9170   15.8010   16.1940 O.3   400  UPG400     -0.3254
     36  O6'       57.6610   17.2290   17.6280 O.3   400  UPG400     -0.2176
@<TRIPOS>BOND
     1     8     4    2
     2     4     5    1
     3     4     3    2
     4     5     6    2
     5     3     2    2
     6     6     1    1
     7     2     1   am
     8     2     7    2
     9     1     9    1
    10    19    18    2
    11    10     9    1
    12    10    12    1
    13    10    11    1
    14     9    14    1
    15    12    15    1
    16    12    13    1
    17    14    13    1
    18    17    18    1
    19    17    16    1
    20    18    20    1
    21    18    21    1
    22    13    16    1
    23    24    22    2
    24    21    22    1
    25    22    23    1
    26    22    25    1
    27    25    26    1
    28    26    35    1
    29    26    27    1
    30    35    30    1
    31    30    31    1
    32    30    29    1
    33    31    36    1
    34    32    27    1
    35    27    28    1
    36    28    29    1
    37    28    33    1
    38    29    34    1
