@<TRIPOS>MOLECULE
1j3f_CZM_A_1.pdb
 26 28 0 0 0
SMALL
GASTEIGER

@<TRIPOS>ATOM
      1  OA         1.0040    5.7920    5.5890 O.3   180  CZM180     -0.2869
      2  CA2        1.9140    6.7610    5.9390 C.ar  180  CZM180      0.1931
      3  CA3        2.1080    7.0000    7.3090 C.ar  180  CZM180      0.0171
      4  CA4        3.0320    7.9650    7.6970 C.ar  180  CZM180     -0.0011
      5  CA5        3.7530    8.6860    6.7600 C.ar  180  CZM180     -0.0001
      6  CA6        3.5590    8.4510    5.4000 C.ar  180  CZM180      0.0047
      7  CA1        2.6460    7.5020    4.9510 C.ar  180  CZM180      0.0577
      8  CA         2.4030    7.3430    3.5360 C.2   180  CZM180      0.1020
      9  NA         1.4840    6.6160    2.9890 N.2   180  CZM180     -0.2422
     10  CC1        1.2960    6.5380    1.5680 C.ar  180  CZM180      0.0989
     11  CC6        1.8780    7.4310    0.6630 C.ar  180  CZM180      0.0206
     12  CC5        1.6140    7.3460   -0.7020 C.ar  180  CZM180      0.0016
     13  CC4        0.7590    6.3440   -1.1730 C.ar  180  CZM180      0.0016
     14  CC3        0.1800    5.4500   -0.2680 C.ar  180  CZM180      0.0206
     15  CC2        0.4460    5.5370    1.0960 C.ar  180  CZM180      0.0989
     16  NB        -0.1090    4.6440    2.0750 N.2   180  CZM180     -0.2422
     17  CB        -0.5550    3.4670    1.7770 C.2   180  CZM180      0.1020
     18  CB1       -1.1120    2.5000    2.6910 C.ar  180  CZM180      0.0577
     19  CB6       -1.5740    1.2820    2.2150 C.ar  180  CZM180      0.0047
     20  CB5       -2.0770    0.3140    3.0720 C.ar  180  CZM180     -0.0001
     21  CB4       -2.1200    0.5530    4.4360 C.ar  180  CZM180     -0.0011
     22  CB3       -1.6720    1.7560    4.9710 C.ar  180  CZM180      0.0171
     23  CB2       -1.1690    2.7300    4.1070 C.ar  180  CZM180      0.1931
     24  OB        -0.7610    3.9160    4.6610 O.3   180  CZM180     -0.2869
     25  CB7       -1.7320    1.9490    6.4540 C.3   180  CZM180      0.0344
     26  CA7        1.3490    6.2660    8.3700 C.3   180  CZM180      0.0344
@<TRIPOS>BOND
     1    13    12   ar
     2    13    14   ar
     3    12    11   ar
     4    14    15   ar
     5    11    10   ar
     6    15    10   ar
     7    15    16    1
     8    10     9    1
     9    17    16    2
    10    17    18    1
    11    19    18   ar
    12    19    20   ar
    13    18    23   ar
    14     9     8    2
    15    20    21   ar
    16     8     7    1
    17    23    24    1
    18    23    22   ar
    19    21    22   ar
    20     7     6   ar
    21     7     2   ar
    22    22    25    1
    23     6     5   ar
    24     1     2    1
    25     2     3   ar
    26     5     4   ar
    27     3     4   ar
    28     3    26    1
