@<TRIPOS>MOLECULE
1j3i_WRA_A_1.pdb
 24 25 0 0 0
SMALL
GASTEIGER

@<TRIPOS>ATOM
      1  C1        29.6850    6.1040   57.7040 C.3   609  WRA609      0.1882
      2  N2        29.9740    5.8590   56.2620 N.2   609  WRA609     -0.1755
      3  C3        30.8440    4.9170   55.8770 C.1   609  WRA609      0.1863
      4  N4        31.4850    4.1410   56.7990 N.2   609  WRA609     -0.2967
      5  C5        31.1300    4.1360   58.1190 C.2   609  WRA609      0.3223
      6  N6        30.0940    4.9320   58.5630 N.4   609  WRA609     -0.1779
      7  O7        29.7220    5.0760   59.9900 O.3   609  WRA609     -0.2523
      8  C8        29.4120    3.8670   60.8470 C.3   609  WRA609      0.1779
      9  C9        29.3590    4.4040   62.3430 C.3   609  WRA609      0.0822
     10  C10       28.4610    5.7350   62.3540 C.3   609  WRA609      0.2081
     11  O11       27.1300    5.3910   61.7990 O.3   609  WRA609     -0.4745
     12  C12       26.1470    6.4470   61.7560 C.ar  609  WRA609      0.1499
     13  C13       24.8100    6.1160   61.2670 C.ar  609  WRA609      0.0924
     14  C14       23.7890    7.1180   61.1720 C.ar  609  WRA609      0.0267
     15  C15       24.0660    8.4910   61.5500 C.ar  609  WRA609      0.0692
     16  C16       25.4080    8.8490   62.0520 C.ar  609  WRA609      0.0713
     17  C17       26.4390    7.8190   62.1560 C.ar  609  WRA609      0.0500
     18  CM1       28.1850    6.3770   57.8990 C.3   609  WRA609      0.0510
     19  CM2       30.4590    7.3570   58.1690 C.3   609  WRA609      0.0510
     20  NH1       31.0900    4.7420   54.5660 N.pl3 609  WRA609     -0.0347
     21  NH2       31.7900    3.3660   58.9510 N.pl3 609  WRA609     -0.0732
     22 CL1        24.4470    4.4980   60.7860 Cl    609  WRA609     -0.0791
     23 CL2        22.7830    9.6950   61.3860 Cl    609  WRA609     -0.0813
     24 CL3        25.8030   10.5180   62.5290 Cl    609  WRA609     -0.0813
@<TRIPOS>BOND
     1    20     3    1
     2     3     2    2
     3     3     4    2
     4     2     1    1
     5     4     5    2
     6     1    18    1
     7     1    19    1
     8     1     6    1
     9     5     6    1
    10     5    21    1
    11     6     7    1
    12     7     8    1
    13    22    13    1
    14     8     9    1
    15    14    13   ar
    16    14    15   ar
    17    13    12   ar
    18    23    15    1
    19    15    16   ar
    20    12    11    1
    21    12    17   ar
    22    11    10    1
    23    16    17   ar
    24    16    24    1
    25     9    10    1
