@<TRIPOS>MOLECULE
1j3i_UMP_C_1.pdb
 20 21 0 0 0
SMALL
GASTEIGER

@<TRIPOS>ATOM
      1  N1        44.4090   20.3940   19.0790 N.am  611  UMP611     -0.1790
      2  C2        43.5870   19.8540   20.1420 C.1   611  UMP611      0.2844
      3  N3        42.7750   20.8180   20.7640 N.2   611  UMP611     -0.2452
      4  C4        42.7010   22.1950   20.4540 C.1   611  UMP611      0.2182
      5  C5        43.5750   22.6560   19.3550 C.2   611  UMP611      0.1242
      6  C6        44.3950   21.7160   18.7180 C.2   611  UMP611      0.0928
      7  O2        43.5490   18.6910   20.5210 O.2   611  UMP611     -0.1918
      8  O4        41.9620   22.9570   21.0600 O.2   611  UMP611     -0.2085
      9  C1'       45.3700   19.5910   18.2570 C.3   611  UMP611      0.2090
     10  C2'       44.8730   18.4940   17.2970 C.3   611  UMP611      0.0874
     11  C3'       46.0170   18.3630   16.2620 C.3   611  UMP611      0.1857
     12  C4'       46.6100   19.7800   16.0450 C.3   611  UMP611      0.1774
     13  O3'       47.0490   17.5130   16.8710 O.3   611  UMP611     -0.2203
     14  O4'       46.2370   20.4070   17.3280 O.3   611  UMP611     -0.3339
     15  C5'       45.8770   20.5660   14.9370 C.3   611  UMP611      0.1858
     16  O5'       46.4060   20.1940   13.6220 O.3   611  UMP611     -0.2675
     17  P         45.5230   19.7260   12.4840 P.3   611  UMP611      0.5327
     18  OP1       46.2960   19.2400   11.3580 O.2   611  UMP611     -0.2224
     19  OP2       44.7330   18.6300   13.0280 O.3   611  UMP611     -0.1145
     20  OP3       44.6980   20.8370   12.0450 O.3   611  UMP611     -0.1145
@<TRIPOS>BOND
     1    18    17    2
     2    20    17    1
     3    17    19    1
     4    17    16    1
     5    16    15    1
     6    15    12    1
     7    12    11    1
     8    12    14    1
     9    11    13    1
    10    11    10    1
    11    10     9    1
    12    14     9    1
    13     9     1    1
    14     6     1    1
    15     6     5    2
    16     1     2   am
    17     5     4    1
    18     2     7    2
    19     2     3    2
    20     4     3    2
    21     4     8    2
