@<TRIPOS>MOLECULE
1j3i_NDP_A_1.pdb
 48 52 0 0 0
SMALL
GASTEIGER

@<TRIPOS>ATOM
      1  PA        35.8340    4.1990   68.8020 P.3   610  NDP610      0.2189
      2  O1A       36.7720    3.4440   68.0220 O.2   610  NDP610     -0.5170
      3  O2A       34.4120    4.4210   68.3900 O.3   610  NDP610     -0.4371
      4  O5B       35.8880    3.4850   70.3110 O.3   610  NDP610     -0.3112
      5  C5B       37.1670    3.0510   70.8820 C.3   610  NDP610      0.1813
      6  C4B       36.7000    2.9060   72.3290 C.3   610  NDP610      0.1820
      7  O4B       35.6860    1.7670   72.0730 O.3   610  NDP610     -0.3136
      8  C3B       37.5480    2.3760   73.4570 C.3   610  NDP610      0.2157
      9  O3B       37.6610    3.4760   74.3910 O.3   610  NDP610     -0.2175
     10  C2B       36.6740    1.2460   74.0620 C.3   610  NDP610      0.2314
     11  O2B       35.5060    1.5640   74.8600 O.3   610  NDP610     -0.2630
     12  C1B       36.2100    0.6250   72.9090 C.3   610  NDP610      0.3158
     13  N9A       37.2590   -0.3370   72.2970 N.pl3 610  NDP610     -0.1439
     14  C8A       38.0850   -0.2290   71.1390 C.3   610  NDP610      0.3377
     15  N7A       38.8420   -1.2790   70.9960 N.2   610  NDP610     -0.2095
     16  C5A       38.5920   -2.1040   71.9930 C.2   610  NDP610      0.2526
     17  C6A       39.1010   -3.4000   72.3890 C.2   610  NDP610      0.4393
     18  N6A       40.0160   -4.0120   71.6890 N.pl3 610  NDP610      0.2180
     19  N1A       38.6050   -3.9980   73.5280 N.2   610  NDP610      0.0021
     20  C2A       37.6250   -3.3510   74.2870 C.3   610  NDP610      0.5254
     21  N3A       37.0850   -2.1470   74.0080 N.2   610  NDP610     -0.0055
     22  C4A       37.6190   -1.5600   72.8260 C.2   610  NDP610      0.3518
     23  O3        36.4560    5.4990   69.2020 O.3   610  NDP610     -0.2703
     24  PN        37.1330    6.7560   68.4740 P.3   610  NDP610      0.2189
     25  O1N       37.2310    7.9020   69.4080 O.3   610  NDP610     -0.4371
     26  O2N       38.3530    6.0960   67.8910 O.2   610  NDP610     -0.5170
     27  O5D       36.3490    7.3880   67.2130 O.3   610  NDP610     -0.3112
     28  C5D       34.9040    7.6070   67.3310 C.3   610  NDP610      0.1813
     29  C4D       34.7350    8.7940   66.2640 C.3   610  NDP610      0.1799
     30  O4D       35.0600    8.4090   64.9600 O.3   610  NDP610     -0.3327
     31  C3D       33.4570    9.5190   66.1640 C.3   610  NDP610      0.2158
     32  O3D       33.9210   10.9160   65.9530 O.3   610  NDP610     -0.2175
     33  C2D       32.7030    9.0090   65.0620 C.3   610  NDP610      0.2309
     34  O2D       31.8310   10.0610   64.6500 O.3   610  NDP610     -0.2158
     35  C1D       33.8740    8.7560   64.0880 C.3   610  NDP610      0.2263
     36  N1N       33.5510    7.6340   63.1880 N.pl3 610  NDP610     -0.2787
     37  C2N       33.8530    7.9230   61.8500 C.3   610  NDP610      0.1244
     38  C3N       33.6140    6.8860   60.8490 C.2   610  NDP610      0.0544
     39  C7N       33.9540    7.1890   59.4350 C.2   610  NDP610      0.2818
     40  O7N       33.8200    6.3760   58.5070 O.2   610  NDP610     -0.2670
     41  N7N       34.4330    8.4100   59.1140 N.am  610  NDP610     -0.0839
     42  C4N       33.0700    5.6160   61.2850 C.2   610  NDP610      0.0033
     43  C5N       32.7620    5.3480   62.6480 C.2   610  NDP610      0.0157
     44  C6N       33.0090    6.3690   63.6100 C.2   610  NDP610      0.0633
     45  P2B       35.3130    1.9150   76.3010 P.3   610  NDP610      0.5328
     46  O1X       36.0280    3.1660   76.6160 O.2   610  NDP610     -0.2224
     47  O2X       34.1630    1.4660   76.9120 O.3   610  NDP610     -0.1145
     48  O3X       36.2620    0.8710   76.9040 O.3   610  NDP610     -0.1145
@<TRIPOS>BOND
     1    40    39    2
     2    41    39   am
     3    39    38    1
     4    38    42    2
     5    38    37    1
     6    42    43    1
     7    37    36    1
     8    43    44    2
     9    36    44    1
    10    36    35    1
    11    35    30    1
    12    35    33    1
    13    34    33    1
    14    30    29    1
    15    33    31    1
    16    32    31    1
    17    31    29    1
    18    29    28    1
    19    27    28    1
    20    27    24    1
    21    26    24    2
    22     2     1    2
    23     3     1    1
    24    24    23    1
    25    24    25    1
    26     1    23    1
    27     1     4    1
    28     4     5    1
    29     5     6    1
    30    15    14    1
    31    15    16    2
    32    14    13    1
    33    18    17    1
    34    16    17    1
    35    16    22    1
    36     7     6    1
    37     7    12    1
    38    13    22    1
    39    13    12    1
    40     6     8    1
    41    17    19    2
    42    22    21    2
    43    12    10    1
    44     8    10    1
    45     8     9    1
    46    19    20    1
    47    21    20    1
    48    10    11    1
    49    11    45    1
    50    45    46    2
    51    45    48    1
    52    45    47    1
