@<TRIPOS>MOLECULE
1j3j_UMP_C_1.pdb
 20 21 0 0 0
SMALL
GASTEIGER

@<TRIPOS>ATOM
      1  N1        44.4630   20.4440   19.6340 N.am  611  UMP611     -0.1790
      2  C2        43.6370   19.8660   20.6760 C.1   611  UMP611      0.2844
      3  N3        42.8800   20.8300   21.3930 N.2   611  UMP611     -0.2452
      4  C4        42.8770   22.2420   21.1730 C.1   611  UMP611      0.2182
      5  C5        43.7510   22.7130   20.0890 C.2   611  UMP611      0.1242
      6  C6        44.5070   21.7740   19.3700 C.2   611  UMP611      0.0928
      7  O2        43.5530   18.6530   20.9700 O.2   611  UMP611     -0.1918
      8  O4        42.1940   23.0260   21.8390 O.2   611  UMP611     -0.2085
      9  C1'       45.3700   19.6420   18.7340 C.3   611  UMP611      0.2090
     10  C2'       44.8440   18.6420   17.6940 C.3   611  UMP611      0.0874
     11  C3'       46.0880   18.3720   16.8210 C.3   611  UMP611      0.1857
     12  C4'       46.8190   19.7270   16.6450 C.3   611  UMP611      0.1774
     13  O3'       46.9610   17.4550   17.5590 O.3   611  UMP611     -0.2203
     14  O4'       46.3470   20.4220   17.8700 O.3   611  UMP611     -0.3339
     15  C5'       46.3230   20.5240   15.4190 C.3   611  UMP611      0.1858
     16  O5'       46.6950   19.8260   14.1680 O.3   611  UMP611     -0.2675
     17  P         45.7110   19.6090   12.9790 P.3   611  UMP611      0.5327
     18  OP1       46.4080   19.1290   11.8010 O.2   611  UMP611     -0.2224
     19  OP2       44.7910   18.5950   13.4630 O.3   611  UMP611     -0.1145
     20  OP3       45.0500   20.8410   12.6170 O.3   611  UMP611     -0.1145
@<TRIPOS>BOND
     1    18    17    2
     2    20    17    1
     3    17    19    1
     4    17    16    1
     5    16    15    1
     6    15    12    1
     7    12    11    1
     8    12    14    1
     9    11    13    1
    10    11    10    1
    11    10     9    1
    12    14     9    1
    13     9     1    1
    14     6     1    1
    15     6     5    2
    16     1     2   am
    17     5     4    1
    18     2     7    2
    19     2     3    2
    20     4     3    2
    21     4     8    2
