@<TRIPOS>MOLECULE
1j3j_NDP_A_1.pdb
 48 52 0 0 0
SMALL
GASTEIGER

@<TRIPOS>ATOM
      1  PA        33.7710    4.1940   68.4680 P.3   610  NDP610      0.2189
      2  O1A       34.3470    3.1030   67.7690 O.2   610  NDP610     -0.5170
      3  O2A       32.3870    4.7150   68.1840 O.3   610  NDP610     -0.4371
      4  O5B       33.9130    3.6620   70.0670 O.3   610  NDP610     -0.3112
      5  C5B       35.0550    2.9750   70.6230 C.3   610  NDP610      0.1813
      6  C4B       34.6970    3.0660   72.0980 C.3   610  NDP610      0.1820
      7  O4B       33.5500    2.0360   71.8540 O.3   610  NDP610     -0.3136
      8  C3B       35.4310    2.3660   73.3140 C.3   610  NDP610      0.2157
      9  O3B       35.6830    3.3530   74.3500 O.3   610  NDP610     -0.2175
     10  C2B       34.3730    1.3640   73.8580 C.3   610  NDP610      0.2314
     11  O2B       33.2270    1.8490   74.5980 O.3   610  NDP610     -0.2630
     12  C1B       33.9380    0.8020   72.6820 C.3   610  NDP610      0.3158
     13  N9A       35.0040   -0.2460   72.1170 N.pl3 610  NDP610     -0.1439
     14  C8A       35.8930   -0.1950   70.9810 C.3   610  NDP610      0.3377
     15  N7A       36.6220   -1.2680   70.8680 N.2   610  NDP610     -0.2095
     16  C5A       36.2950   -2.0920   71.8790 C.2   610  NDP610      0.2526
     17  C6A       36.7490   -3.4490   72.3130 C.2   610  NDP610      0.4393
     18  N6A       37.6900   -4.1200   71.6310 N.pl3 610  NDP610      0.2180
     19  N1A       36.1810   -4.0160   73.4360 N.2   610  NDP610      0.0021
     20  C2A       35.1950   -3.3190   74.1560 C.3   610  NDP610      0.5254
     21  N3A       34.6980   -2.0590   73.8460 N.2   610  NDP610     -0.0055
     22  C4A       35.2970   -1.4940   72.6800 C.2   610  NDP610      0.3518
     23  O3        34.7780    5.5030   68.1890 O.3   610  NDP610     -0.2703
     24  PN        35.2050    7.0620   68.1640 P.3   610  NDP610      0.2189
     25  O1N       35.0390    7.6560   69.5070 O.3   610  NDP610     -0.4371
     26  O2N       36.5770    7.0910   67.5960 O.2   610  NDP610     -0.5170
     27  O5D       34.3410    7.8790   67.0670 O.3   610  NDP610     -0.3112
     28  C5D       32.8420    7.7100   66.9240 C.3   610  NDP610      0.1813
     29  C4D       32.5250    9.0980   66.1890 C.3   610  NDP610      0.1799
     30  O4D       33.2220    8.9910   64.9080 O.3   610  NDP610     -0.3327
     31  C3D       31.1360    9.5090   65.7950 C.3   610  NDP610      0.2158
     32  O3D       31.2220   10.9560   65.6370 O.3   610  NDP610     -0.2175
     33  C2D       30.8330    8.8530   64.5670 C.3   610  NDP610      0.2309
     34  O2D       29.7570    9.5080   63.9340 O.3   610  NDP610     -0.2158
     35  C1D       32.1700    9.0430   63.7970 C.3   610  NDP610      0.2263
     36  N1N       32.2120    7.9010   62.7860 N.pl3 610  NDP610     -0.2787
     37  C2N       32.0950    8.3000   61.3990 C.3   610  NDP610      0.1244
     38  C3N       32.1180    7.1900   60.3660 C.2   610  NDP610      0.0544
     39  C7N       32.0090    7.5030   58.9310 C.2   610  NDP610      0.2818
     40  O7N       32.0240    6.5910   58.0310 O.2   610  NDP610     -0.2670
     41  N7N       31.8840    8.8170   58.5230 N.am  610  NDP610     -0.0839
     42  C4N       32.2470    5.8120   60.8230 C.2   610  NDP610      0.0033
     43  C5N       32.3480    5.4780   62.1500 C.2   610  NDP610      0.0157
     44  C6N       32.3330    6.5150   63.1420 C.2   610  NDP610      0.0633
     45  P2B       33.0650    2.2230   76.0610 P.3   610  NDP610      0.5328
     46  O1X       33.8220    3.5040   76.2900 O.2   610  NDP610     -0.2224
     47  O2X       31.8790    1.8250   76.7340 O.3   610  NDP610     -0.1145
     48  O3X       34.0080    1.1860   76.7040 O.3   610  NDP610     -0.1145
@<TRIPOS>BOND
     1    40    39    2
     2    41    39   am
     3    39    38    1
     4    38    42    2
     5    38    37    1
     6    42    43    1
     7    37    36    1
     8    43    44    2
     9    36    44    1
    10    36    35    1
    11    35    33    1
    12    35    30    1
    13    34    33    1
    14    33    31    1
    15    30    29    1
    16    32    31    1
    17    31    29    1
    18    29    28    1
    19    28    27    1
    20    27    24    1
    21    26    24    2
    22     2     1    2
    23    24    23    1
    24    24    25    1
    25     3     1    1
    26    23     1    1
    27     1     4    1
    28     4     5    1
    29     5     6    1
    30    15    14    1
    31    15    16    2
    32    14    13    1
    33    18    17    1
    34     7     6    1
    35     7    12    1
    36    16    17    1
    37    16    22    1
    38     6     8    1
    39    13    22    1
    40    13    12    1
    41    17    19    2
    42    22    21    2
    43    12    10    1
    44     8    10    1
    45     8     9    1
    46    19    20    1
    47    21    20    1
    48    10    11    1
    49    11    45    1
    50    45    46    2
    51    45    48    1
    52    45    47    1
