@<TRIPOS>MOLECULE
1j3j_CP6_A_1.pdb
 17 18 0 0 0
SMALL
GASTEIGER

@<TRIPOS>ATOM
      1  N1        29.8760    4.1050   56.3530 N.2   609  CP6609     -0.3112
      2  C2        29.3430    5.0480   55.4730 C.1   609  CP6609      0.2419
      3  C3        29.5330    4.1550   57.6870 C.2   609  CP6609      0.2201
      4  C4        28.5300    5.1440   58.1820 C.3   609  CP6609      0.1421
      5  C5        28.0470    6.1130   57.1470 C.2   609  CP6609      0.1122
      6  N6        28.4140    6.0290   55.8370 N.2   609  CP6609     -0.3339
      7  C7        28.1050    5.2380   59.5600 C.ar  609  CP6609     -0.0080
      8  C8        28.7100    6.0880   60.5010 C.ar  609  CP6609     -0.0026
      9  C9        28.2730    6.1450   61.8450 C.ar  609  CP6609      0.0111
     10  C10       27.1820    5.3060   62.2940 C.ar  609  CP6609      0.0577
     11  C11       26.5410    4.4530   61.4010 C.ar  609  CP6609      0.0111
     12  C12       26.9930    4.4190   60.0470 C.ar  609  CP6609     -0.0026
     13  N13       30.0320    3.2590   58.5670 N.pl3 609  CP6609     -0.0962
     14  N14       29.7100    4.9790   54.1210 N.pl3 609  CP6609     -0.0232
     15  C15       27.0510    7.1590   57.5690 C.3   609  CP6609      0.0563
     16  C16       25.6780    7.1840   56.9350 C.3   609  CP6609      0.0075
     17 CL1        26.7810    5.4560   63.9000 Cl    609  CP6609     -0.0822
@<TRIPOS>BOND
     1    14     2    1
     2     2     6    2
     3     2     1    2
     4     6     5    2
     5     1     3    2
     6    16    15    1
     7     5    15    1
     8     5     4    1
     9     3     4    1
    10     3    13    1
    11     4     7    1
    12     7    12   ar
    13     7     8   ar
    14    12    11   ar
    15     8     9   ar
    16    11    10   ar
    17     9    10   ar
    18    10    17    1
