@<TRIPOS>MOLECULE
1j3k_WRA_A_1.pdb
 24 25 0 0 0
SMALL
GASTEIGER

@<TRIPOS>ATOM
      1  C1        30.3080    5.9460   57.8870 C.3   609  WRA609      0.1882
      2  N2        30.5480    5.7470   56.4200 N.2   609  WRA609     -0.1755
      3  C3        31.3780    4.7790   55.9780 C.1   609  WRA609      0.1863
      4  N4        31.9850    3.9400   56.8460 N.2   609  WRA609     -0.2967
      5  C5        31.6910    3.9350   58.2000 C.2   609  WRA609      0.3223
      6  N6        30.7660    4.7860   58.6950 N.4   609  WRA609     -0.1779
      7  O7        30.4180    4.8710   60.1150 O.3   609  WRA609     -0.2523
      8  C8        29.8470    3.6290   60.8160 C.3   609  WRA609      0.1779
      9  C9        29.8620    3.9620   62.3240 C.3   609  WRA609      0.0822
     10  C10       29.1690    5.4060   62.5270 C.3   609  WRA609      0.2081
     11  O11       27.7220    5.3820   62.0340 O.3   609  WRA609     -0.4745
     12  C12       27.0040    6.6130   62.2570 C.ar  609  WRA609      0.1499
     13  C13       25.6040    6.7080   61.8920 C.ar  609  WRA609      0.0924
     14  C14       24.8780    7.9660   62.0850 C.ar  609  WRA609      0.0267
     15  C15       25.5680    9.1290   62.6520 C.ar  609  WRA609      0.0692
     16  C16       26.9620    9.0130   63.0370 C.ar  609  WRA609      0.0713
     17  C17       27.6590    7.7680   62.8330 C.ar  609  WRA609      0.0500
     18  CM1       28.8230    6.1770   58.1750 C.3   609  WRA609      0.0510
     19  CM2       31.0700    7.1930   58.3380 C.3   609  WRA609      0.0510
     20  NH1       31.6090    4.6520   54.6610 N.pl3 609  WRA609     -0.0347
     21  NH2       32.3180    3.0840   58.9980 N.pl3 609  WRA609     -0.0732
     22 CL1        24.7820    5.3000   61.2160 Cl    609  WRA609     -0.0791
     23 CL2        24.6910   10.6700   62.8670 Cl    609  WRA609     -0.0813
     24 CL3        27.8720   10.3770   63.7650 Cl    609  WRA609     -0.0813
@<TRIPOS>BOND
     1    20     3    1
     2     3     2    2
     3     3     4    2
     4     2     1    1
     5     4     5    2
     6     1    18    1
     7     1    19    1
     8     1     6    1
     9     5     6    1
    10     5    21    1
    11     6     7    1
    12     7     8    1
    13     8     9    1
    14    22    13    1
    15    13    14   ar
    16    13    12   ar
    17    11    12    1
    18    11    10    1
    19    14    15   ar
    20    12    17   ar
    21     9    10    1
    22    15    23    1
    23    15    16   ar
    24    17    16   ar
    25    16    24    1
