@<TRIPOS>MOLECULE
1j3k_UMP_C_1.pdb
 20 21 0 0 0
SMALL
GASTEIGER

@<TRIPOS>ATOM
      1  N1        44.4110   20.3700   18.8710 N.am  611  UMP611     -0.1790
      2  C2        43.6010   19.8160   19.8910 C.1   611  UMP611      0.2844
      3  N3        42.8040   20.7230   20.5480 N.2   611  UMP611     -0.2452
      4  C4        42.7300   22.1110   20.2860 C.1   611  UMP611      0.2182
      5  C5        43.6120   22.6280   19.1790 C.2   611  UMP611      0.1242
      6  C6        44.4240   21.6970   18.5210 C.2   611  UMP611      0.0928
      7  O2        43.6010   18.6470   20.1860 O.2   611  UMP611     -0.1918
      8  O4        42.0040   22.8380   20.9210 O.2   611  UMP611     -0.2085
      9  C1'       45.3440   19.5210   18.1020 C.3   611  UMP611      0.2090
     10  C2'       44.8020   18.4720   17.1300 C.3   611  UMP611      0.0874
     11  C3'       45.9710   18.3080   16.1090 C.3   611  UMP611      0.1857
     12  C4'       46.6150   19.6560   15.9530 C.3   611  UMP611      0.1774
     13  O3'       46.9460   17.3760   16.7300 O.3   611  UMP611     -0.2203
     14  O4'       46.2760   20.2880   17.2420 O.3   611  UMP611     -0.3339
     15  C5'       45.9220   20.4990   14.8670 C.3   611  UMP611      0.1858
     16  O5'       46.3940   20.0290   13.5710 O.3   611  UMP611     -0.2675
     17  P         45.5180   19.6980   12.3580 P.3   611  UMP611      0.5327
     18  OP1       46.3760   19.0840   11.3390 O.2   611  UMP611     -0.2224
     19  OP2       44.5040   18.6950   12.7700 O.3   611  UMP611     -0.1145
     20  OP3       44.8820   20.9600   11.9240 O.3   611  UMP611     -0.1145
@<TRIPOS>BOND
     1    18    17    2
     2    20    17    1
     3    17    19    1
     4    17    16    1
     5    16    15    1
     6    15    12    1
     7    12    11    1
     8    12    14    1
     9    11    13    1
    10    11    10    1
    11    10     9    1
    12    14     9    1
    13     9     1    1
    14     6     1    1
    15     6     5    2
    16     1     2   am
    17     5     4    1
    18     2     7    2
    19     2     3    2
    20     4     3    2
    21     4     8    2
