@<TRIPOS>MOLECULE
1j3k_NDP_A_1.pdb
 48 52 0 0 0
SMALL
GASTEIGER

@<TRIPOS>ATOM
      1  PA        36.8850    3.8620   68.6740 P.3   610  NDP610      0.2189
      2  O1A       37.9130    3.1310   67.9420 O.2   610  NDP610     -0.5170
      3  O2A       35.5030    4.0470   68.1360 O.3   610  NDP610     -0.4371
      4  O5B       36.8170    3.0530   70.1960 O.3   610  NDP610     -0.3112
      5  C5B       38.0540    2.6100   70.8350 C.3   610  NDP610      0.1813
      6  C4B       37.5490    2.3480   72.2590 C.3   610  NDP610      0.1820
      7  O4B       36.6150    1.1380   71.9580 O.3   610  NDP610     -0.3136
      8  C3B       38.4520    1.8480   73.3700 C.3   610  NDP610      0.2157
      9  O3B       38.5200    2.9800   74.3120 O.3   610  NDP610     -0.2175
     10  C2B       37.6680    0.7260   74.0200 C.3   610  NDP610      0.2314
     11  O2B       36.5620    1.0880   74.8170 O.3   610  NDP610     -0.2630
     12  C1B       37.1440    0.0220   72.8640 C.3   610  NDP610      0.3158
     13  N9A       38.1550   -0.9490   72.2550 N.pl3 610  NDP610     -0.1439
     14  C8A       38.9790   -0.8160   71.1090 C.3   610  NDP610      0.3377
     15  N7A       39.7130   -1.8570   70.9180 N.2   610  NDP610     -0.2095
     16  C5A       39.4470   -2.7280   71.8890 C.2   610  NDP610      0.2526
     17  C6A       39.9360   -4.0530   72.2290 C.2   610  NDP610      0.4393
     18  N6A       40.8540   -4.6500   71.4810 N.pl3 610  NDP610      0.2180
     19  N1A       39.4250   -4.7040   73.3490 N.2   610  NDP610      0.0021
     20  C2A       38.4660   -4.0800   74.1260 C.3   610  NDP610      0.5254
     21  N3A       37.9440   -2.8440   73.9010 N.2   610  NDP610     -0.0055
     22  C4A       38.4910   -2.2060   72.7400 C.2   610  NDP610      0.3518
     23  O3        37.4850    5.1890   69.1780 O.3   610  NDP610     -0.2703
     24  PN        38.2050    6.5060   68.5140 P.3   610  NDP610      0.2189
     25  O1N       38.2480    7.6170   69.4280 O.3   610  NDP610     -0.4371
     26  O2N       39.4770    5.9050   67.9090 O.2   610  NDP610     -0.5170
     27  O5D       37.4050    7.1360   67.2640 O.3   610  NDP610     -0.3112
     28  C5D       36.0240    7.2960   67.3980 C.3   610  NDP610      0.1813
     29  C4D       35.8310    8.5160   66.3600 C.3   610  NDP610      0.1799
     30  O4D       36.0850    8.0960   64.9990 O.3   610  NDP610     -0.3327
     31  C3D       34.5210    9.2330   66.3350 C.3   610  NDP610      0.2158
     32  O3D       34.8800   10.6570   66.1410 O.3   610  NDP610     -0.2175
     33  C2D       33.7280    8.6610   65.2760 C.3   610  NDP610      0.2309
     34  O2D       32.7590    9.5980   64.8870 O.3   610  NDP610     -0.2158
     35  C1D       34.8400    8.4690   64.2260 C.3   610  NDP610      0.2263
     36  N1N       34.4830    7.3860   63.3400 N.pl3 610  NDP610     -0.2787
     37  C2N       34.6090    7.7350   61.9910 C.3   610  NDP610      0.1244
     38  C3N       34.3370    6.7300   61.0120 C.2   610  NDP610      0.0544
     39  C7N       34.5050    7.1070   59.5350 C.2   610  NDP610      0.2818
     40  O7N       34.3460    6.3070   58.6100 O.2   610  NDP610     -0.2670
     41  N7N       34.8420    8.4040   59.1990 N.am  610  NDP610     -0.0839
     42  C4N       33.9420    5.4230   61.4360 C.2   610  NDP610      0.0033
     43  C5N       33.7980    5.0840   62.8110 C.2   610  NDP610      0.0157
     44  C6N       34.0780    6.0790   63.7760 C.2   610  NDP610      0.0633
     45  P2B       36.3830    1.5580   76.2850 P.3   610  NDP610      0.5328
     46  O1X       37.3420    2.6000   76.6310 O.2   610  NDP610     -0.2224
     47  O2X       35.0780    1.4190   76.7950 O.3   610  NDP610     -0.1145
     48  O3X       37.0820    0.3630   76.9280 O.3   610  NDP610     -0.1145
@<TRIPOS>BOND
     1    40    39    2
     2    41    39   am
     3    39    38    1
     4    38    42    2
     5    38    37    1
     6    42    43    1
     7    37    36    1
     8    43    44    2
     9    36    44    1
    10    36    35    1
    11    35    30    1
    12    35    33    1
    13    34    33    1
    14    30    29    1
    15    33    31    1
    16    32    31    1
    17    31    29    1
    18    29    28    1
    19    27    28    1
    20    27    24    1
    21    26    24    2
    22     2     1    2
    23     3     1    1
    24    24    23    1
    25    24    25    1
    26     1    23    1
    27     1     4    1
    28     4     5    1
    29     5     6    1
    30    15    14    1
    31    15    16    2
    32    14    13    1
    33    18    17    1
    34    16    17    1
    35    16    22    1
    36     7     6    1
    37     7    12    1
    38    17    19    2
    39    13    22    1
    40    13    12    1
    41     6     8    1
    42    22    21    2
    43    12    10    1
    44    19    20    1
    45     8    10    1
    46     8     9    1
    47    21    20    1
    48    10    11    1
    49    11    45    1
    50    45    46    2
    51    45    47    1
    52    45    48    1
