@<TRIPOS>MOLECULE
1j3r_6PG_A_1.pdb
 17 16 0 0 0
SMALL
GASTEIGER

@<TRIPOS>ATOM
      1  C1        39.1300   19.5570   17.3890 C.2   600  6PG600      0.3973
      2  C2        38.5500   18.1270   17.6400 C.3   600  6PG600      0.2865
      3  C3        37.3960   17.7430   16.6320 C.3   600  6PG600      0.2260
      4  C4        37.8480   17.5940   15.1180 C.3   600  6PG600      0.2179
      5  C5        36.7010   17.2230   14.1260 C.3   600  6PG600      0.2147
      6  C6        37.0890   17.2090   12.6440 C.3   600  6PG600      0.1892
      7  O1A       40.3300   19.7180   17.3170 O.co2 600  6PG600     -0.2427
      8  O1        38.3740   20.5110   17.2590 O.co2 600  6PG600     -0.2427
      9  O2        39.5750   17.1440   17.5160 O.3   600  6PG600     -0.2080
     10  O3        36.3700   18.7460   16.7730 O.3   600  6PG600     -0.2169
     11  O4        38.4060   18.8220   14.6640 O.3   600  6PG600     -0.2175
     12  O5        36.2310   15.9280   14.4410 O.3   600  6PG600     -0.2176
     13  O6        38.2360   16.3840   12.4660 O.3   600  6PG600     -0.2674
     14  P         39.5020   17.0250   11.8360 P.3   600  6PG600      0.5327
     15  O1P       40.6360   15.9940   11.8320 O.3   600  6PG600     -0.1145
     16  O2P       39.1950   17.5160   10.3860 O.2   600  6PG600     -0.2224
     17  O3P       39.9210   18.2700   12.6720 O.3   600  6PG600     -0.1145
@<TRIPOS>BOND
     1    16    14    2
     2    15    14    1
     3    14    13    1
     4    14    17    1
     5    13     6    1
     6     6     5    1
     7     5    12    1
     8     5     4    1
     9    11     4    1
    10     4     3    1
    11     3    10    1
    12     3     2    1
    13     8     1   ar
    14     7     1   ar
    15     1     2    1
    16     9     2    1
