@<TRIPOS>MOLECULE
1j3y_HEM_A_1.pdb
 43 50 0 0 0
SMALL
GASTEIGER

@<TRIPOS>ATOM
      1 FE         14.0370   64.2120  -16.8380 Fe    142  HEM142      0.0000
      2  CHA       15.3440   62.6900  -19.6980 C.2   142  HEM142      0.0000
      3  CHB       11.1930   62.1370  -17.1710 C.2   142  HEM142      0.0000
      4  CHC       12.4180   65.9350  -14.3850 C.2   142  HEM142      0.0000
      5  CHD       16.3260   66.7910  -17.1450 C.2   142  HEM142      0.0000
      6  NA        13.4000   62.7240  -18.1950 N.2   142  HEM142      0.0000
      7  C1A       14.1320   62.2210  -19.2410 C.2   142  HEM142      0.0000
      8  C2A       13.3940   61.1350  -19.8240 C.2   142  HEM142      0.0000
      9  C3A       12.2510   60.9820  -19.1460 C.2   142  HEM142      0.0000
     10  C4A       12.2250   61.9720  -18.0800 C.2   142  HEM142      0.0000
     11  CMA       11.1710   59.9110  -19.4310 C.3   142  HEM142      0.0000
     12  CAA       13.8900   60.3100  -21.0330 C.3   142  HEM142      0.0000
     13  CBA       14.6550   59.1300  -20.4550 C.3   142  HEM142      0.0000
     14  CGA       15.3020   58.2900  -21.5190 C.2   142  HEM142      0.0000
     15  O1A       15.1450   57.0480  -21.4440 O.co2 142  HEM142      0.0000
     16  O2A       15.9800   58.8390  -22.4280 O.co2 142  HEM142      0.0000
     17  NB        12.0930   64.0680  -15.9760 N.ar  142  HEM142      0.0000
     18  C1B       11.1200   63.1160  -16.2030 C.ar  142  HEM142      0.0000
     19  C2B       10.0620   63.3370  -15.2460 C.ar  142  HEM142      0.0000
     20  C3B       10.4200   64.3820  -14.4670 C.ar  142  HEM142      0.0000
     21  C4B       11.6930   64.8820  -14.9260 C.ar  142  HEM142      0.0000
     22  CMB        8.7960   62.4590  -15.1280 C.3   142  HEM142      0.0000
     23  CAB        9.6640   65.0360  -13.3020 C.2   142  HEM142      0.0000
     24  CBB        8.3350   65.0300  -13.2110 C.2   142  HEM142      0.0000
     25  NC        14.3410   66.0210  -15.9200 N.2   142  HEM142      0.0000
     26  C1C       13.5650   66.5290  -14.9110 C.2   142  HEM142      0.0000
     27  C2C       14.0740   67.8490  -14.5720 C.2   142  HEM142      0.0000
     28  C3C       15.1490   68.1040  -15.3520 C.2   142  HEM142      0.0000
     29  C4C       15.3380   66.9470  -16.1980 C.2   142  HEM142      0.0000
     30  CMC       13.4500   68.7530  -13.4860 C.3   142  HEM142      0.0000
     31  CAC       16.0790   69.3490  -15.4100 C.2   142  HEM142      0.0000
     32  CBC       15.5430   70.5860  -15.2900 C.2   142  HEM142      0.0000
     33  ND        15.5600   64.6820  -18.2230 N.ar  142  HEM142      0.0000
     34  C1D       16.4180   65.7840  -18.0810 C.ar  142  HEM142      0.0000
     35  C2D       17.4590   65.6910  -19.0780 C.ar  142  HEM142      0.0000
     36  C3D       17.1490   64.4380  -19.8710 C.ar  142  HEM142      0.0000
     37  C4D       15.9610   63.8540  -19.2760 C.ar  142  HEM142      0.0000
     38  CMD       18.6340   66.6750  -19.3110 C.3   142  HEM142      0.0000
     39  CAD       17.9960   63.9310  -21.0580 C.3   142  HEM142      0.0000
     40  CBD       17.5520   64.6830  -22.3170 C.3   142  HEM142      0.0000
     41  CGD       18.4650   64.2410  -23.4490 C.2   142  HEM142      0.0000
     42  O1D       18.1020   63.3020  -24.1840 O.co2 142  HEM142      0.0000
     43  O2D       19.5790   64.7960  -23.5780 O.co2 142  HEM142      0.0000
@<TRIPOS>BOND
     1    42    41   ar
     2    43    41   ar
     3    41    40    1
     4    16    14   ar
     5    40    39    1
     6    14    15   ar
     7    14    13    1
     8    39    36    1
     9    12    13    1
    10    12     8    1
    11    36    37   ar
    12    36    35   ar
    13     8     7    1
    14     8     9    2
    15     2    37    2
    16     2     7    1
    17    11     9    1
    18    38    35    1
    19    37    33   ar
    20     7     6    2
    21     9    10    1
    22    35    34   ar
    23    33    34   ar
    24    33     1    1
    25     6    10    1
    26     6     1    1
    27    34     5    2
    28    10     3    2
    29     3    18    1
    30     5    29    1
    31     1    17    1
    32     1    25    1
    33    18    17   ar
    34    18    19   ar
    35    29    25    2
    36    29    28    1
    37    17    21   ar
    38    25    26    1
    39    31    28    1
    40    31    32    2
    41    28    27    2
    42    19    22    1
    43    19    20   ar
    44    21    20   ar
    45    21     4    1
    46    26    27    1
    47    26     4    2
    48    27    30    1
    49    20    23    1
    50    23    24    2
