@<TRIPOS>MOLECULE
1j3y_HNI_B_1.pdb
 43 50 0 0 0
SMALL
GASTEIGER

@<TRIPOS>ATOM
      1 NI         -0.3600   88.6320    5.0830 Ni    147  HNI147      0.0000
      2  CHA       -2.2840   90.2770    7.4080 C.2   147  HNI147      0.0000
      3  CHB       -0.6640   91.3240    2.9240 C.2   147  HNI147      0.0000
      4  CHC        0.7410   86.7530    2.4200 C.2   147  HNI147      0.0000
      5  CHD       -0.5170   85.7580    6.9870 C.2   147  HNI147      0.0000
      6  NA        -1.2710   90.4210    5.1540 N.ar  147  HNI147      0.0000
      7  C1A       -1.9960   90.9440    6.2050 C.ar  147  HNI147      0.0000
      8  C2A       -2.3720   92.3200    5.9260 C.ar  147  HNI147      0.0000
      9  C3A       -2.0230   92.5780    4.6360 C.ar  147  HNI147      0.0000
     10  C4A       -1.2970   91.4040    4.1610 C.ar  147  HNI147      0.0000
     11  CMA       -2.2550   93.8490    3.7960 C.3   147  HNI147      0.0000
     12  CAA       -3.1010   93.2450    6.8990 C.3   147  HNI147      0.0000
     13  CBA       -2.0780   93.8370    7.8670 C.3   147  HNI147      0.0000
     14  CGA       -2.6130   94.3090    9.2040 C.2   147  HNI147      0.0000
     15  O1A       -2.2240   95.4280    9.6030 O.co2 147  HNI147      0.0000
     16  O2A       -3.4200   93.5840    9.8630 O.co2 147  HNI147      0.0000
     17  NB         0.0740   88.9670    3.1830 N.2   147  HNI147      0.0000
     18  C1B        0.0120   90.2040    2.4590 C.2   147  HNI147      0.0000
     19  C2B        0.5420   90.1000    1.1230 C.2   147  HNI147      0.0000
     20  C3B        0.9300   88.7850    0.9530 C.2   147  HNI147      0.0000
     21  C4B        0.5610   88.1100    2.1920 C.2   147  HNI147      0.0000
     22  CMB        0.6450   91.2710    0.1490 C.3   147  HNI147      0.0000
     23  CAB        1.4670   88.1460   -0.1850 C.3   147  HNI147      0.0000
     24  CBB        1.3040   88.4650   -1.5310 C.3   147  HNI147      0.0000
     25  NC         0.0620   86.6570    4.8000 N.ar  147  HNI147      0.0000
     26  C1C        0.4280   86.0810    3.5870 C.ar  147  HNI147      0.0000
     27  C2C        0.6020   84.6430    3.7180 C.ar  147  HNI147      0.0000
     28  C3C        0.3710   84.3470    5.0600 C.ar  147  HNI147      0.0000
     29  C4C        0.0120   85.6230    5.7110 C.ar  147  HNI147      0.0000
     30  CMC        1.0580   83.7440    2.5740 C.3   147  HNI147      0.0000
     31  CAC        0.3940   83.1030    5.7360 C.3   147  HNI147      0.0000
     32  CBC       -0.1410   81.8960    5.2640 C.3   147  HNI147      0.0000
     33  ND        -1.1490   88.1750    6.8020 N.2   147  HNI147      0.0000
     34  C1D       -1.1200   86.9260    7.4790 C.2   147  HNI147      0.0000
     35  C2D       -1.6840   87.0130    8.8140 C.2   147  HNI147      0.0000
     36  C3D       -2.2480   88.2540    8.9070 C.2   147  HNI147      0.0000
     37  C4D       -1.8990   88.9620    7.6970 C.2   147  HNI147      0.0000
     38  CMD       -1.7320   85.8900    9.8570 C.3   147  HNI147      0.0000
     39  CAD       -3.1320   88.7430   10.0550 C.3   147  HNI147      0.0000
     40  CBD       -4.5320   88.1660    9.9260 C.3   147  HNI147      0.0000
     41  CGD       -5.4580   88.5400   11.0500 C.2   147  HNI147      0.0000
     42  O1D       -5.8850   87.6330   11.8000 O.co2 147  HNI147      0.0000
     43  O2D       -5.7730   89.7370   11.1670 O.co2 147  HNI147      0.0000
@<TRIPOS>BOND
     1    24    23    1
     2    23    20    1
     3    22    19    1
     4    20    19    2
     5    20    21    1
     6    19    18    1
     7    21     4    2
     8    21    17    1
     9     4    26    1
    10    18     3    1
    11    18    17    2
    12    30    27    1
    13     3    10    2
    14    17     1    1
    15    26    27   ar
    16    26    25   ar
    17    27    28   ar
    18    11     9    1
    19    10     9   ar
    20    10     6   ar
    21     9     8   ar
    22    25     1    1
    23    25    29   ar
    24    28    29   ar
    25    28    31    1
    26     1     6    1
    27     1    33    1
    28     6     7   ar
    29    32    31    1
    30    29     5    1
    31     8     7   ar
    32     8    12    1
    33     7     2    2
    34    33    34    1
    35    33    37    2
    36    12    13    1
    37     5    34    2
    38     2    37    1
    39    34    35    1
    40    37    36    1
    41    13    14    1
    42    35    36    2
    43    35    38    1
    44    36    39    1
    45    14    15   ar
    46    14    16   ar
    47    40    39    1
    48    40    41    1
    49    41    43   ar
    50    41    42   ar
