@<TRIPOS>MOLECULE
1j3z_HNI_B_1.pdb
 43 50 0 0 0
SMALL
GASTEIGER

@<TRIPOS>ATOM
      1 NI         -0.1370   88.5330    4.8820 Ni    147  HNI147      0.0000
      2  CHA       -1.9890   90.1660    7.2630 C.2   147  HNI147      0.0000
      3  CHB       -0.4840   91.2410    2.7300 C.2   147  HNI147      0.0000
      4  CHC        0.9730   86.6630    2.2250 C.2   147  HNI147      0.0000
      5  CHD       -0.2720   85.6400    6.7850 C.2   147  HNI147      0.0000
      6  NA        -1.0530   90.3140    4.9730 N.ar  147  HNI147      0.0000
      7  C1A       -1.7410   90.8390    6.0620 C.ar  147  HNI147      0.0000
      8  C2A       -2.2110   92.1800    5.7790 C.ar  147  HNI147      0.0000
      9  C3A       -1.8560   92.4680    4.4880 C.ar  147  HNI147      0.0000
     10  C4A       -1.1060   91.3090    3.9880 C.ar  147  HNI147      0.0000
     11  CMA       -2.1830   93.7190    3.6570 C.3   147  HNI147      0.0000
     12  CAA       -2.9070   93.0820    6.8000 C.3   147  HNI147      0.0000
     13  CBA       -1.8850   93.7200    7.7320 C.3   147  HNI147      0.0000
     14  CGA       -2.4390   94.1610    9.0720 C.2   147  HNI147      0.0000
     15  O1A       -2.0320   95.2840    9.4450 O.co2 147  HNI147      0.0000
     16  O2A       -3.2470   93.4380    9.7130 O.co2 147  HNI147      0.0000
     17  NB         0.2930   88.8820    2.9700 N.2   147  HNI147      0.0000
     18  C1B        0.1900   90.1150    2.2400 C.2   147  HNI147      0.0000
     19  C2B        0.7670   90.0350    0.9090 C.2   147  HNI147      0.0000
     20  C3B        1.1590   88.7220    0.7340 C.2   147  HNI147      0.0000
     21  C4B        0.8340   88.0340    2.0030 C.2   147  HNI147      0.0000
     22  CMB        0.9380   91.2130   -0.0610 C.3   147  HNI147      0.0000
     23  CAB        1.7540   88.1360   -0.4130 C.3   147  HNI147      0.0000
     24  CBB        1.4840   88.4550   -1.7420 C.3   147  HNI147      0.0000
     25  NC         0.2770   86.5630    4.5720 N.ar  147  HNI147      0.0000
     26  C1C        0.6510   85.9920    3.3810 C.ar  147  HNI147      0.0000
     27  C2C        0.8590   84.5490    3.5220 C.ar  147  HNI147      0.0000
     28  C3C        0.5700   84.2420    4.8320 C.ar  147  HNI147      0.0000
     29  C4C        0.2190   85.5240    5.4910 C.ar  147  HNI147      0.0000
     30  CMC        1.2840   83.6410    2.3750 C.3   147  HNI147      0.0000
     31  CAC        0.6660   83.0120    5.5080 C.3   147  HNI147      0.0000
     32  CBC        0.1230   81.8090    5.0310 C.3   147  HNI147      0.0000
     33  ND        -0.9340   88.0260    6.6060 N.2   147  HNI147      0.0000
     34  C1D       -0.8940   86.7910    7.2860 C.2   147  HNI147      0.0000
     35  C2D       -1.4590   86.8650    8.6280 C.2   147  HNI147      0.0000
     36  C3D       -2.0090   88.1100    8.7420 C.2   147  HNI147      0.0000
     37  C4D       -1.6710   88.8150    7.5200 C.2   147  HNI147      0.0000
     38  CMD       -1.4570   85.7830    9.7050 C.3   147  HNI147      0.0000
     39  CAD       -2.8270   88.6090    9.9360 C.3   147  HNI147      0.0000
     40  CBD       -4.2200   87.9900    9.8520 C.3   147  HNI147      0.0000
     41  CGD       -5.1520   88.3570   10.9770 C.2   147  HNI147      0.0000
     42  O1D       -5.5470   87.4410   11.7300 O.co2 147  HNI147      0.0000
     43  O2D       -5.5170   89.5400   11.1300 O.co2 147  HNI147      0.0000
@<TRIPOS>BOND
     1    24    23    1
     2    23    20    1
     3    22    19    1
     4    20    19    2
     5    20    21    1
     6    19    18    1
     7    21     4    2
     8    21    17    1
     9     4    26    1
    10    18     3    1
    11    18    17    2
    12    30    27    1
    13     3    10    2
    14    17     1    1
    15    26    27   ar
    16    26    25   ar
    17    27    28   ar
    18    11     9    1
    19    10     9   ar
    20    10     6   ar
    21     9     8   ar
    22    25     1    1
    23    25    29   ar
    24    28    29   ar
    25    28    31    1
    26     1     6    1
    27     1    33    1
    28     6     7   ar
    29    32    31    1
    30    29     5    1
    31     8     7   ar
    32     8    12    1
    33     7     2    2
    34    33    34    1
    35    33    37    2
    36     5    34    2
    37    12    13    1
    38     2    37    1
    39    34    35    1
    40    37    36    1
    41    13    14    1
    42    35    36    2
    43    35    38    1
    44    36    39    1
    45    14    15   ar
    46    14    16   ar
    47    40    39    1
    48    40    41    1
    49    41    43   ar
    50    41    42   ar
