@<TRIPOS>MOLECULE
1j3z_HEM_A_1.pdb
 43 50 0 0 0
SMALL
GASTEIGER

@<TRIPOS>ATOM
      1 FE         13.6720   64.1550  -17.1590 Fe    142  HEM142      0.0000
      2  CHA       15.0990   62.4980  -19.8070 C.2   142  HEM142      0.0000
      3  CHB       10.9760   61.9620  -17.3310 C.2   142  HEM142      0.0000
      4  CHC       12.2560   65.7100  -14.4780 C.2   142  HEM142      0.0000
      5  CHD       16.0770   66.5540  -17.3110 C.2   142  HEM142      0.0000
      6  NA        13.1710   62.5530  -18.3230 N.2   142  HEM142      0.0000
      7  C1A       13.8870   62.0330  -19.3750 C.2   142  HEM142      0.0000
      8  C2A       13.1380   60.9440  -19.9750 C.2   142  HEM142      0.0000
      9  C3A       12.0030   60.8060  -19.2850 C.2   142  HEM142      0.0000
     10  C4A       12.0030   61.8010  -18.2410 C.2   142  HEM142      0.0000
     11  CMA       10.8540   59.7870  -19.5110 C.3   142  HEM142      0.0000
     12  CAA       13.5850   60.1060  -21.1940 C.3   142  HEM142      0.0000
     13  CBA       14.2290   58.8230  -20.6840 C.3   142  HEM142      0.0000
     14  CGA       14.9820   58.0660  -21.7540 C.2   142  HEM142      0.0000
     15  O1A       15.2460   56.8590  -21.5200 O.co2 142  HEM142      0.0000
     16  O2A       15.3350   58.6330  -22.8250 O.co2 142  HEM142      0.0000
     17  NB        11.9450   63.8790  -16.1080 N.ar  142  HEM142      0.0000
     18  C1B       10.9770   62.9270  -16.3420 C.ar  142  HEM142      0.0000
     19  C2B        9.9560   63.1090  -15.3430 C.ar  142  HEM142      0.0000
     20  C3B       10.3030   64.1380  -14.5550 C.ar  142  HEM142      0.0000
     21  C4B       11.5670   64.6490  -15.0310 C.ar  142  HEM142      0.0000
     22  CMB        8.6930   62.2260  -15.2470 C.3   142  HEM142      0.0000
     23  CAB        9.5650   64.7420  -13.3470 C.2   142  HEM142      0.0000
     24  CBB        8.2340   64.7980  -13.2560 C.2   142  HEM142      0.0000
     25  NC        14.1030   65.7690  -16.0770 N.2   142  HEM142      0.0000
     26  C1C       13.3610   66.2970  -15.0380 C.2   142  HEM142      0.0000
     27  C2C       13.9220   67.5810  -14.6590 C.2   142  HEM142      0.0000
     28  C3C       14.9690   67.8140  -15.4760 C.2   142  HEM142      0.0000
     29  C4C       15.1020   66.6820  -16.3570 C.2   142  HEM142      0.0000
     30  CMC       13.3580   68.4850  -13.5340 C.3   142  HEM142      0.0000
     31  CAC       15.9310   69.0210  -15.5200 C.2   142  HEM142      0.0000
     32  CBC       15.4540   70.2710  -15.4230 C.2   142  HEM142      0.0000
     33  ND        15.3060   64.4570  -18.3460 N.ar  142  HEM142      0.0000
     34  C1D       16.1620   65.5460  -18.2230 C.ar  142  HEM142      0.0000
     35  C2D       17.1910   65.4510  -19.2040 C.ar  142  HEM142      0.0000
     36  C3D       16.8840   64.2070  -19.9990 C.ar  142  HEM142      0.0000
     37  C4D       15.6950   63.6570  -19.3980 C.ar  142  HEM142      0.0000
     38  CMD       18.3490   66.4340  -19.4100 C.3   142  HEM142      0.0000
     39  CAD       17.6810   63.6360  -21.1980 C.3   142  HEM142      0.0000
     40  CBD       17.2690   64.3870  -22.4710 C.3   142  HEM142      0.0000
     41  CGD       18.0760   63.8480  -23.6350 C.2   142  HEM142      0.0000
     42  O1D       17.6800   62.8200  -24.2360 O.co2 142  HEM142      0.0000
     43  O2D       19.1330   64.4260  -23.9530 O.co2 142  HEM142      0.0000
@<TRIPOS>BOND
     1    42    41   ar
     2    43    41   ar
     3    41    40    1
     4    16    14   ar
     5    40    39    1
     6    14    15   ar
     7    14    13    1
     8    39    36    1
     9    12    13    1
    10    12     8    1
    11    36    37   ar
    12    36    35   ar
    13     8     7    1
    14     8     9    2
    15     2    37    2
    16     2     7    1
    17    11     9    1
    18    38    35    1
    19    37    33   ar
    20     7     6    2
    21     9    10    1
    22    35    34   ar
    23    33    34   ar
    24    33     1    1
    25     6    10    1
    26     6     1    1
    27    10     3    2
    28    34     5    2
    29     3    18    1
    30     5    29    1
    31     1    17    1
    32     1    25    1
    33    29    25    2
    34    29    28    1
    35    18    17   ar
    36    18    19   ar
    37    17    21   ar
    38    25    26    1
    39    31    28    1
    40    31    32    2
    41    28    27    2
    42    19    22    1
    43    19    20   ar
    44    26    27    1
    45    26     4    2
    46    21    20   ar
    47    21     4    1
    48    27    30    1
    49    20    23    1
    50    23    24    2
