@<TRIPOS>MOLECULE
1j40_HNI_A_1.pdb
 43 50 0 0 0
SMALL
GASTEIGER

@<TRIPOS>ATOM
      1 NI         13.4580   63.9730  -17.0420 Ni    142  HNI142      0.0000
      2  CHA       15.0290   62.2980  -19.5830 C.2   142  HNI142      0.0000
      3  CHB       11.0410   61.5260  -16.8800 C.2   142  HNI142      0.0000
      4  CHC       12.0020   65.5530  -14.3710 C.2   142  HNI142      0.0000
      5  CHD       15.7420   66.5010  -17.2620 C.2   142  HNI142      0.0000
      6  NA        13.1570   62.2500  -17.9760 N.2   142  HNI142      0.0000
      7  C1A       13.8810   61.7220  -19.0220 C.2   142  HNI142      0.0000
      8  C2A       13.2190   60.5580  -19.5640 C.2   142  HNI142      0.0000
      9  C3A       12.1110   60.3370  -18.8250 C.2   142  HNI142      0.0000
     10  C4A       12.0720   61.3880  -17.8200 C.2   142  HNI142      0.0000
     11  CMA       11.0380   59.2570  -19.0280 C.3   142  HNI142      0.0000
     12  CAA       13.7760   59.6780  -20.6800 C.3   142  HNI142      0.0000
     13  CBA       14.7060   58.6600  -20.0420 C.3   142  HNI142      0.0000
     14  CGA       15.1680   57.5640  -20.9840 C.2   142  HNI142      0.0000
     15  O1A       14.8400   56.3870  -20.7360 O.co2 142  HNI142      0.0000
     16  O2A       15.8660   57.8770  -21.9680 O.co2 142  HNI142      0.0000
     17  NB        11.8970   63.6180  -15.8720 N.ar  142  HNI142      0.0000
     18  C1B       10.9510   62.5730  -15.9720 C.ar  142  HNI142      0.0000
     19  C2B        9.9260   62.6510  -14.9720 C.ar  142  HNI142      0.0000
     20  C3B       10.2120   63.7680  -14.2210 C.ar  142  HNI142      0.0000
     21  C4B       11.4390   64.3470  -14.7800 C.ar  142  HNI142      0.0000
     22  CMB        8.8550   61.5640  -14.7990 C.3   142  HNI142      0.0000
     23  CAB        9.5340   64.2650  -13.0910 C.3   142  HNI142      0.0000
     24  CBB        8.1540   64.4320  -12.9280 C.3   142  HNI142      0.0000
     25  NC        13.8330   65.6460  -15.9820 N.2   142  HNI142      0.0000
     26  C1C       13.0710   66.1800  -14.9720 C.2   142  HNI142      0.0000
     27  C2C       13.5650   67.4870  -14.5790 C.2   142  HNI142      0.0000
     28  C3C       14.5750   67.8090  -15.4670 C.2   142  HNI142      0.0000
     29  C4C       14.7960   66.6010  -16.2570 C.2   142  HNI142      0.0000
     30  CMC       13.0730   68.2630  -13.3710 C.3   142  HNI142      0.0000
     31  CAC       15.3820   68.9610  -15.5520 C.3   142  HNI142      0.0000
     32  CBC       14.9620   70.2800  -15.3640 C.3   142  HNI142      0.0000
     33  ND        15.0270   64.3350  -18.1490 N.ar  142  HNI142      0.0000
     34  C1D       15.8570   65.4410  -18.1370 C.ar  142  HNI142      0.0000
     35  C2D       16.9410   65.3230  -19.0700 C.ar  142  HNI142      0.0000
     36  C3D       16.6970   64.1760  -19.7670 C.ar  142  HNI142      0.0000
     37  C4D       15.5650   63.5290  -19.1580 C.ar  142  HNI142      0.0000
     38  CMD       18.0880   66.3110  -19.2790 C.3   142  HNI142      0.0000
     39  CAD       17.4270   63.7070  -21.0190 C.3   142  HNI142      0.0000
     40  CBD       16.7990   64.3020  -22.2680 C.3   142  HNI142      0.0000
     41  CGD       17.5400   63.9120  -23.5260 C.2   142  HNI142      0.0000
     42  O1D       16.8920   63.4440  -24.4710 O.co2 142  HNI142      0.0000
     43  O2D       18.7630   64.0930  -23.5770 O.co2 142  HNI142      0.0000
@<TRIPOS>BOND
     1    42    41   ar
     2    43    41   ar
     3    41    40    1
     4    40    39    1
     5    16    14   ar
     6    39    36    1
     7    14    15   ar
     8    14    13    1
     9    12    13    1
    10    12     8    1
    11    36    37   ar
    12    36    35   ar
    13     2    37    2
    14     2     7    1
    15     8     7    1
    16     8     9    2
    17    38    35    1
    18    37    33   ar
    19    35    34   ar
    20    11     9    1
    21     7     6    2
    22     9    10    1
    23    33    34   ar
    24    33     1    1
    25    34     5    2
    26     6    10    1
    27     6     1    1
    28    10     3    2
    29     5    29    1
    30     1    25    1
    31     1    17    1
    32     3    18    1
    33    29    25    2
    34    29    28    1
    35    25    26    1
    36    18    17   ar
    37    18    19   ar
    38    17    21   ar
    39    31    28    1
    40    31    32    1
    41    28    27    2
    42    26    27    1
    43    26     4    2
    44    19    22    1
    45    19    20   ar
    46    21     4    1
    47    21    20   ar
    48    27    30    1
    49    20    23    1
    50    23    24    1
