@<TRIPOS>MOLECULE
1j40_HEM_B_1.pdb
 43 50 0 0 0
SMALL
GASTEIGER

@<TRIPOS>ATOM
      1 FE         -0.1450   88.2940    4.8650 Fe    147  HEM147      0.0000
      2  CHA       -2.0250   89.9840    7.2190 C.2   147  HEM147      0.0000
      3  CHB       -0.5300   90.9590    2.6910 C.2   147  HEM147      0.0000
      4  CHC        1.1930   86.4530    2.3330 C.2   147  HEM147      0.0000
      5  CHD        0.0230   85.5310    6.9410 C.2   147  HEM147      0.0000
      6  NA        -1.1050   90.1020    4.9340 N.ar  147  HEM147      0.0000
      7  C1A       -1.8010   90.6110    6.0120 C.ar  147  HEM147      0.0000
      8  C2A       -2.2740   91.9320    5.6700 C.ar  147  HEM147      0.0000
      9  C3A       -1.8790   92.2010    4.4240 C.ar  147  HEM147      0.0000
     10  C4A       -1.1330   91.0680    3.9310 C.ar  147  HEM147      0.0000
     11  CMA       -2.1530   93.4990    3.6370 C.3   147  HEM147      0.0000
     12  CAA       -3.0730   92.8620    6.6050 C.3   147  HEM147      0.0000
     13  CBA       -2.0230   93.5480    7.4730 C.3   147  HEM147      0.0000
     14  CGA       -2.5690   94.0690    8.7780 C.2   147  HEM147      0.0000
     15  O1A       -2.1940   95.2040    9.1620 O.co2 147  HEM147      0.0000
     16  O2A       -3.3490   93.3630    9.4670 O.co2 147  HEM147      0.0000
     17  NB         0.2470   88.6430    2.8920 N.2   147  HEM147      0.0000
     18  C1B        0.0980   89.8310    2.1990 C.2   147  HEM147      0.0000
     19  C2B        0.6790   89.6770    0.8940 C.2   147  HEM147      0.0000
     20  C3B        1.1510   88.4370    0.8050 C.2   147  HEM147      0.0000
     21  C4B        0.8730   87.7570    2.0540 C.2   147  HEM147      0.0000
     22  CMB        0.7290   90.8060   -0.1610 C.3   147  HEM147      0.0000
     23  CAB        1.8550   87.8090   -0.4110 C.2   147  HEM147      0.0000
     24  CBB        1.4970   88.1150   -1.6660 C.2   147  HEM147      0.0000
     25  NC         0.5420   86.3810    4.7060 N.ar  147  HEM147      0.0000
     26  C1C        0.9590   85.7950    3.5210 C.ar  147  HEM147      0.0000
     27  C2C        1.1530   84.3810    3.7560 C.ar  147  HEM147      0.0000
     28  C3C        0.8250   84.1290    5.0360 C.ar  147  HEM147      0.0000
     29  C4C        0.4310   85.3710    5.6500 C.ar  147  HEM147      0.0000
     30  CMC        1.6190   83.4120    2.6550 C.3   147  HEM147      0.0000
     31  CAC        0.8550   82.8110    5.8200 C.2   147  HEM147      0.0000
     32  CBC        0.6570   81.6180    5.2580 C.2   147  HEM147      0.0000
     33  ND        -0.8820   87.8510    6.7330 N.2   147  HEM147      0.0000
     34  C1D       -0.6640   86.6390    7.4000 C.2   147  HEM147      0.0000
     35  C2D       -1.3490   86.6650    8.6710 C.2   147  HEM147      0.0000
     36  C3D       -1.9780   88.0330    8.7690 C.2   147  HEM147      0.0000
     37  C4D       -1.6470   88.6990    7.5390 C.2   147  HEM147      0.0000
     38  CMD       -1.4070   85.5640    9.7470 C.3   147  HEM147      0.0000
     39  CAD       -2.8370   88.5470    9.9370 C.3   147  HEM147      0.0000
     40  CBD       -4.1740   87.7910    9.8080 C.3   147  HEM147      0.0000
     41  CGD       -5.1000   88.1970   10.9100 C.2   147  HEM147      0.0000
     42  O1D       -5.5100   87.3220   11.7110 O.co2 147  HEM147      0.0000
     43  O2D       -5.4400   89.4040   10.9880 O.co2 147  HEM147      0.0000
@<TRIPOS>BOND
     1    24    23    2
     2    23    20    1
     3    22    19    1
     4    20    19    2
     5    20    21    1
     6    19    18    1
     7    21     4    2
     8    21    17    1
     9    18     3    1
    10    18    17    2
    11     4    26    1
    12    30    27    1
    13     3    10    2
    14    17     1    1
    15    26    27   ar
    16    26    25   ar
    17    11     9    1
    18    27    28   ar
    19    10     9   ar
    20    10     6   ar
    21     9     8   ar
    22    25     1    1
    23    25    29   ar
    24     1     6    1
    25     1    33    1
    26     6     7   ar
    27    28    29   ar
    28    28    31    1
    29    32    31    2
    30    29     5    1
    31     8     7   ar
    32     8    12    1
    33     7     2    2
    34    12    13    1
    35    33    34    1
    36    33    37    2
    37     5    34    2
    38     2    37    1
    39    34    35    1
    40    13    14    1
    41    37    36    1
    42    35    36    2
    43    35    38    1
    44    36    39    1
    45    14    15   ar
    46    14    16   ar
    47    40    39    1
    48    40    41    1
    49    41    43   ar
    50    41    42   ar
