@<TRIPOS>MOLECULE
1j41_HNI_A_1.pdb
 43 50 0 0 0
SMALL
GASTEIGER

@<TRIPOS>ATOM
      1 NI         13.4230   64.0010  -17.0730 Ni    142  HNI142      0.0000
      2  CHA       14.9760   62.3180  -19.6120 C.2   142  HNI142      0.0000
      3  CHB       10.9690   61.5790  -16.9610 C.2   142  HNI142      0.0000
      4  CHC       11.9920   65.5630  -14.4050 C.2   142  HNI142      0.0000
      5  CHD       15.6650   66.5410  -17.3410 C.2   142  HNI142      0.0000
      6  NA        13.1050   62.2730  -17.9980 N.2   142  HNI142      0.0000
      7  C1A       13.8330   61.7400  -19.0430 C.2   142  HNI142      0.0000
      8  C2A       13.1820   60.5710  -19.5930 C.2   142  HNI142      0.0000
      9  C3A       12.0520   60.3720  -18.8740 C.2   142  HNI142      0.0000
     10  C4A       12.0070   61.4260  -17.8780 C.2   142  HNI142      0.0000
     11  CMA       10.9820   59.2880  -19.0640 C.3   142  HNI142      0.0000
     12  CAA       13.7520   59.6970  -20.7120 C.3   142  HNI142      0.0000
     13  CBA       14.6160   58.6170  -20.0780 C.3   142  HNI142      0.0000
     14  CGA       15.0980   57.5180  -21.0090 C.2   142  HNI142      0.0000
     15  O1A       14.8110   56.3340  -20.7370 O.co2 142  HNI142      0.0000
     16  O2A       15.7870   57.8380  -22.0000 O.co2 142  HNI142      0.0000
     17  NB        11.8680   63.6410  -15.9150 N.ar  142  HNI142      0.0000
     18  C1B       10.9150   62.6050  -16.0220 C.ar  142  HNI142      0.0000
     19  C2B        9.9040   62.6930  -15.0070 C.ar  142  HNI142      0.0000
     20  C3B       10.1990   63.8030  -14.2440 C.ar  142  HNI142      0.0000
     21  C4B       11.4200   64.3670  -14.8160 C.ar  142  HNI142      0.0000
     22  CMB        8.7750   61.6710  -14.8530 C.3   142  HNI142      0.0000
     23  CAB        9.5280   64.3170  -13.1170 C.3   142  HNI142      0.0000
     24  CBB        8.1500   64.4650  -12.9700 C.3   142  HNI142      0.0000
     25  NC        13.8040   65.6650  -16.0170 N.2   142  HNI142      0.0000
     26  C1C       13.0930   66.1650  -14.9620 C.2   142  HNI142      0.0000
     27  C2C       13.5770   67.4880  -14.5980 C.2   142  HNI142      0.0000
     28  C3C       14.5410   67.8380  -15.5230 C.2   142  HNI142      0.0000
     29  C4C       14.7350   66.6350  -16.3270 C.2   142  HNI142      0.0000
     30  CMC       13.0950   68.2620  -13.3860 C.3   142  HNI142      0.0000
     31  CAC       15.3470   68.9960  -15.5970 C.3   142  HNI142      0.0000
     32  CBC       14.9600   70.3120  -15.3300 C.3   142  HNI142      0.0000
     33  ND        14.9980   64.3320  -18.1720 N.ar  142  HNI142      0.0000
     34  C1D       15.8440   65.4350  -18.1460 C.ar  142  HNI142      0.0000
     35  C2D       16.8980   65.3440  -19.1110 C.ar  142  HNI142      0.0000
     36  C3D       16.6630   64.1960  -19.8080 C.ar  142  HNI142      0.0000
     37  C4D       15.5270   63.5460  -19.1980 C.ar  142  HNI142      0.0000
     38  CMD       18.0040   66.3670  -19.3590 C.3   142  HNI142      0.0000
     39  CAD       17.4060   63.7400  -21.0560 C.3   142  HNI142      0.0000
     40  CBD       16.7380   64.3140  -22.2950 C.3   142  HNI142      0.0000
     41  CGD       17.4300   63.9350  -23.5780 C.2   142  HNI142      0.0000
     42  O1D       16.7260   63.5380  -24.5230 O.co2 142  HNI142      0.0000
     43  O2D       18.6600   64.0550  -23.6550 O.co2 142  HNI142      0.0000
@<TRIPOS>BOND
     1    42    41   ar
     2    43    41   ar
     3    41    40    1
     4    40    39    1
     5    16    14   ar
     6    39    36    1
     7    14    15   ar
     8    14    13    1
     9    12    13    1
    10    12     8    1
    11    36    37   ar
    12    36    35   ar
    13     2    37    2
    14     2     7    1
    15     8     7    1
    16     8     9    2
    17    38    35    1
    18    37    33   ar
    19    35    34   ar
    20    11     9    1
    21     7     6    2
    22     9    10    1
    23    33    34   ar
    24    33     1    1
    25    34     5    2
    26     6    10    1
    27     6     1    1
    28    10     3    2
    29     5    29    1
    30     1    25    1
    31     1    17    1
    32     3    18    1
    33    29    25    2
    34    29    28    1
    35    18    17   ar
    36    18    19   ar
    37    25    26    1
    38    17    21   ar
    39    31    28    1
    40    31    32    1
    41    28    27    2
    42    19    22    1
    43    19    20   ar
    44    26    27    1
    45    26     4    2
    46    21     4    1
    47    21    20   ar
    48    27    30    1
    49    20    23    1
    50    23    24    1
