@<TRIPOS>MOLECULE
1j41_HEM_B_1.pdb
 43 50 0 0 0
SMALL
GASTEIGER

@<TRIPOS>ATOM
      1 FE         -0.0330   88.3300    4.8830 Fe    147  HEM147      0.0000
      2  CHA       -2.0000   89.9970    7.1760 C.2   147  HEM147      0.0000
      3  CHB       -0.5320   90.9700    2.6610 C.2   147  HEM147      0.0000
      4  CHC        1.1790   86.4540    2.2590 C.2   147  HEM147      0.0000
      5  CHD       -0.0270   85.5210    6.8620 C.2   147  HEM147      0.0000
      6  NA        -1.0980   90.1070    4.9030 N.ar  147  HEM147      0.0000
      7  C1A       -1.7810   90.6230    5.9780 C.ar  147  HEM147      0.0000
      8  C2A       -2.2320   91.9660    5.6570 C.ar  147  HEM147      0.0000
      9  C3A       -1.8400   92.2360    4.4100 C.ar  147  HEM147      0.0000
     10  C4A       -1.1170   91.0820    3.9090 C.ar  147  HEM147      0.0000
     11  CMA       -2.0980   93.5500    3.6310 C.3   147  HEM147      0.0000
     12  CAA       -3.0000   92.9090    6.6050 C.3   147  HEM147      0.0000
     13  CBA       -1.9460   93.5630    7.4960 C.3   147  HEM147      0.0000
     14  CGA       -2.4880   94.0380    8.8230 C.2   147  HEM147      0.0000
     15  O1A       -2.1260   95.1630    9.2340 O.co2 147  HEM147      0.0000
     16  O2A       -3.2380   93.2990    9.5120 O.co2 147  HEM147      0.0000
     17  NB         0.2440   88.6460    2.8320 N.2   147  HEM147      0.0000
     18  C1B        0.0960   89.8450    2.1560 C.2   147  HEM147      0.0000
     19  C2B        0.6770   89.7060    0.8420 C.2   147  HEM147      0.0000
     20  C3B        1.1570   88.4570    0.7390 C.2   147  HEM147      0.0000
     21  C4B        0.8770   87.7710    1.9880 C.2   147  HEM147      0.0000
     22  CMB        0.7380   90.8490   -0.2080 C.3   147  HEM147      0.0000
     23  CAB        1.8580   87.8410   -0.4850 C.2   147  HEM147      0.0000
     24  CBB        1.4630   88.1270   -1.7310 C.2   147  HEM147      0.0000
     25  NC         0.5020   86.3650    4.6270 N.ar  147  HEM147      0.0000
     26  C1C        0.9490   85.7860    3.4460 C.ar  147  HEM147      0.0000
     27  C2C        1.1590   84.3700    3.6910 C.ar  147  HEM147      0.0000
     28  C3C        0.8120   84.1150    4.9690 C.ar  147  HEM147      0.0000
     29  C4C        0.4100   85.3590    5.5780 C.ar  147  HEM147      0.0000
     30  CMC        1.6420   83.3840    2.6070 C.3   147  HEM147      0.0000
     31  CAC        0.8460   82.8030    5.7680 C.2   147  HEM147      0.0000
     32  CBC        0.5710   81.6220    5.2070 C.2   147  HEM147      0.0000
     33  ND        -0.9230   87.8330    6.6970 N.2   147  HEM147      0.0000
     34  C1D       -0.7090   86.6200    7.3430 C.2   147  HEM147      0.0000
     35  C2D       -1.3650   86.6450    8.6240 C.2   147  HEM147      0.0000
     36  C3D       -1.9710   88.0290    8.7450 C.2   147  HEM147      0.0000
     37  C4D       -1.6470   88.7040    7.5070 C.2   147  HEM147      0.0000
     38  CMD       -1.4000   85.5260    9.6800 C.3   147  HEM147      0.0000
     39  CAD       -2.8060   88.5310    9.9290 C.3   147  HEM147      0.0000
     40  CBD       -4.1380   87.7550    9.8600 C.3   147  HEM147      0.0000
     41  CGD       -5.0560   88.1680   10.9780 C.2   147  HEM147      0.0000
     42  O1D       -5.4760   87.2960   11.7900 O.co2 147  HEM147      0.0000
     43  O2D       -5.3880   89.3760   11.0700 O.co2 147  HEM147      0.0000
@<TRIPOS>BOND
     1    24    23    2
     2    23    20    1
     3    22    19    1
     4    20    19    2
     5    20    21    1
     6    19    18    1
     7    21     4    2
     8    21    17    1
     9    18     3    1
    10    18    17    2
    11     4    26    1
    12    30    27    1
    13     3    10    2
    14    17     1    1
    15    26    27   ar
    16    26    25   ar
    17    11     9    1
    18    27    28   ar
    19    10     9   ar
    20    10     6   ar
    21     9     8   ar
    22    25     1    1
    23    25    29   ar
    24     1     6    1
    25     1    33    1
    26     6     7   ar
    27    28    29   ar
    28    28    31    1
    29    32    31    2
    30    29     5    1
    31     8     7   ar
    32     8    12    1
    33     7     2    2
    34    12    13    1
    35    33    34    1
    36    33    37    2
    37     5    34    2
    38     2    37    1
    39    34    35    1
    40    13    14    1
    41    37    36    1
    42    35    36    2
    43    35    38    1
    44    36    39    1
    45    14    15   ar
    46    14    16   ar
    47    40    39    1
    48    40    41    1
    49    41    43   ar
    50    41    42   ar
