@<TRIPOS>MOLECULE
1j49_NAD_A_1.pdb
 44 48 0 0 0
SMALL
GASTEIGER

@<TRIPOS>ATOM
      1  PA        58.3300   34.0370  118.5800 P.3   350  NAD350      0.2189
      2  O1A       57.2770   34.4560  119.5700 O.3   350  NAD350     -0.4371
      3  O2A       59.3080   32.9560  119.0260 O.2   350  NAD350     -0.5170
      4  O5B       59.0610   35.2870  117.9680 O.3   350  NAD350     -0.3112
      5  C5B       58.5070   36.6510  117.9640 C.3   350  NAD350      0.1813
      6  C4B       59.5510   37.6120  118.3360 C.3   350  NAD350      0.1821
      7  O4B       59.2600   38.9360  117.7120 O.3   350  NAD350     -0.3135
      8  C3B       59.7430   37.9740  119.8510 C.3   350  NAD350      0.2184
      9  O3B       61.1890   37.8270  120.1790 O.3   350  NAD350     -0.2174
     10  C2B       59.2370   39.3880  120.0420 C.3   350  NAD350      0.2570
     11  O2B       59.6850   40.1200  121.0740 O.3   350  NAD350     -0.2130
     12  C1B       59.6410   39.9240  118.6470 C.3   350  NAD350      0.3186
     13  N9A       58.9240   41.1050  118.2540 N.pl3 350  NAD350     -0.1439
     14  C8A       57.5880   41.4280  118.3700 C.3   350  NAD350      0.3377
     15  N7A       57.2440   42.6060  117.8840 N.2   350  NAD350     -0.2095
     16  C5A       58.3550   43.1480  117.4000 C.2   350  NAD350      0.2526
     17  C6A       58.5660   44.4420  116.7410 C.2   350  NAD350      0.4393
     18  N6A       57.6520   45.3520  116.5080 N.pl3 350  NAD350      0.2180
     19  N1A       59.8840   44.6370  116.3870 N.2   350  NAD350      0.0021
     20  C2A       60.8930   43.7850  116.5740 C.3   350  NAD350      0.5254
     21  N3A       60.7210   42.5420  117.1850 N.2   350  NAD350     -0.0055
     22  C4A       59.4310   42.2500  117.5990 C.2   350  NAD350      0.3518
     23  O3        57.5820   33.5300  117.2960 O.3   350  NAD350     -0.2703
     24  PN        58.1290   32.4040  116.1860 P.3   350  NAD350      0.2189
     25  O1N       59.4680   32.8510  115.8380 O.2   350  NAD350     -0.5170
     26  O2N       57.8100   31.0530  116.6610 O.3   350  NAD350     -0.4371
     27  O5D       57.1220   32.6920  114.9640 O.3   350  NAD350     -0.3112
     28  C5D       57.5110   33.7710  114.0180 C.3   350  NAD350      0.1813
     29  C4D       56.3340   34.0740  113.1910 C.3   350  NAD350      0.1799
     30  O4D       56.3470   32.9860  112.1180 O.3   350  NAD350     -0.3327
     31  C3D       54.9290   33.7680  113.8380 C.3   350  NAD350      0.2158
     32  O3D       54.5230   35.0140  114.3190 O.3   350  NAD350     -0.2175
     33  C2D       54.0140   33.1580  112.7630 C.3   350  NAD350      0.2309
     34  O2D       53.0610   34.0430  112.3120 O.3   350  NAD350     -0.2158
     35  C1D       55.0170   32.7140  111.6830 C.3   350  NAD350      0.2263
     36  N1N       54.9880   31.2620  111.1280 N.pl3 350  NAD350     -0.2787
     37  C2N       54.9150   31.1680  109.7380 C.3   350  NAD350      0.1244
     38  C3N       54.9100   29.8750  109.2860 C.2   350  NAD350      0.0544
     39  C7N       54.8330   29.7850  107.7110 C.2   350  NAD350      0.2818
     40  O7N       54.6390   28.6720  107.2200 O.2   350  NAD350     -0.2670
     41  N7N       55.0370   30.9110  106.9640 N.am  350  NAD350     -0.0839
     42  C4N       54.9860   28.7080  110.0640 C.2   350  NAD350      0.0033
     43  C5N       55.0660   28.9540  111.4560 C.2   350  NAD350      0.0157
     44  C6N       55.0730   30.2140  111.9800 C.2   350  NAD350      0.0633
@<TRIPOS>BOND
     1    41    39   am
     2    40    39    2
     3    39    38    1
     4    38    37    1
     5    38    42    2
     6    37    36    1
     7    42    43    1
     8    36    35    1
     9    36    44    1
    10    43    44    2
    11    35    30    1
    12    35    33    1
    13    30    29    1
    14    34    33    1
    15    33    31    1
    16    29    31    1
    17    29    28    1
    18    31    32    1
    19    28    27    1
    20    27    24    1
    21    25    24    2
    22    24    26    1
    23    24    23    1
    24    19    20    1
    25    19    17    2
    26    18    17    1
    27    20    21    1
    28    17    16    1
    29    21    22    2
    30    23     1    1
    31    16    22    1
    32    16    15    2
    33    22    13    1
    34     7     6    1
    35     7    12    1
    36    15    14    1
    37     5     4    1
    38     5     6    1
    39     4     1    1
    40    13    14    1
    41    13    12    1
    42     6     8    1
    43     1     3    2
    44     1     2    1
    45    12    10    1
    46     8    10    1
    47     8     9    1
    48    10    11    1
