@<TRIPOS>MOLECULE
1j4h_SUB_A_1.pdb
 32 34 0 0 0
SMALL
GASTEIGER

@<TRIPOS>ATOM
      1  C1       -35.5290   39.8570   31.9630 C.2   201  SUB201      0.2589
      2  N1       -34.5150   39.0560   32.6350 N.am  201  SUB201     -0.1942
      3  C2       -33.6240   39.7710   33.5780 C.3   201  SUB201      0.1978
      4  C3       -31.9220   43.7000   33.5740 C.3   201  SUB201      0.2086
      5  C4       -32.9450   39.0340   34.9280 C.3   201  SUB201      0.0594
      6  C5       -33.7890   37.7220   34.8100 C.ar  201  SUB201     -0.0199
      7  C6       -33.5520   36.7180   33.7510 C.ar  201  SUB201     -0.0042
      8  C7       -34.3560   35.4900   33.7060 C.ar  201  SUB201     -0.0003
      9  C8       -35.3940   35.2490   34.7090 C.ar  201  SUB201     -0.0000
     10  C9       -35.6240   36.2480   35.7470 C.ar  201  SUB201     -0.0003
     11  C10      -34.8220   37.4420   35.7710 C.ar  201  SUB201     -0.0042
     12  O1       -32.7650   42.4710   34.0890 O.3   201  SUB201     -0.4473
     13  O2       -32.2730   41.0210   31.9540 O.2   201  SUB201     -0.2482
     14  C11      -33.0090   41.1180   33.4290 C.2   201  SUB201      0.3373
     15  C12      -31.7900   45.2960   33.7970 C.3   201  SUB201      0.0513
     16  C13      -37.3890   37.6300   32.3800 C.3   201  SUB201      0.1079
     17  O3       -35.8130   41.2860   32.3430 O.2   201  SUB201     -0.2718
     18  C14      -38.7940   38.1420   32.4040 C.3   201  SUB201      0.0767
     19  S1       -38.6960   39.6760   32.6280 S.3   201  SUB201     -0.1367
     20  C15      -38.0220   40.0570   31.1130 C.3   201  SUB201      0.0846
     21  C16      -36.4580   39.3720   30.9750 C.3   201  SUB201      0.1678
     22  N2       -36.7040   37.8210   31.1070 N.3   201  SUB201     -0.1463
     23  S2       -36.5860   37.2930   29.4710 S.O2  201  SUB201      0.0637
     24  C17      -35.3380   36.1030   29.7820 C.ar  201  SUB201      0.1222
     25  C18      -35.7610   34.7560   30.0760 C.ar  201  SUB201      0.0196
     26  C19      -34.7880   33.7410   30.3580 C.ar  201  SUB201     -0.0029
     27  C20      -33.3500   34.0810   30.3470 C.ar  201  SUB201     -0.0218
     28  C21      -32.9580   35.4100   30.0530 C.ar  201  SUB201     -0.0029
     29  C22      -33.9640   36.4310   29.7670 C.ar  201  SUB201      0.0196
     30  O4       -36.2430   38.2380   28.4390 O.2   201  SUB201     -0.1528
     31  O5       -37.7980   36.4120   29.5800 O.2   201  SUB201     -0.1528
     32  C23      -32.2770   33.0530   30.6480 C.3   201  SUB201      0.0310
@<TRIPOS>BOND
     1    30    23    2
     2    23    31    2
     3    23    24    1
     4    23    22    1
     5    29    24   ar
     6    29    28   ar
     7    24    25   ar
     8    28    27   ar
     9    25    26   ar
    10    27    26   ar
    11    27    32    1
    12    21    22    1
    13    21    20    1
    14    21     1    1
    15    22    16    1
    16    20    19    1
    17    13    14    2
    18     1    17    2
    19     1     2   am
    20    16    18    1
    21    18    19    1
    22     2     3    1
    23    14     3    1
    24    14    12    1
    25     4    15    1
    26     4    12    1
    27     3     5    1
    28     8     7   ar
    29     8     9   ar
    30     7     6   ar
    31     9    10   ar
    32     6     5    1
    33     6    11   ar
    34    10    11   ar
