@<TRIPOS>MOLECULE
1j4i_TST_A_1.pdb
 27 28 0 0 0
SMALL
GASTEIGER

@<TRIPOS>ATOM
      1  S1        32.9940  -34.9600  -42.9870 S.3   201  TST201     -0.1367
      2  C1        32.7260  -33.1570  -43.1220 C.3   201  TST201      0.0767
      3  C2        32.1540  -32.8250  -41.6250 C.3   201  TST201      0.1079
      4  N1        30.6550  -33.2680  -41.7420 N.3   201  TST201     -0.1463
      5  C3        30.6370  -34.9140  -41.7270 C.3   201  TST201      0.1678
      6  C4        31.4560  -35.3880  -43.1270 C.3   201  TST201      0.0846
      7  C5        31.2320  -35.6080  -40.3010 C.2   201  TST201      0.2589
      8  N2        31.5560  -34.7610  -39.3400 N.am  201  TST201     -0.1944
      9  O1        31.4760  -36.7300  -40.4040 O.2   201  TST201     -0.2718
     10  C6        32.3510  -35.2000  -38.2540 C.3   201  TST201      0.1978
     11  C7        32.9630  -34.0120  -37.5010 C.3   201  TST201      0.0333
     12  C8        31.5350  -36.1220  -37.2190 C.2   201  TST201      0.3842
     13  O2        30.2000  -36.3360  -37.4340 O.co2 201  TST201     -0.2437
     14  O3        32.0960  -36.5500  -36.3240 O.co2 201  TST201     -0.2437
     15  C9        32.1480  -32.7520  -37.4770 C.3   201  TST201      0.0023
     16  C10       32.9350  -31.5410  -36.8470 C.3   201  TST201      0.0001
     17  S2        29.3420  -32.3720  -41.8800 S.O2  201  TST201      0.0637
     18  C11       29.1910  -31.5760  -40.4200 C.ar  201  TST201      0.1222
     19  C12       29.6890  -30.1850  -40.2990 C.ar  201  TST201      0.0196
     20  C13       29.5590  -29.4800  -38.9860 C.ar  201  TST201     -0.0029
     21  C14       28.9590  -30.1070  -37.8660 C.ar  201  TST201     -0.0218
     22  C15       28.4660  -31.4560  -37.9700 C.ar  201  TST201     -0.0029
     23  C16       28.5830  -32.2000  -39.2250 C.ar  201  TST201      0.0196
     24  C17       28.8260  -29.3790  -36.5430 C.3   201  TST201      0.0310
     25  O4        28.2250  -33.2280  -42.0040 O.2   201  TST201     -0.1528
     26  O5        29.8730  -31.5720  -42.9200 O.2   201  TST201     -0.1528
     27  C18       30.9210  -33.0670  -36.6230 C.3   201  TST201      0.0001
@<TRIPOS>BOND
     1     6     1    1
     2     6     5    1
     3     2     1    1
     4     2     3    1
     5    26    17    2
     6    25    17    2
     7    17     4    1
     8    17    18    1
     9     4     5    1
    10     4     3    1
    11     5     7    1
    12    18    19   ar
    13    18    23   ar
    14     9     7    2
    15     7     8   am
    16    19    20   ar
    17     8    10    1
    18    23    22   ar
    19    20    21   ar
    20    10    11    1
    21    10    12    1
    22    22    21   ar
    23    21    24    1
    24    11    15    1
    25    15    16    1
    26    15    27    1
    27    13    12   ar
    28    12    14   ar
