@<TRIPOS>MOLECULE
1j4r_001_A_1.pdb
 45 48 0 0 0
SMALL
GASTEIGER

@<TRIPOS>ATOM
      1  C01       26.1080   12.5010   25.8480 C.ar  108  001108      0.0527
      2  C02       25.4980   13.4760   26.6600 C.ar  108  001108      0.0417
      3  C03       26.0770   13.8120   27.9100 C.ar  108  001108      0.1753
      4  C04       27.2710   13.1660   28.3470 C.ar  108  001108      0.2060
      5  C05       27.8790   12.1900   27.5380 C.ar  108  001108      0.1753
      6  C06       27.3000   11.8610   26.2890 C.ar  108  001108      0.0417
      7  O03       25.4930   14.7690   28.7090 O.3   108  001108     -0.4683
      8  C07       24.3180   15.4540   28.2530 C.3   108  001108      0.2526
      9  O04       27.8620   13.5160   29.5560 O.3   108  001108     -0.4654
     10  C08       27.0810   13.3660   30.7660 C.3   108  001108      0.2528
     11  O05       29.0040   11.5230   28.0010 O.3   108  001108     -0.4683
     12  C09       29.8390   10.8120   27.0790 C.3   108  001108      0.2526
     13  C10       25.5020   12.0550   24.5480 C.3   108  001108      0.3493
     14  F10       24.5090   12.8770   24.1440 F     108  001108     -0.1898
     15  F11       24.9450   10.8550   24.7810 F     108  001108     -0.1898
     16  C11       26.4600   11.8800   23.4410 C.2   108  001108      0.2914
     17  O11       26.8220   10.7470   23.1630 O.2   108  001108     -0.2686
     18  N12       26.9580   12.9410   22.7610 N.am  108  001108     -0.2667
     19  C12       26.6800   14.3710   23.1220 C.3   108  001108      0.0941
     20  C13       26.3260   15.2550   21.8850 C.3   108  001108      0.0216
     21  C14       27.3440   15.0610   20.7410 C.3   108  001108      0.0040
     22  C15       27.5640   13.5710   20.4080 C.3   108  001108      0.0314
     23  C16       27.9380   12.7540   21.6590 C.3   108  001108      0.1748
     24  C17       29.3200   13.1580   22.1470 C.2   108  001108      0.3351
     25  O17       30.2350   13.2670   21.3540 O.2   108  001108     -0.2483
     26  O18       29.5670   13.4060   23.4560 O.3   108  001108     -0.4512
     27  C18       30.9210   13.7700   23.7570 C.3   108  001108      0.1689
     28  C19       31.6030   12.6040   24.4680 C.3   108  001108      0.0440
     29  C20       33.0100   13.0100   24.9400 C.3   108  001108      0.0084
     30  C21       33.9540   11.8460   24.7210 C.3   108  001108      0.0281
     31  C22       34.6170   11.9980   23.3780 C.ar  108  001108     -0.0030
     32  C23       35.5520   13.0340   23.1550 C.ar  108  001108      0.0946
     33  N23       36.2040   13.1090   21.9800 N.ar  108  001108     -0.2426
     34  C24       35.9870   12.2050   20.9830 C.ar  108  001108      0.0989
     35  C25       35.0640   11.1610   21.1400 C.ar  108  001108      0.0204
     36  C26       34.3710   11.0620   22.3540 C.ar  108  001108     -0.0011
     37  C27       30.9830   15.0380   24.6320 C.3   108  001108      0.0440
     38  C28       29.6070   15.6140   24.8810 C.3   108  001108      0.0084
     39  C29       29.2190   15.3260   26.3300 C.3   108  001108      0.0265
     40  C30       28.2530   16.3890   26.7840 C.ar  108  001108     -0.0222
     41  C31       27.0480   16.5770   26.0930 C.ar  108  001108     -0.0043
     42  C32       26.1480   17.5590   26.5090 C.ar  108  001108     -0.0003
     43  C33       26.4540   18.3600   27.6170 C.ar  108  001108     -0.0000
     44  C34       27.6620   18.1690   28.3070 C.ar  108  001108     -0.0003
     45  C35       28.5610   17.1860   27.8890 C.ar  108  001108     -0.0043
@<TRIPOS>BOND
     1    22    21    1
     2    22    23    1
     3    21    20    1
     4    34    35   ar
     5    34    33   ar
     6    35    36   ar
     7    25    24    2
     8    23    24    1
     9    23    18    1
    10    20    19    1
    11    33    32   ar
    12    24    26    1
    13    36    31   ar
    14    18    19    1
    15    18    16   am
    16    32    31   ar
    17    17    16    2
    18    31    30    1
    19    16    13    1
    20    26    27    1
    21    27    28    1
    22    27    37    1
    23    14    13    1
    24    28    29    1
    25    13    15    1
    26    13     1    1
    27    37    38    1
    28    30    29    1
    29    38    39    1
    30     1     6   ar
    31     1     2   ar
    32    41    42   ar
    33    41    40   ar
    34     6     5   ar
    35    39    40    1
    36    42    43   ar
    37     2     3   ar
    38    40    45   ar
    39    12    11    1
    40     5    11    1
    41     5     4   ar
    42    43    44   ar
    43    45    44   ar
    44     3     4   ar
    45     3     7    1
    46     8     7    1
    47     4     9    1
    48     9    10    1
