@<TRIPOS>MOLECULE
1j4u_MMA_A_1.pdb
 13 13 0 0 0
SMALL
GASTEIGER

@<TRIPOS>ATOM
      1  C1        77.1180   47.3660   33.8390 C.3   401  MMA401      0.2695
      2  C2        75.7620   47.1120   33.1340 C.3   401  MMA401      0.2406
      3  C3        75.8600   45.8980   32.1950 C.3   401  MMA401      0.2198
      4  C4        76.9560   46.1380   31.1710 C.3   401  MMA401      0.2144
      5  C5        78.2830   46.3880   31.8880 C.3   401  MMA401      0.1835
      6  C6        79.3890   46.6950   30.8950 C.3   401  MMA401      0.2142
      7  C7        78.0230   45.2990   35.3770 C.3   401  MMA401      0.1769
      8  O1        77.2740   46.4910   34.8950 O.3   401  MMA401     -0.3259
      9  O2        75.3420   48.2640   32.4220 O.3   401  MMA401     -0.2149
     10  O3        74.6170   45.6800   31.5350 O.3   401  MMA401     -0.2174
     11  O4        77.0640   45.0190   30.3030 O.3   401  MMA401     -0.2176
     12  O5        78.1500   47.5220   32.7830 O.3   401  MMA401     -0.3256
     13  O6        79.4500   48.0920   30.5640 O.3   401  MMA401     -0.2176
@<TRIPOS>BOND
     1    11     4    1
     2    13     6    1
     3     6     5    1
     4     4     5    1
     5     4     3    1
     6    10     3    1
     7     5    12    1
     8     3     2    1
     9     9     2    1
    10    12     1    1
    11     2     1    1
    12     1     8    1
    13     8     7    1
