@<TRIPOS>MOLECULE
1j51_HEM_A_1.pdb
 43 50 0 0 0
SMALL
GASTEIGER

@<TRIPOS>ATOM
      1 FE         23.6320  -10.2720  -49.5720 Fe    417  HEM417      0.0000
      2  CHA       25.0770   -9.7870  -46.4390 C.2   417  HEM417      0.0000
      3  CHB       20.5030   -9.8750  -48.0930 C.2   417  HEM417      0.0000
      4  CHC       22.1520  -11.2210  -52.5110 C.2   417  HEM417      0.0000
      5  CHD       26.7000  -11.3110  -50.7920 C.2   417  HEM417      0.0000
      6  NA        22.9680   -9.9510  -47.6640 N.2   417  HEM417      0.0000
      7  C1A       23.6880   -9.7260  -46.5000 C.2   417  HEM417      0.0000
      8  C2A       22.7920   -9.3940  -45.4240 C.2   417  HEM417      0.0000
      9  C3A       21.5540   -9.4400  -45.8720 C.2   417  HEM417      0.0000
     10  C4A       21.6240   -9.7860  -47.3030 C.2   417  HEM417      0.0000
     11  CMA       20.2540   -9.1660  -45.1330 C.3   417  HEM417      0.0000
     12  CAA       23.2010   -9.0220  -43.9550 C.3   417  HEM417      0.0000
     13  CBA       23.4790  -10.1580  -43.0210 C.3   417  HEM417      0.0000
     14  CGA       23.8660   -9.6310  -41.5830 C.2   417  HEM417      0.0000
     15  O1A       23.8440   -8.4430  -41.3240 O.co2 417  HEM417      0.0000
     16  O2A       24.1120  -10.6470  -40.9130 O.co2 417  HEM417      0.0000
     17  NB        21.7050  -10.6240  -50.1140 N.ar  417  HEM417      0.0000
     18  C1B       20.5680  -10.2070  -49.4410 C.ar  417  HEM417      0.0000
     19  C2B       19.4200  -10.2030  -50.3280 C.ar  417  HEM417      0.0000
     20  C3B       19.8620  -10.5660  -51.5380 C.ar  417  HEM417      0.0000
     21  C4B       21.3210  -10.8310  -51.4500 C.ar  417  HEM417      0.0000
     22  CMB       18.0040   -9.8020  -49.8050 C.3   417  HEM417      0.0000
     23  CAB       19.1440  -10.7240  -52.9020 C.2   417  HEM417      0.0000
     24  CBB       17.8710  -10.4940  -53.1170 C.2   417  HEM417      0.0000
     25  NC        24.2990  -11.1730  -51.2760 N.2   417  HEM417      0.0000
     26  C1C       23.5320  -11.4070  -52.4300 C.2   417  HEM417      0.0000
     27  C2C       24.4060  -11.8280  -53.5130 C.2   417  HEM417      0.0000
     28  C3C       25.6430  -11.8590  -53.0230 C.2   417  HEM417      0.0000
     29  C4C       25.5770  -11.4580  -51.6160 C.2   417  HEM417      0.0000
     30  CMC       23.9670  -12.1620  -54.9840 C.3   417  HEM417      0.0000
     31  CAC       26.9840  -12.2150  -53.7450 C.2   417  HEM417      0.0000
     32  CBC       27.3170  -13.4700  -53.7330 C.2   417  HEM417      0.0000
     33  ND        25.5400  -10.5340  -48.7620 N.ar  417  HEM417      0.0000
     34  C1D       26.6420  -10.8620  -49.4820 C.ar  417  HEM417      0.0000
     35  C2D       27.8140  -10.6790  -48.6100 C.ar  417  HEM417      0.0000
     36  C3D       27.3410  -10.2690  -47.4310 C.ar  417  HEM417      0.0000
     37  C4D       25.8990  -10.1690  -47.4950 C.ar  417  HEM417      0.0000
     38  CMD       29.2940  -10.9530  -49.0520 C.3   417  HEM417      0.0000
     39  CAD       28.1100   -9.9450  -46.1190 C.3   417  HEM417      0.0000
     40  CBD       28.4680   -8.5540  -45.7910 C.3   417  HEM417      0.0000
     41  CGD       29.1720   -8.4730  -44.3660 C.2   417  HEM417      0.0000
     42  O1D       29.8020   -7.4520  -44.2500 O.co2 417  HEM417      0.0000
     43  O2D       28.8930   -9.4330  -43.6240 O.co2 417  HEM417      0.0000
@<TRIPOS>BOND
     1    30    27    1
     2    31    32    2
     3    31    28    1
     4    27    28    2
     5    27    26    1
     6    24    23    2
     7    28    29    1
     8    23    20    1
     9     4    26    2
    10     4    21    1
    11    26    25    1
    12    29    25    2
    13    29     5    1
    14    20    21   ar
    15    20    19   ar
    16    21    17   ar
    17    25     1    1
    18     5    34    2
    19    19    22    1
    20    19    18   ar
    21    17     1    1
    22    17    18   ar
    23     1    33    1
    24     1     6    1
    25    34    33   ar
    26    34    35   ar
    27    18     3    1
    28    38    35    1
    29    33    37   ar
    30    35    36   ar
    31     3    10    2
    32     6    10    1
    33     6     7    2
    34    37    36   ar
    35    37     2    2
    36    36    39    1
    37    10     9    1
    38     7     2    1
    39     7     8    1
    40    39    40    1
    41     9     8    2
    42     9    11    1
    43    40    41    1
    44     8    12    1
    45    41    42   ar
    46    41    43   ar
    47    12    13    1
    48    13    14    1
    49    14    15   ar
    50    14    16   ar
