@<TRIPOS>MOLECULE
1j52_HEM_A_1.pdb
 43 50 0 0 0
SMALL
GASTEIGER

@<TRIPOS>ATOM
      1 FE         35.3230    4.1710   10.2560 Fe    154  HEM154      0.0000
      2  CHA       37.9440    2.2940   11.3930 C.2   154  HEM154      0.0000
      3  CHB       37.2440    5.3580    7.7240 C.2   154  HEM154      0.0000
      4  CHC       32.7600    6.2210    9.2520 C.2   154  HEM154      0.0000
      5  CHD       33.4220    3.1580   12.9390 C.2   154  HEM154      0.0000
      6  NA        37.1920    3.8890    9.6950 N.ar  154  HEM154      0.0000
      7  C1A       38.1440    3.0550   10.2540 C.ar  154  HEM154      0.0000
      8  C2A       39.3910    3.1080    9.5070 C.ar  154  HEM154      0.0000
      9  C3A       39.1930    4.0190    8.4950 C.ar  154  HEM154      0.0000
     10  C4A       37.8300    4.4670    8.6070 C.ar  154  HEM154      0.0000
     11  CMA       40.2160    4.3960    7.4240 C.3   154  HEM154      0.0000
     12  CAA       40.6530    2.2080    9.7190 C.3   154  HEM154      0.0000
     13  CBA       40.7260    0.9900    8.7850 C.3   154  HEM154      0.0000
     14  CGA       39.4550    0.1570    8.8150 C.2   154  HEM154      0.0000
     15  O1A       39.1130   -0.4140    9.8730 O.co2 154  HEM154      0.0000
     16  O2A       38.7750    0.0980    7.7750 O.co2 154  HEM154      0.0000
     17  NB        35.0580    5.5140    8.7940 N.2   154  HEM154      0.0000
     18  C1B       35.9550    5.8520    7.8000 C.2   154  HEM154      0.0000
     19  C2B       35.3740    6.7980    6.8430 C.2   154  HEM154      0.0000
     20  C3B       34.1080    7.0350    7.2950 C.2   154  HEM154      0.0000
     21  C4B       33.9310    6.2420    8.4910 C.2   154  HEM154      0.0000
     22  CMB       36.0590    7.3500    5.5690 C.3   154  HEM154      0.0000
     23  CAB       33.1160    7.8300    6.7090 C.3   154  HEM154      0.0000
     24  CBB       33.2570    9.2460    6.3350 C.3   154  HEM154      0.0000
     25  NC        33.4830    4.5870   10.9340 N.ar  154  HEM154      0.0000
     26  C1C       32.5620    5.4870   10.4180 C.ar  154  HEM154      0.0000
     27  C2C       31.3790    5.6040   11.2750 C.ar  154  HEM154      0.0000
     28  C3C       31.5670    4.7330   12.3180 C.ar  154  HEM154      0.0000
     29  C4C       32.8470    4.0840   12.0810 C.ar  154  HEM154      0.0000
     30  CMC       30.1580    6.4880   10.9800 C.3   154  HEM154      0.0000
     31  CAC       30.7240    4.4330   13.4110 C.3   154  HEM154      0.0000
     32  CBC       29.7730    5.2800   14.0560 C.3   154  HEM154      0.0000
     33  ND        35.6340    2.9520   11.7950 N.2   154  HEM154      0.0000
     34  C1D       34.7280    2.6710   12.8450 C.2   154  HEM154      0.0000
     35  C2D       35.3160    1.7980   13.8500 C.2   154  HEM154      0.0000
     36  C3D       36.5970    1.6020   13.4280 C.2   154  HEM154      0.0000
     37  C4D       36.7690    2.2780   12.1350 C.2   154  HEM154      0.0000
     38  CMD       34.6040    1.1490   15.0470 C.3   154  HEM154      0.0000
     39  CAD       37.6950    0.9090   14.2370 C.3   154  HEM154      0.0000
     40  CBD       38.3260    1.8870   15.2370 C.3   154  HEM154      0.0000
     41  CGD       39.4850    1.2630   16.0030 C.2   154  HEM154      0.0000
     42  O1D       39.2400    0.5540   17.0060 O.co2 154  HEM154      0.0000
     43  O2D       40.6440    1.4730   15.5980 O.co2 154  HEM154      0.0000
@<TRIPOS>BOND
     1    22    19    1
     2    24    23    1
     3    23    20    1
     4    19    20    2
     5    19    18    1
     6    20    21    1
     7    11     9    1
     8     3    18    1
     9     3    10    2
    10    16    14   ar
    11    18    17    2
    12    21    17    1
    13    21     4    2
    14     9    10   ar
    15     9     8   ar
    16    10     6   ar
    17    13    14    1
    18    13    12    1
    19    17     1    1
    20    14    15   ar
    21     4    26    1
    22     8    12    1
    23     8     7   ar
    24     6     7   ar
    25     6     1    1
    26     7     2    2
    27     1    25    1
    28     1    33    1
    29    26    25   ar
    30    26    27   ar
    31    25    29   ar
    32    30    27    1
    33    27    28   ar
    34     2    37    1
    35    33    37    2
    36    33    34    1
    37    29    28   ar
    38    29     5    1
    39    37    36    1
    40    28    31    1
    41    34     5    2
    42    34    35    1
    43    31    32    1
    44    36    35    2
    45    36    39    1
    46    35    38    1
    47    39    40    1
    48    40    41    1
    49    43    41   ar
    50    41    42   ar
