@<TRIPOS>MOLECULE
1j53_TMP_A_1.pdb
 21 22 0 0 0
SMALL
GASTEIGER

@<TRIPOS>ATOM
      1  P         -2.7050   29.4270   -1.1020 P.3   2000  TMP2000     0.5327
      2  O1P       -1.9400   30.5270   -0.2550 O.3   2000  TMP2000    -0.1145
      3  O2P       -4.3550   29.6060   -0.8680 O.3   2000  TMP2000    -0.1145
      4  O3P       -2.3790   29.5910   -2.7080 O.2   2000  TMP2000    -0.2224
      5  O5'       -1.9400   28.2400   -0.4000 O.3   2000  TMP2000    -0.2675
      6  C5'       -1.3830   27.2990   -1.2930 C.3   2000  TMP2000     0.1858
      7  C4'       -0.6700   26.1320   -0.6140 C.3   2000  TMP2000     0.1774
      8  O4'       -0.6770   26.2210    0.8380 O.3   2000  TMP2000    -0.3339
      9  C3'       -1.4000   24.8930   -0.9840 C.3   2000  TMP2000     0.1857
     10  O3'       -1.0470   24.4430   -2.2590 O.3   2000  TMP2000    -0.2203
     11  C2'       -1.0960   23.9560    0.1590 C.3   2000  TMP2000     0.0874
     12  C1'       -0.9490   24.8980    1.3740 C.3   2000  TMP2000     0.2090
     13  N1        -2.2150   24.9570    2.2140 N.am  2000  TMP2000    -0.1794
     14  C2        -2.3890   23.9550    3.2040 C.1   2000  TMP2000     0.2844
     15  O2        -1.6050   23.0500    3.4480 O.2   2000  TMP2000    -0.1918
     16  N3        -3.5680   24.0430    3.9500 N.2   2000  TMP2000    -0.2455
     17  C4        -4.5940   25.0060    3.8180 C.1   2000  TMP2000     0.2134
     18  O4        -5.5760   24.9410    4.5540 O.2   2000  TMP2000    -0.2088
     19  C5        -4.3610   26.0220    2.7820 C.2   2000  TMP2000     0.0891
     20  C5M       -5.3670   27.1200    2.5250 C.3   2000  TMP2000     0.0462
     21  C6        -3.2200   25.9700    2.0300 C.2   2000  TMP2000     0.0877
@<TRIPOS>BOND
     1     4     1    2
     2    10     9    1
     3     6     7    1
     4     6     5    1
     5     1     3    1
     6     1     5    1
     7     1     2    1
     8     9     7    1
     9     9    11    1
    10     7     8    1
    11    11    12    1
    12     8    12    1
    13    12    13    1
    14    21    13    1
    15    21    19    2
    16    13    14   am
    17    20    19    1
    18    19    17    1
    19    14    15    2
    20    14    16    2
    21    17    16    2
    22    17    18    2
