@<TRIPOS>MOLECULE
1j54_TMP_A_1.pdb
 21 22 0 0 0
SMALL
GASTEIGER

@<TRIPOS>ATOM
      1  P         -3.2560   28.8150   -1.6870 P.3   2000  TMP2000     0.5327
      2  O1P       -3.9340   29.6150   -0.5020 O.3   2000  TMP2000    -0.1145
      3  O2P       -4.4530   28.1250   -2.6510 O.3   2000  TMP2000    -0.1145
      4  O3P       -2.3500   29.7660   -2.6680 O.2   2000  TMP2000    -0.2224
      5  O5'       -2.3870   27.9230   -0.7380 O.3   2000  TMP2000    -0.2675
      6  C5'       -1.6980   26.9510   -1.4980 C.3   2000  TMP2000     0.1858
      7  C4'       -0.8380   25.9570   -0.7300 C.3   2000  TMP2000     0.1774
      8  O4'       -0.8270   26.1640    0.7070 O.3   2000  TMP2000    -0.3339
      9  C3'       -1.4290   24.6250   -0.9930 C.3   2000  TMP2000     0.1857
     10  O3'       -1.0470   24.1170   -2.2410 O.3   2000  TMP2000    -0.2203
     11  C2'       -1.0220   23.8200    0.2140 C.3   2000  TMP2000     0.0874
     12  C1'       -0.9570   24.8650    1.3510 C.3   2000  TMP2000     0.2090
     13  N1        -2.2190   24.8750    2.2040 N.am  2000  TMP2000    -0.1794
     14  C2        -2.3570   23.8690    3.2000 C.1   2000  TMP2000     0.2844
     15  O2        -1.5470   22.9840    3.4440 O.2   2000  TMP2000    -0.1918
     16  N3        -3.5370   23.9250    3.9510 N.2   2000  TMP2000    -0.2455
     17  C4        -4.5910   24.8610    3.8230 C.1   2000  TMP2000     0.2134
     18  O4        -5.5680   24.7700    4.5660 O.2   2000  TMP2000    -0.2088
     19  C5        -4.3940   25.8760    2.7800 C.2   2000  TMP2000     0.0891
     20  C5M       -5.4300   26.9450    2.5210 C.3   2000  TMP2000     0.0462
     21  C6        -3.2560   25.8560    2.0250 C.2   2000  TMP2000     0.0877
@<TRIPOS>BOND
     1     4     1    2
     2     3     1    1
     3    10     9    1
     4     1     5    1
     5     1     2    1
     6     6     5    1
     7     6     7    1
     8     9     7    1
     9     9    11    1
    10     7     8    1
    11    11    12    1
    12     8    12    1
    13    12    13    1
    14    21    13    1
    15    21    19    2
    16    13    14   am
    17    20    19    1
    18    19    17    1
    19    14    15    2
    20    14    16    2
    21    17    16    2
    22    17    18    2
