@<TRIPOS>MOLECULE
1j59_CMP_A_1.pdb
 21 24 0 0 0
SMALL
GASTEIGER

@<TRIPOS>ATOM
      1  P         23.4460   66.0590    7.0250 P.3   762  CMP762      0.2141
      2  O1P       24.8610   65.7990    6.7250 O.2   762  CMP762     -0.5172
      3  O2P       23.1120   66.9940    8.1490 O.3   762  CMP762     -0.4373
      4  O5'       22.8490   66.7160    5.6970 O.3   762  CMP762     -0.3114
      5  C5'       22.6960   65.9670    4.4590 C.3   762  CMP762      0.1811
      6  C4'       22.1220   64.5930    4.7200 C.3   762  CMP762      0.1767
      7  O4'       22.4300   63.6790    3.6420 O.3   762  CMP762     -0.3156
      8  C3'       22.7770   63.8490    5.8550 C.3   762  CMP762      0.1581
      9  O3'       22.6980   64.6430    7.0440 O.3   762  CMP762     -0.3138
     10  C2'       22.1500   62.4750    5.6570 C.3   762  CMP762      0.1122
     11  C1'       22.3860   62.3240    4.1370 C.3   762  CMP762      0.2872
     12  N9        23.6190   61.6240    3.7140 N.pl3 762  CMP762     -0.1460
     13  C8        24.9030   62.0730    3.8410 C.3   762  CMP762      0.3377
     14  N7        25.8210   61.2310    3.3870 N.2   762  CMP762     -0.2095
     15  C5        25.0860   60.1560    2.9200 C.2   762  CMP762      0.2526
     16  C6        25.4750   58.9190    2.3090 C.2   762  CMP762      0.4393
     17  N6        26.7650   58.5910    1.9670 N.pl3 762  CMP762      0.2180
     18  N1        24.4970   58.0400    2.0250 N.2   762  CMP762      0.0021
     19  C2        23.2210   58.3890    2.2730 C.3   762  CMP762      0.5254
     20  N3        22.7270   59.5280    2.7980 N.2   762  CMP762     -0.0055
     21  C4        23.7210   60.3780    3.1120 C.2   762  CMP762      0.3518
@<TRIPOS>BOND
     1    17    16    1
     2    18    19    1
     3    18    16    2
     4    19    20    1
     5    16    15    1
     6    20    21    2
     7    15    21    1
     8    15    14    2
     9    21    12    1
    10    14    13    1
    11     7    11    1
    12     7     6    1
    13    12    13    1
    14    12    11    1
    15    11    10    1
    16     5     6    1
    17     5     4    1
    18     6     8    1
    19    10     8    1
    20     4     1    1
    21     8     9    1
    22     2     1    2
    23     1     9    1
    24     1     3    1
