@<TRIPOS>MOLECULE
1j5i_NCZ_A_1.pdb
 42 44 0 0 0
SMALL
GASTEIGER

@<TRIPOS>ATOM
      1  C1         0.6830    7.1240    1.2830 C.ar  130  NCZ130     -0.0113
      2  C6         0.2690    6.7680   -0.0040 C.ar  130  NCZ130      0.0033
      3  C5        -0.5130    5.6060   -0.1660 C.ar  130  NCZ130     -0.0137
      4  C7        -0.9360    5.1910   -1.4240 C.ar  130  NCZ130     -0.0503
      5  C8        -0.5480    5.9130   -2.5360 C.ar  130  NCZ130     -0.0188
      6  C9         0.2380    7.0730   -2.4050 C.ar  130  NCZ130      0.1314
      7  C10        0.6290    7.5510   -1.1220 C.ar  130  NCZ130      0.1080
      8  C11        1.0210    8.9340   -0.9690 C.2   130  NCZ130      0.3438
      9  O3         1.4950    9.5480   -1.9250 O.2   130  NCZ130     -0.2448
     10  O4         0.9320    9.6840    0.2910 O.3   130  NCZ130     -0.4519
     11  C12        0.8290   11.1440    0.2320 C.3   130  NCZ130      0.1618
     12  C13        0.3890   11.7390    1.5740 C.3   130  NCZ130      0.1131
     13  C14       -0.9370   11.9400    1.5490 C.2   130  NCZ130     -0.0537
     14  C15       -1.5270   11.7790    0.1960 C.2   130  NCZ130     -0.0537
     15  C16       -0.3080   11.5460   -0.7200 C.3   130  NCZ130      0.1131
     16  O6        -0.0260   12.7910   -1.4190 O.3   130  NCZ130     -0.3840
     17  O5         1.0480   12.9880    1.7900 O.3   130  NCZ130     -0.3840
     18  O2         0.5790    7.7470   -3.5890 O.3   130  NCZ130     -0.5059
     19  C4        -0.8700    4.8870    0.9520 C.ar  130  NCZ130     -0.0393
     20  C3        -0.4510    5.2860    2.2130 C.ar  130  NCZ130     -0.0164
     21  C2         0.3320    6.4010    2.3900 C.ar  130  NCZ130      0.1210
     22  O1         0.7360    6.7450    3.6700 O.3   130  NCZ130     -0.4951
     23  C17        1.1760    8.0560    4.0800 C.3   130  NCZ130      0.0788
     24  C18       -1.7310    3.6670    0.8740 C.3   130  NCZ130     -0.0390
     25  H1         1.3030    8.0110    1.4090 H     130  NCZ130      0.0660
     26  H7        -1.5620    4.3070   -1.5330 H     130  NCZ130      0.0625
     27  H8        -0.8550    5.5800   -3.5280 H     130  NCZ130      0.0654
     28  H12        1.7520   11.4680   -0.4410 H     130  NCZ130      0.0793
     29  H13        0.6280   11.0490    2.3820 H     130  NCZ130      0.0676
     30  H14       -1.5220   12.1970    2.4320 H     130  NCZ130      0.0596
     31  H15       -2.5790   11.8150   -0.0860 H     130  NCZ130      0.0596
     32  H16       -0.5590   10.7560   -1.4240 H     130  NCZ130      0.0676
     33  H6        -0.2600   13.5900   -0.8130 H     130  NCZ130      0.2104
     34  H5         1.9970   12.8510    1.8080 H     130  NCZ130      0.2104
     35  H2         0.0870    8.6500   -3.6230 H     130  NCZ130      0.2922
     36  H3        -0.7490    4.7020    3.0830 H     130  NCZ130      0.0657
     37 H171        1.4320    8.0410    5.1400 H     130  NCZ130      0.0660
     38 H172        2.0530    8.3430    3.4990 H     130  NCZ130      0.0660
     39 H173        0.3780    8.7780    3.9100 H     130  NCZ130      0.0660
     40 H181       -2.7750    3.9520    0.9880 H     130  NCZ130      0.0278
     41 H182       -1.5900    3.1840   -0.0920 H     130  NCZ130      0.0278
     42 H183       -1.4530    2.9750    1.6710 H     130  NCZ130      0.0278
@<TRIPOS>BOND
     1    35    18    1
     2    18     6    1
     3    27     5    1
     4     5     6   ar
     5     5     4   ar
     6     6     7   ar
     7     9     8    2
     8    26     4    1
     9    32    15    1
    10     4     3   ar
    11    16    33    1
    12    16    15    1
    13     7     8    1
    14     7     2   ar
    15     8    10    1
    16    15    14    1
    17    15    11    1
    18    28    11    1
    19     3     2   ar
    20     3    19   ar
    21    41    24    1
    22    31    14    1
    23     2     1   ar
    24    14    13    2
    25    11    10    1
    26    11    12    1
    27    24    19    1
    28    24    40    1
    29    24    42    1
    30    19    20   ar
    31     1    25    1
    32     1    21   ar
    33    13    12    1
    34    13    30    1
    35    12    17    1
    36    12    29    1
    37    17    34    1
    38    20    21   ar
    39    20    36    1
    40    21    22    1
    41    38    23    1
    42    22    23    1
    43    39    23    1
    44    23    37    1
