@<TRIPOS>MOLECULE
1j5p_NAD_A_1.pdb
 44 48 0 0 0
SMALL
GASTEIGER

@<TRIPOS>ATOM
      1  PA        20.5830    8.6820   24.8920 P.3   300  NAD300      0.2189
      2  O1A       20.5120    7.8880   23.6300 O.2   300  NAD300     -0.5170
      3  O2A       20.5970    7.9080   26.1340 O.3   300  NAD300     -0.4371
      4  O5B       19.3840    9.7410   24.9190 O.3   300  NAD300     -0.3112
      5  C5B       19.1620   10.6150   23.8240 C.3   300  NAD300      0.1813
      6  C4B       17.7050   10.8980   23.7110 C.3   300  NAD300      0.1821
      7  O4B       17.6110   11.8080   22.6090 O.3   300  NAD300     -0.3135
      8  C3B       16.8350    9.6720   23.3460 C.3   300  NAD300      0.2184
      9  O3B       15.7410    9.4450   24.2890 O.3   300  NAD300     -0.2174
     10  C2B       16.3170    9.9800   21.9280 C.3   300  NAD300      0.2570
     11  O2B       15.0080    9.4230   21.5890 O.3   300  NAD300     -0.2130
     12  C1B       16.3930   11.5100   21.9140 C.3   300  NAD300      0.3186
     13  N9A       16.4930   12.1210   20.5600 N.pl3 300  NAD300     -0.1439
     14  C8A       17.3850   11.7930   19.5860 C.3   300  NAD300      0.3377
     15  N7A       17.2140   12.5320   18.4830 N.2   300  NAD300     -0.2095
     16  C5A       16.2020   13.3170   18.8010 C.2   300  NAD300      0.2526
     17  C6A       15.6310   14.2980   17.9580 C.2   300  NAD300      0.4393
     18  N6A       16.1100   14.4860   16.7280 N.pl3 300  NAD300      0.2180
     19  N1A       14.5810   15.0280   18.4590 N.2   300  NAD300      0.0021
     20  C2A       14.1200   14.8050   19.7150 C.3   300  NAD300      0.5254
     21  N3A       14.6690   13.8610   20.5180 N.2   300  NAD300     -0.0055
     22  C4A       15.7200   13.0930   20.0940 C.2   300  NAD300      0.3518
     23  O3        21.8400    9.6790   24.8330 O.3   300  NAD300     -0.2703
     24  PN        22.6900   10.4770   25.9130 P.3   300  NAD300      0.2189
     25  O1N       23.7500    9.5970   26.4660 O.2   300  NAD300     -0.5170
     26  O2N       21.7970   11.1650   26.8780 O.3   300  NAD300     -0.4371
     27  O5D       23.4210   11.6140   25.0470 O.3   300  NAD300     -0.3112
     28  C5D       22.6930   12.6230   24.3700 C.3   300  NAD300      0.1813
     29  C4D       23.6220   13.2350   23.3140 C.3   300  NAD300      0.1799
     30  O4D       24.7660   13.8520   23.9460 O.3   300  NAD300     -0.3327
     31  C3D       24.1910   12.2370   22.2630 C.3   300  NAD300      0.2158
     32  O3D       24.1660   12.7700   20.9150 O.3   300  NAD300     -0.2175
     33  C2D       25.6070   11.9850   22.7210 C.3   300  NAD300      0.2309
     34  O2D       26.4910   11.5620   21.7050 O.3   300  NAD300     -0.2158
     35  C1D       25.9580   13.3440   23.3170 C.3   300  NAD300      0.2263
     36  N1N       27.0520   13.3570   24.3090 N.pl3 300  NAD300     -0.2787
     37  C2N       28.0730   14.3370   24.1980 C.3   300  NAD300      0.1244
     38  C3N       29.1280   14.3720   25.1330 C.2   300  NAD300      0.0544
     39  C7N       30.2660   15.4370   25.0440 C.2   300  NAD300      0.2818
     40  O7N       31.3490   15.2360   25.5860 O.2   300  NAD300     -0.2670
     41  N7N       30.0240   16.5650   24.3480 N.am  300  NAD300     -0.0839
     42  C4N       29.1420   13.4030   26.1810 C.2   300  NAD300      0.0033
     43  C5N       28.1210   12.4190   26.2950 C.2   300  NAD300      0.0157
     44  C6N       27.0660   12.3850   25.3630 C.2   300  NAD300      0.0633
@<TRIPOS>BOND
     1    18    17    1
     2    17    19    2
     3    17    16    1
     4    19    20    1
     5    15    16    2
     6    15    14    1
     7    16    22    1
     8    14    13    1
     9    20    21    1
    10    22    21    2
    11    22    13    1
    12    13    12    1
    13    32    31    1
    14    11    10    1
    15    34    33    1
    16    12    10    1
    17    12     7    1
    18    10     8    1
    19    31    33    1
    20    31    29    1
    21     7     6    1
    22    33    35    1
    23    29    30    1
    24    29    28    1
    25    35    30    1
    26    35    36    1
    27     8     6    1
    28     8     9    1
    29     2     1    2
    30     6     5    1
    31     5     4    1
    32    37    36    1
    33    37    38    1
    34    36    44    1
    35    41    39   am
    36    28    27    1
    37    23     1    1
    38    23    24    1
    39     1     4    1
    40     1     3    1
    41    39    38    1
    42    39    40    2
    43    27    24    1
    44    38    42    2
    45    44    43    2
    46    24    25    2
    47    24    26    1
    48    42    43    1
