@<TRIPOS>MOLECULE
1j5q_MAN_A_1.pdb
 12 12 0 0 0
SMALL
GASTEIGER

@<TRIPOS>ATOM
      1  C1        51.8060   57.2080   70.2610 C.3   443  MAN443      0.3024
      2  C2        51.8480   58.6360   70.7670 C.3   443  MAN443      0.2434
      3  C3        50.6490   58.9410   71.7010 C.3   443  MAN443      0.2199
      4  C4        49.3280   58.2080   71.3470 C.3   443  MAN443      0.2144
      5  C5        49.5000   56.8550   70.6280 C.3   443  MAN443      0.1836
      6  C6        48.2430   56.4610   69.8790 C.3   443  MAN443      0.2142
      7  O1        51.9900   56.3200   71.3130 O.3   443  MAN443     -0.1869
      8  O2        51.8730   59.5310   69.6660 O.3   443  MAN443     -0.2148
      9  O3        50.4030   60.3470   71.7070 O.3   443  MAN443     -0.2174
     10  O4        48.6170   57.9750   72.5570 O.3   443  MAN443     -0.2176
     11  O5        50.5490   56.9360   69.6480 O.3   443  MAN443     -0.3236
     12  O6        47.8620   57.4890   68.9550 O.3   443  MAN443     -0.2176
@<TRIPOS>BOND
     1    12     6    1
     2    11     1    1
     3    11     5    1
     4     8     2    1
     5     6     5    1
     6     1     2    1
     7     1     7    1
     8     5     4    1
     9     2     3    1
    10     4     3    1
    11     4    10    1
    12     3     9    1
