@<TRIPOS>MOLECULE
1j6z_RHO_A_1.pdb
 30 33 0 0 0
SMALL
GASTEIGER

@<TRIPOS>ATOM
      1  C         -1.9610   -1.1610   -0.3590 C.ar  1381  RHO1381     0.0510
      2  C1        -2.6060   -0.1830    0.4430 C.ar  1381  RHO1381     0.0514
      3  C2        -3.2560   -0.6350    1.5790 C.ar  1381  RHO1381     0.1405
      4  C3        -3.2720   -2.0430    1.9580 C.ar  1381  RHO1381     0.0339
      5  C4        -2.5900   -3.0240    1.1160 C.ar  1381  RHO1381     0.0043
      6  C5        -1.9470   -2.5490   -0.0440 C.ar  1381  RHO1381     0.0147
      7  N         -1.2940   -0.6670   -1.5810 N.pl3 1381  RHO1381    -0.3040
      8  C6        -1.1540    0.7590   -1.8470 C.3   1381  RHO1381     0.1122
      9  C7        -0.7850   -1.7030   -2.5110 C.3   1381  RHO1381     0.1122
     10  OH1       -3.9190    0.3570    2.2560 O.3   1381  RHO1381    -0.4702
     11  C8        -4.0430   -2.4100    3.1560 C.2   1381  RHO1381     0.0028
     12  C9        -4.6660    0.0280    3.3790 C.3   1381  RHO1381     0.2115
     13  C10       -5.2680    1.1380    3.9740 C.2   1381  RHO1381     0.0357
     14  C11       -6.0100    0.8860    5.1810 C.2   1381  RHO1381     0.0474
     15  C12       -6.0890   -0.4600    5.7200 C.2   1381  RHO1381     0.0141
     16  C13       -5.4900   -1.5670    5.1220 C.2   1381  RHO1381     0.0008
     17  C14       -4.7440   -1.3470    3.8980 C.2   1381  RHO1381     0.0217
     18  N1        -6.8230    1.9640    5.7600 N.pl3 1381  RHO1381    -0.3042
     19  C15       -7.0200    3.2840    5.1080 C.3   1381  RHO1381     0.1122
     20  C16       -7.5340    1.7070    7.0510 C.3   1381  RHO1381     0.1122
     21  C17       -4.3790   -3.8050    3.3710 C.ar  1381  RHO1381     0.0064
     22  C18       -4.0160   -4.5360    4.6000 C.ar  1381  RHO1381     0.0811
     23  C19       -4.4090   -5.9300    4.6980 C.ar  1381  RHO1381     0.0246
     24  C20       -5.2180   -6.5200    3.6360 C.ar  1381  RHO1381     0.0893
     25  C21       -5.6100   -5.7870    2.4700 C.ar  1381  RHO1381     0.0181
     26  C22       -5.2050   -4.4260    2.3130 C.ar  1381  RHO1381     0.0016
     27  C23       -3.2130   -3.8770    5.7030 C.2   1381  RHO1381     0.3878
     28  OH2       -2.0780   -3.2060    5.3190 O.co2 1381  RHO1381    -0.2406
     29  OH3       -3.4080   -3.8120    6.9020 O.co2 1381  RHO1381    -0.2406
     30  N2        -5.6960   -7.8980    3.7020 N.pl3 1381  RHO1381    -0.1281
@<TRIPOS>BOND
     1     9     7    1
     2     8     7    1
     3     7     1    1
     4     1     6   ar
     5     1     2   ar
     6     6     5   ar
     7     2     3   ar
     8     5     4   ar
     9     3     4   ar
    10     3    10    1
    11     4    11    1
    12    10    12    1
    13    26    25   ar
    14    26    21   ar
    15    25    24   ar
    16    11    21    1
    17    11    17    2
    18    21    22   ar
    19    12    17    1
    20    12    13    1
    21    24    30    1
    22    24    23   ar
    23    17    16    1
    24    13    14    2
    25    22    23   ar
    26    22    27    1
    27    19    18    1
    28    16    15    2
    29    14    15    1
    30    14    18    1
    31    28    27   ar
    32    27    29   ar
    33    18    20    1
