@<TRIPOS>MOLECULE
1j6z_ADP_A_1.pdb
 27 29 0 0 0
SMALL
GASTEIGER

@<TRIPOS>ATOM
      1  PB         6.7150    1.2840   23.8220 P.3   1380  ADP1380     0.5373
      2  O1B        6.0690    1.3920   22.5040 O.2   1380  ADP1380    -0.2221
      3  O2B        6.0110    2.2150   24.7540 O.3   1380  ADP1380    -0.1143
      4  O3B        6.9470   -0.1530   24.3500 O.3   1380  ADP1380    -0.1143
      5  PA         8.8610    2.8360   22.5520 P.3   1380  ADP1380     0.2231
      6  O1A        9.1520    2.2060   21.2490 O.2   1380  ADP1380    -0.5169
      7  O2A        8.0660    4.0960   22.4760 O.3   1380  ADP1380    -0.4370
      8  O3A        8.1840    1.8480   23.5790 O.3   1380  ADP1380    -0.2261
      9  O5'       10.3060    3.1190   23.1880 O.3   1380  ADP1380    -0.3111
     10  C5'       10.3440    3.7970   24.4880 C.3   1380  ADP1380     0.1813
     11  C4'       11.6280    3.3170   25.1730 C.3   1380  ADP1380     0.1821
     12  O4'       12.7410    3.6620   24.3010 O.3   1380  ADP1380    -0.3135
     13  C3'       11.8640    4.0290   26.5300 C.3   1380  ADP1380     0.2184
     14  O3'       12.4130    3.0340   27.4240 O.3   1380  ADP1380    -0.2174
     15  C2'       12.9650    5.0390   26.1760 C.3   1380  ADP1380     0.2570
     16  O2'       13.8090    5.3770   27.2920 O.3   1380  ADP1380    -0.2130
     17  C1'       13.6800    4.3800   25.0320 C.3   1380  ADP1380     0.3186
     18  N9        14.4450    5.2670   24.1760 N.pl3 1380  ADP1380    -0.1439
     19  C8        14.0200    6.3690   23.4970 C.3   1380  ADP1380     0.3377
     20  N7        14.9340    7.0220   22.8280 N.2   1380  ADP1380    -0.2095
     21  C5        16.0200    6.2950   23.0610 C.2   1380  ADP1380     0.2526
     22  C6        17.3170    6.4800   22.6340 C.2   1380  ADP1380     0.4393
     23  N6        17.6870    7.4970   21.8420 N.pl3 1380  ADP1380     0.2180
     24  N1        18.2050    5.5870   23.0580 N.2   1380  ADP1380     0.0021
     25  C2        17.8550    4.5220   23.8760 C.3   1380  ADP1380     0.5254
     26  N3        16.6370    4.2800   24.3430 N.2   1380  ADP1380    -0.0055
     27  C4        15.7900    5.2200   23.8820 C.2   1380  ADP1380     0.3518
@<TRIPOS>BOND
     1     6     5    2
     2    23    22    1
     3     7     5    1
     4     2     1    2
     5     5     9    1
     6     5     8    1
     7    22    24    2
     8    22    21    1
     9    20    21    2
    10    20    19    1
    11    24    25    1
    12    21    27    1
    13     9    10    1
    14    19    18    1
    15     8     1    1
    16     1     4    1
    17     1     3    1
    18    25    26    1
    19    27    18    1
    20    27    26    2
    21    18    17    1
    22    12    17    1
    23    12    11    1
    24    10    11    1
    25    17    15    1
    26    11    13    1
    27    15    13    1
    28    15    16    1
    29    13    14    1
