@<TRIPOS>MOLECULE
1j77_HEM_A_1.pdb
 43 50 0 0 0
SMALL
GASTEIGER

@<TRIPOS>ATOM
      1 FE         14.2510    7.8690   19.8280 Fe    300  HEM300      0.0000
      2  CHA       15.4570    9.6200   17.1360 C.2   300  HEM300      0.0000
      3  CHB       11.3200    7.3090   18.1320 C.2   300  HEM300      0.0000
      4  CHC       12.8630    6.5510   22.6980 C.2   300  HEM300      0.0000
      5  CHD       17.2000    8.4470   21.5280 C.2   300  HEM300      0.0000
      6  NA        13.5360    8.3670   17.9810 N.ar  300  HEM300      0.0000
      7  C1A       14.1710    9.1460   17.0430 C.ar  300  HEM300      0.0000
      8  C2A       13.2390    9.3670   15.9140 C.ar  300  HEM300      0.0000
      9  C3A       12.1160    8.7200   16.2190 C.ar  300  HEM300      0.0000
     10  C4A       12.2710    8.0630   17.5090 C.ar  300  HEM300      0.0000
     11  CMA       10.8440    8.6590   15.3370 C.3   300  HEM300      0.0000
     12  CAA       13.4950   10.2030   14.6330 C.3   300  HEM300      0.0000
     13  CBA       13.7830    9.2930   13.4350 C.3   300  HEM300      0.0000
     14  CGA       15.1120    8.5990   13.5450 C.2   300  HEM300      0.0000
     15  O1A       15.8830    8.9220   14.4660 O.co2 300  HEM300      0.0000
     16  O2A       15.4180    7.7250   12.7040 O.co2 300  HEM300      0.0000
     17  NB        12.4310    7.0460   20.3250 N.2   300  HEM300      0.0000
     18  C1B       11.3590    6.9010   19.4570 C.2   300  HEM300      0.0000
     19  C2B       10.2870    6.2430   20.1510 C.2   300  HEM300      0.0000
     20  C3B       10.7170    5.9930   21.4210 C.2   300  HEM300      0.0000
     21  C4B       12.0540    6.5690   21.5510 C.2   300  HEM300      0.0000
     22  CMB        8.9380    5.9250   19.4570 C.3   300  HEM300      0.0000
     23  CAB        9.9370    5.3600   22.5750 C.2   300  HEM300      0.0000
     24  CBB        9.0570    4.3860   22.3670 C.2   300  HEM300      0.0000
     25  NC        14.9000    7.5680   21.7760 N.ar  300  HEM300      0.0000
     26  C1C       14.1360    7.0490   22.7800 C.ar  300  HEM300      0.0000
     27  C2C       14.9500    7.1200   23.9930 C.ar  300  HEM300      0.0000
     28  C3C       16.1600    7.5850   23.6450 C.ar  300  HEM300      0.0000
     29  C4C       16.1490    7.9380   22.2520 C.ar  300  HEM300      0.0000
     30  CMC       14.4880    6.5900   25.3580 C.3   300  HEM300      0.0000
     31  CAC       17.3770    7.8180   24.5300 C.2   300  HEM300      0.0000
     32  CBC       17.4700    7.1950   25.7010 C.2   300  HEM300      0.0000
     33  ND        15.9550    8.8480   19.4330 N.2   300  HEM300      0.0000
     34  C1D       17.0910    8.9050   20.2530 C.2   300  HEM300      0.0000
     35  C2D       18.1920    9.5270   19.5640 C.2   300  HEM300      0.0000
     36  C3D       17.6800    9.8740   18.2020 C.2   300  HEM300      0.0000
     37  C4D       16.3040    9.4400   18.2110 C.2   300  HEM300      0.0000
     38  CMD       19.5930    9.7520   20.1360 C.3   300  HEM300      0.0000
     39  CAD       18.3970   10.6090   17.0690 C.3   300  HEM300      0.0000
     40  CBD       18.7320    9.7140   15.9130 C.3   300  HEM300      0.0000
     41  CGD       19.5260   10.5900   14.9700 C.2   300  HEM300      0.0000
     42  O1D       20.7650   10.6670   15.1520 O.co2 300  HEM300      0.0000
     43  O2D       18.9260   11.1540   14.0030 O.co2 300  HEM300      0.0000
@<TRIPOS>BOND
     1    16    14   ar
     2    13    14    1
     3    13    12    1
     4    14    15   ar
     5    43    41   ar
     6    12     8    1
     7    41    42   ar
     8    41    40    1
     9    11     9    1
    10    40    39    1
    11     8     9   ar
    12     8     7   ar
    13     9    10   ar
    14     7     2    2
    15     7     6   ar
    16    39    36    1
    17     2    37    1
    18    10     6   ar
    19    10     3    2
    20     6     1    1
    21     3    18    1
    22    36    37    1
    23    36    35    2
    24    37    33    2
    25    33     1    1
    26    33    34    1
    27    18    19    1
    28    18    17    2
    29    22    19    1
    30    35    38    1
    31    35    34    1
    32     1    17    1
    33     1    25    1
    34    19    20    2
    35    34     5    2
    36    17    21    1
    37    20    21    1
    38    20    23    1
    39     5    29    1
    40    21     4    2
    41    25    29   ar
    42    25    26   ar
    43    29    28   ar
    44    24    23    2
    45     4    26    1
    46    26    27   ar
    47    28    27   ar
    48    28    31    1
    49    27    30    1
    50    31    32    2
