@<TRIPOS>MOLECULE
1j78_VDY_B_1.pdb
 29 31 0 0 0
SMALL
GASTEIGER

@<TRIPOS>ATOM
      1  O1       -28.7870  -57.4400   45.4300 O.3   500  VDY500     -0.2231
      2  O2       -17.3380  -54.8940   48.3550 O.3   500  VDY500     -0.2257
      3  C1       -25.7360  -55.9060   43.6340 C.3   500  VDY500      0.0246
      4  C2       -27.2190  -56.3250   43.8820 C.3   500  VDY500      0.0372
      5  C3       -27.3940  -57.2400   45.1150 C.3   500  VDY500      0.1527
      6  C4       -26.7010  -56.6530   46.3570 C.3   500  VDY500      0.0372
      7  C5       -25.2400  -56.3340   46.0830 C.3   500  VDY500      0.0252
      8  C6       -24.2520  -56.9280   46.7810 C.3   500  VDY500      0.0295
      9  C7       -22.8720  -57.0490   46.3900 C.2   500  VDY500     -0.0343
     10  C8       -21.7680  -57.1010   47.1470 C.2   500  VDY500     -0.0488
     11  C9       -21.7310  -57.0390   48.6630 C.3   500  VDY500      0.0217
     12  C10      -25.0630  -55.3970   44.8950 C.2   500  VDY500     -0.0441
     13  C11      -20.8630  -58.1500   49.2690 C.3   500  VDY500      0.0043
     14  C12      -19.4530  -58.2400   48.6250 C.3   500  VDY500      0.0006
     15  C13      -19.4750  -58.3730   47.0730 C.3   500  VDY500      0.0034
     16  C14      -20.3700  -57.1880   46.5250 C.3   500  VDY500      0.0180
     17  C15      -20.2050  -57.3250   44.9730 C.3   500  VDY500      0.0040
     18  C16      -18.7610  -57.8510   44.7980 C.3   500  VDY500      0.0003
     19  C17      -18.1870  -57.9560   46.2210 C.3   500  VDY500      0.0003
     20  C18      -20.0600  -59.7820   46.6900 C.3   500  VDY500      0.0003
     21  C19      -24.4160  -54.2250   44.9260 C.2   500  VDY500     -0.0091
     22  C20      -16.8330  -58.7650   46.2260 C.3   500  VDY500      0.0000
     23  C21      -16.8800  -60.2940   46.0230 C.3   500  VDY500      0.0000
     24  C22      -16.0360  -58.4500   47.5370 C.3   500  VDY500      0.0001
     25  C23      -15.4250  -57.0480   47.6500 C.3   500  VDY500      0.0025
     26  C24      -15.6340  -56.4510   49.0660 C.3   500  VDY500      0.0304
     27  C25      -16.1970  -55.0300   49.2400 C.3   500  VDY500      0.1268
     28  C26      -16.6850  -54.7670   50.6580 C.3   500  VDY500      0.0329
     29  C27      -15.1480  -53.9770   48.8450 C.3   500  VDY500      0.0329
@<TRIPOS>BOND
     1     3     4    1
     2     3    12    1
     3     4     5    1
     4    18    17    1
     5    18    19    1
     6    12    21    2
     7    12     7    1
     8    17    16    1
     9     5     1    1
    10     5     6    1
    11    23    22    1
    12     7     6    1
    13     7     8    1
    14    19    22    1
    15    19    15    1
    16    22    24    1
    17     9     8    1
    18     9    10    2
    19    16    15    1
    20    16    10    1
    21    20    15    1
    22    15    14    1
    23    10    11    1
    24    24    25    1
    25    25    26    1
    26     2    27    1
    27    14    13    1
    28    11    13    1
    29    29    27    1
    30    26    27    1
    31    27    28    1
