@<TRIPOS>MOLECULE
1j79_NCD_A_1.pdb
 12 11 0 0 0
SMALL
GASTEIGER

@<TRIPOS>ATOM
      1  C6        15.8620   19.9760   76.6110 C.3   950  NCD950      0.2106
      2  C61       15.5870   18.4830   76.1880 C.2   950  NCD950      0.3848
      3  O61       16.4470   17.6090   76.2870 O.co2 950  NCD950     -0.2437
      4  O62       14.4440   18.0730   75.8070 O.co2 950  NCD950     -0.2437
      5  N1        14.7470   20.8530   76.2900 N.am  950  NCD950     -0.1754
      6  C2        13.4770   20.7240   76.8100 C.2   950  NCD950      0.3594
      7  O2        12.5930   21.5610   76.5390 O.2   950  NCD950     -0.2474
      8  N3        13.1470   19.7080   77.5910 N.am  950  NCD950     -0.0679
      9  C5        16.1920   20.0210   78.0740 C.3   950  NCD950      0.1473
     10  C4        17.5990   19.4780   78.3320 C.2   950  NCD950      0.3672
     11  O4        18.1800   19.8790   79.3180 O.co2 950  NCD950     -0.2456
     12  O5        18.0770   18.5740   77.6260 O.co2 950  NCD950     -0.2456
@<TRIPOS>BOND
     1     4     2   ar
     2     2     3   ar
     3     2     1    1
     4     5     1    1
     5     5     6   am
     6     7     6    2
     7     1     9    1
     8     6     8   am
     9    12    10   ar
    10     9    10    1
    11    10    11   ar
