@<TRIPOS>MOLECULE
1j7e_JY_A_1.pdb
 30 33 0 0 0
SMALL
GASTEIGER

@<TRIPOS>ATOM
      1  O2        23.2260  100.3910   18.9630 O.3   501  JY501      -0.2228
      2  C1        25.0080   97.6200   16.9200 C.3   501  JY501       0.0287
      3  C2        24.3140   98.9760   17.2310 C.3   501  JY501       0.0379
      4  C3        23.5620   99.0480   18.6200 C.3   501  JY501       0.1567
      5  C4        24.3880   98.4840   19.8160 C.3   501  JY501       0.0589
      6  C5        25.1400   97.1880   19.4720 C.2   501  JY501      -0.0236
      7  C6        25.1200   96.0650   20.3820 C.2   501  JY501      -0.0051
      8  C7        25.5430   94.6860   19.9610 C.2   501  JY501      -0.0088
      9  C8        26.1380   93.7470   20.7500 C.2   501  JY501      -0.0446
     10  C9        26.5350   93.9760   22.2300 C.3   501  JY501       0.0220
     11  C10       25.8560   97.2060   18.1180 C.2   501  JY501      -0.0260
     12  C11       25.9900   92.8770   23.1840 C.3   501  JY501       0.0044
     13  C12       26.3290   91.4290   22.6880 C.3   501  JY501       0.0006
     14  C13       25.9000   91.1650   21.1870 C.3   501  JY501       0.0035
     15  C14       26.4770   92.3180   20.3030 C.3   501  JY501       0.0183
     16  C15       26.1150   91.8400   18.8460 C.3   501  JY501       0.0040
     17  C16       26.2280   90.2820   18.9270 C.3   501  JY501       0.0003
     18  C17       26.6340   89.9860   20.4030 C.3   501  JY501       0.0006
     19  C18       24.3100   91.1400   21.1780 C.3   501  JY501       0.0003
     20  C19       27.1830   96.9380   18.0020 C.2   501  JY501      -0.0049
     21  C20       26.4800   88.4300   20.7880 C.3   501  JY501       0.0044
     22  C21       25.0060   87.9620   20.9090 C.3   501  JY501       0.0003
     23  C22       27.2270   88.0050   22.0950 C.3   501  JY501       0.0264
     24  C23       31.0820   88.3510   21.9520 C.ar  501  JY501       0.0030
     25  C24       31.4670   87.1000   21.4080 C.ar  501  JY501       0.0420
     26  C25       30.4700   86.1230   21.0770 C.ar  501  JY501       0.1954
     27  C26       29.1020   86.4310   21.3040 C.ar  501  JY501       0.0378
     28  C27       28.7010   87.6830   21.8500 C.ar  501  JY501      -0.0190
     29  C28       29.7100   88.6370   22.1710 C.ar  501  JY501      -0.0041
     30  O1        30.8770   84.9350   20.5560 O.3   501  JY501      -0.2866
@<TRIPOS>BOND
     1     2     3    1
     2     2    11    1
     3     3     4    1
     4    20    11    2
     5    11     6    1
     6     4     1    1
     7     4     5    1
     8    16    17    1
     9    16    15    1
    10    17    18    1
    11     6     5    1
    12     6     7    2
    13     8     7    1
    14     8     9    2
    15    15     9    1
    16    15    14    1
    17    18    21    1
    18    18    14    1
    19    30    26    1
    20     9    10    1
    21    21    22    1
    22    21    23    1
    23    26    27   ar
    24    26    25   ar
    25    19    14    1
    26    14    13    1
    27    27    28   ar
    28    25    24   ar
    29    28    23    1
    30    28    29   ar
    31    24    29   ar
    32    10    12    1
    33    13    12    1
