@<TRIPOS>MOLECULE
1j7k_ATP_A_1.pdb
 31 33 0 0 0
SMALL
GASTEIGER

@<TRIPOS>ATOM
      1  PG        65.6880  -19.0860  -25.8400 P.3   2060  ATP2060     0.5373
      2  O1G       67.1330  -19.1660  -25.8050 O.3   2060  ATP2060    -0.1143
      3  O2G       65.0960  -18.9100  -24.5100 O.3   2060  ATP2060    -0.1143
      4  O3G       65.2410  -18.0840  -26.9120 O.2   2060  ATP2060    -0.2221
      5  PB        64.4610  -21.0860  -27.6470 P.3   2060  ATP2060     0.2277
      6  O1B       65.3690  -20.8350  -28.8090 O.2   2060  ATP2060    -0.5168
      7  O2B       63.0810  -20.5660  -27.7140 O.3   2060  ATP2060    -0.4368
      8  O3B       65.2380  -20.5580  -26.3060 O.3   2060  ATP2060    -0.2258
      9  PA        64.5650  -23.8640  -28.3630 P.3   2060  ATP2060     0.2189
     10  O1A       63.6970  -23.5210  -29.4910 O.2   2060  ATP2060    -0.5170
     11  O2A       65.9640  -24.2820  -28.6270 O.3   2060  ATP2060    -0.4371
     12  O3A       64.4850  -22.6140  -27.3960 O.3   2060  ATP2060    -0.2700
     13  O5'       63.8360  -24.9710  -27.5200 O.3   2060  ATP2060    -0.3112
     14  C5'       62.4130  -24.9760  -27.3220 C.3   2060  ATP2060     0.1813
     15  C4'       62.1130  -24.5280  -25.9210 C.3   2060  ATP2060     0.1821
     16  O4'       60.6560  -24.5450  -25.8150 O.3   2060  ATP2060    -0.3135
     17  C3'       62.6460  -25.4540  -24.8330 C.3   2060  ATP2060     0.2184
     18  O3'       63.1230  -24.6140  -23.7550 O.3   2060  ATP2060    -0.2174
     19  C2'       61.4420  -26.2540  -24.4760 C.3   2060  ATP2060     0.2570
     20  O2'       61.4250  -26.7210  -23.1400 O.3   2060  ATP2060    -0.2130
     21  C1'       60.2530  -25.3260  -24.6920 C.3   2060  ATP2060     0.3186
     22  N9        59.0100  -26.0740  -24.9940 N.pl3 2060  ATP2060    -0.1439
     23  C8        57.7890  -25.9510  -24.3900 C.3   2060  ATP2060     0.3377
     24  N7        56.8610  -26.7330  -24.8400 N.2   2060  ATP2060    -0.2095
     25  C5        57.5210  -27.4410  -25.8350 C.2   2060  ATP2060     0.2526
     26  C6        57.0910  -28.4640  -26.7310 C.2   2060  ATP2060     0.4393
     27  N6        55.8460  -28.9150  -26.6990 N.pl3 2060  ATP2060     0.2180
     28  N1        57.9910  -28.9800  -27.6180 N.2   2060  ATP2060     0.0021
     29  C2        59.2450  -28.5080  -27.6310 C.3   2060  ATP2060     0.5254
     30  N3        59.7770  -27.5530  -26.8440 N.2   2060  ATP2060    -0.0055
     31  C4        58.8350  -27.0450  -25.9520 C.2   2060  ATP2060     0.3518
@<TRIPOS>BOND
     1    10     9    2
     2     6     5    2
     3    11     9    1
     4     9    13    1
     5     9    12    1
     6     7     5    1
     7     5    12    1
     8     5     8    1
     9    29    28    1
    10    29    30    1
    11    28    26    2
    12    13    14    1
    13    14    15    1
    14     4     1    2
    15    30    31    2
    16    26    27    1
    17    26    25    1
    18     8     1    1
    19    31    25    1
    20    31    22    1
    21    15    16    1
    22    15    17    1
    23     1     2    1
    24     1     3    1
    25    25    24    2
    26    16    21    1
    27    22    21    1
    28    22    23    1
    29    24    23    1
    30    17    19    1
    31    17    18    1
    32    21    19    1
    33    19    20    1
