@<TRIPOS>MOLECULE
1j7l_ADP_A_1.pdb
 27 29 0 0 0
SMALL
GASTEIGER

@<TRIPOS>ATOM
      1  PB        25.5840    1.1780   69.2400 P.3   303  ADP303      0.5373
      2  O1B       25.0230    0.6330   70.5030 O.3   303  ADP303     -0.1143
      3  O2B       25.0150    0.7420   67.9490 O.2   303  ADP303     -0.2221
      4  O3B       27.1670    0.8820   69.1870 O.3   303  ADP303     -0.1143
      5  PA        26.5280    3.7970   70.0220 P.3   303  ADP303      0.2231
      6  O1A       25.8280    4.4840   71.1330 O.3   303  ADP303     -0.4370
      7  O2A       27.7820    3.0670   70.2770 O.2   303  ADP303     -0.5169
      8  O3A       25.4880    2.8000   69.2870 O.3   303  ADP303     -0.2261
      9  O5'       26.7960    4.8930   68.8890 O.3   303  ADP303     -0.3111
     10  C5'       27.3320    4.4970   67.6200 C.3   303  ADP303      0.1813
     11  C4'       28.5070    5.3970   67.2730 C.3   303  ADP303      0.1821
     12  O4'       28.0580    6.7430   67.0750 O.3   303  ADP303     -0.3135
     13  C3'       29.5270    5.5200   68.4090 C.3   303  ADP303      0.2184
     14  O3'       30.5890    4.5890   68.1770 O.3   303  ADP303     -0.2174
     15  C2'       30.0270    6.9530   68.2020 C.3   303  ADP303      0.2570
     16  O2'       30.9350    6.9850   67.0890 O.3   303  ADP303     -0.2130
     17  C1'       28.7860    7.7400   67.7950 C.3   303  ADP303      0.3186
     18  N9        28.0630    8.3540   68.9240 N.pl3 303  ADP303     -0.1439
     19  C8        26.8790    7.9730   69.4950 C.3   303  ADP303      0.3377
     20  N7        26.5010    8.7320   70.4850 N.2   303  ADP303     -0.2095
     21  C5        27.5020    9.6850   70.5780 C.2   303  ADP303      0.2526
     22  C6        27.7020   10.7950   71.4400 C.2   303  ADP303      0.4393
     23  N6        26.8510   11.1290   72.4090 N.pl3 303  ADP303      0.2180
     24  N1        28.8140   11.5390   71.2500 N.2   303  ADP303      0.0021
     25  C2        29.6680   11.2030   70.2790 C.3   303  ADP303      0.5254
     26  N3        29.5940   10.1940   69.4140 N.2   303  ADP303     -0.0055
     27  C4        28.4650    9.4630   69.6280 C.2   303  ADP303      0.3518
@<TRIPOS>BOND
     1    12    11    1
     2    12    17    1
     3    16    15    1
     4    11    10    1
     5    11    13    1
     6    10     9    1
     7    17    15    1
     8    17    18    1
     9     3     1    2
    10    14    13    1
    11    15    13    1
    12     9     5    1
    13    18    19    1
    14    18    27    1
    15     4     1    1
    16     1     8    1
    17     1     2    1
    18     8     5    1
    19    26    27    2
    20    26    25    1
    21    19    20    1
    22    27    21    1
    23     5     7    2
    24     5     6    1
    25    25    24    1
    26    20    21    2
    27    21    22    1
    28    24    22    2
    29    22    23    1
