@<TRIPOS>MOLECULE
1j7s_HEM_A_1.pdb
 43 50 0 0 0
SMALL
GASTEIGER

@<TRIPOS>ATOM
      1 FE          8.7780   12.3790   28.1320 Fe    142  HEM142      0.0000
      2  CHA        8.4730   13.2160   31.4720 C.2   142  HEM142      0.0000
      3  CHB        7.2470   15.4580   27.3510 C.2   142  HEM142      0.0000
      4  CHC        8.1140   11.3030   24.9120 C.2   142  HEM142      0.0000
      5  CHD        9.4770    9.1280   29.0600 C.2   142  HEM142      0.0000
      6  NA         7.9790   13.9780   29.1700 N.ar  142  HEM142      0.0000
      7  C1A        8.0150   14.1510   30.5390 C.ar  142  HEM142      0.0000
      8  C2A        7.4370   15.4500   30.8930 C.ar  142  HEM142      0.0000
      9  C3A        7.0820   16.0510   29.8010 C.ar  142  HEM142      0.0000
     10  C4A        7.4300   15.1690   28.6950 C.ar  142  HEM142      0.0000
     11  CMA        6.4220   17.4680   29.6780 C.3   142  HEM142      0.0000
     12  CAA        7.3120   15.9160   32.3950 C.3   142  HEM142      0.0000
     13  CBA        8.4980   16.7240   32.9070 C.3   142  HEM142      0.0000
     14  CGA        8.3020   17.3330   34.2890 C.2   142  HEM142      0.0000
     15  O1A        8.2080   18.5610   34.3150 O.co2 142  HEM142      0.0000
     16  O2A        8.2210   16.5950   35.2900 O.co2 142  HEM142      0.0000
     17  NB         7.9040   13.1890   26.4690 N.2   142  HEM142      0.0000
     18  C1B        7.3920   14.4890   26.3640 C.2   142  HEM142      0.0000
     19  C2B        7.0170   14.7260   24.9870 C.2   142  HEM142      0.0000
     20  C3B        7.2340   13.5990   24.2960 C.2   142  HEM142      0.0000
     21  C4B        7.7410   12.6240   25.2120 C.2   142  HEM142      0.0000
     22  CMB        6.4300   16.0760   24.5100 C.3   142  HEM142      0.0000
     23  CAB        6.9740   13.3860   22.7700 C.2   142  HEM142      0.0000
     24  CBB        6.0210   14.1380   22.2010 C.2   142  HEM142      0.0000
     25  NC         8.7920   10.5940   27.1990 N.ar  142  HEM142      0.0000
     26  C1C        8.5700   10.3690   25.8420 C.ar  142  HEM142      0.0000
     27  C2C        8.8440    8.9550   25.5500 C.ar  142  HEM142      0.0000
     28  C3C        9.2030    8.3570   26.6870 C.ar  142  HEM142      0.0000
     29  C4C        9.1540    9.3760   27.7360 C.ar  142  HEM142      0.0000
     30  CMC        8.7500    8.3910   24.1050 C.3   142  HEM142      0.0000
     31  CAC        9.6430    6.8950   26.9810 C.2   142  HEM142      0.0000
     32  CBC        9.0620    5.8050   26.4120 C.2   142  HEM142      0.0000
     33  ND         8.9510   11.3850   29.8840 N.2   142  HEM142      0.0000
     34  C1D        9.3130   10.0700   30.0670 C.2   142  HEM142      0.0000
     35  C2D        9.5470    9.8090   31.4680 C.2   142  HEM142      0.0000
     36  C3D        9.2660   10.9480   32.1210 C.2   142  HEM142      0.0000
     37  C4D        8.8790   11.9180   31.1730 C.2   142  HEM142      0.0000
     38  CMD       10.0490    8.4470   32.0600 C.3   142  HEM142      0.0000
     39  CAD        9.3490   11.1930   33.6640 C.3   142  HEM142      0.0000
     40  CBD        8.2310   10.4750   34.4320 C.3   142  HEM142      0.0000
     41  CGD        8.1570   10.7330   35.9170 C.2   142  HEM142      0.0000
     42  O1D        7.4950   11.6280   36.4290 O.co2 142  HEM142      0.0000
     43  O2D        8.7400    9.9250   36.6670 O.co2 142  HEM142      0.0000
@<TRIPOS>BOND
     1    24    23    2
     2    23    20    1
     3    30    27    1
     4    20    19    2
     5    20    21    1
     6    22    19    1
     7     4    21    2
     8     4    26    1
     9    19    18    1
    10    21    17    1
    11    27    26   ar
    12    27    28   ar
    13    26    25   ar
    14    18    17    2
    15    18     3    1
    16    32    31    2
    17    17     1    1
    18    28    31    1
    19    28    29   ar
    20    25    29   ar
    21    25     1    1
    22     3    10    2
    23    29     5    1
    24     1     6    1
    25     1    33    1
    26    10     6   ar
    27    10     9   ar
    28     5    34    2
    29     6     7   ar
    30    11     9    1
    31     9     8   ar
    32    33    34    1
    33    33    37    2
    34    34    35    1
    35     7     8   ar
    36     7     2    2
    37     8    12    1
    38    37     2    1
    39    37    36    1
    40    35    38    1
    41    35    36    2
    42    36    39    1
    43    12    13    1
    44    13    14    1
    45    39    40    1
    46    14    15   ar
    47    14    16   ar
    48    40    41    1
    49    41    42   ar
    50    41    43   ar
