@<TRIPOS>MOLECULE
1j7u_ANP_A_1.pdb
 31 33 0 0 0
SMALL
GASTEIGER

@<TRIPOS>ATOM
      1  PG        27.9100   -0.6870   69.9000 P.3   303  ANP303      0.4884
      2  O1G       29.2000   -0.3580   70.5540 O.3   303  ANP303     -0.1240
      3  O2G       27.9850   -1.0270   68.4600 O.2   303  ANP303     -0.2331
      4  O3G       26.9650   -1.4950   70.7100 O.3   303  ANP303     -0.1240
      5  PB        25.7530    1.1970   69.9730 P.3   303  ANP303      0.4669
      6  O1B       25.0830    0.6970   68.7680 O.2   303  ANP303     -0.2351
      7  O2B       25.2470    0.8020   71.3060 O.3   303  ANP303     -0.1253
      8  N3B       27.1910    0.8750   69.8580 N.3   303  ANP303     -0.0163
      9  PA        26.8250    3.7660   70.6710 P.3   303  ANP303      0.2220
     10  O1A       26.1300    4.3970   71.8090 O.3   303  ANP303     -0.4370
     11  O2A       28.0750    3.0240   70.9020 O.2   303  ANP303     -0.5170
     12  O3A       25.7680    2.8070   69.9000 O.3   303  ANP303     -0.2360
     13  O5'       27.1020    4.8810   69.5540 O.3   303  ANP303     -0.3111
     14  C5'       27.6860    4.5140   68.2960 C.3   303  ANP303      0.1813
     15  C4'       28.8350    5.4590   67.9670 C.3   303  ANP303      0.1821
     16  O4'       28.3510    6.7990   67.7700 O.3   303  ANP303     -0.3135
     17  C3'       29.8390    5.6140   69.1110 C.3   303  ANP303      0.2184
     18  O3'       30.9180    4.6980   68.9110 O.3   303  ANP303     -0.2174
     19  C2'       30.3320    7.0390   68.8590 C.3   303  ANP303      0.2570
     20  O2'       31.2030    7.0290   67.7170 O.3   303  ANP303     -0.2130
     21  C1'       29.0790    7.8140   68.4730 C.3   303  ANP303      0.3186
     22  N9        28.3680    8.4210   69.6220 N.pl3 303  ANP303     -0.1439
     23  C8        27.1940    8.0360   70.1990 C.3   303  ANP303      0.3377
     24  N7        26.8250    8.7800   71.2060 N.2   303  ANP303     -0.2095
     25  C5        27.8280    9.7310   71.3050 C.2   303  ANP303      0.2526
     26  C6        28.0370   10.8340   72.1890 C.2   303  ANP303      0.4393
     27  N6        27.1970   11.1570   73.1700 N.pl3 303  ANP303      0.2180
     28  N1        29.1480   11.5730   72.0050 N.2   303  ANP303      0.0021
     29  C2        29.9890   11.2470   71.0190 C.3   303  ANP303      0.5254
     30  N3        29.9000   10.2510   70.1370 N.2   303  ANP303     -0.0055
     31  C4        28.7780    9.5220   70.3430 C.2   303  ANP303      0.3518
@<TRIPOS>BOND
     1    20    19    1
     2    16    15    1
     3    16    21    1
     4    15    14    1
     5    15    17    1
     6    14    13    1
     7     3     1    2
     8    21    19    1
     9    21    22    1
    10     6     5    2
    11    19    17    1
    12    18    17    1
    13    13     9    1
    14    22    23    1
    15    22    31    1
    16     8     1    1
    17     8     5    1
    18    12     5    1
    19    12     9    1
    20     1     2    1
    21     1     4    1
    22     5     7    1
    23    30    31    2
    24    30    29    1
    25    23    24    1
    26    31    25    1
    27     9    11    2
    28     9    10    1
    29    29    28    1
    30    24    25    2
    31    25    26    1
    32    28    26    2
    33    26    27    1
