@<TRIPOS>MOLECULE
1j7w_HEM_A_1.pdb
 43 50 0 0 0
SMALL
GASTEIGER

@<TRIPOS>ATOM
      1 FE          8.7650   12.4280   28.0540 Fe    142  HEM142      0.0000
      2  CHA        8.7250   13.3620   31.3280 C.2   142  HEM142      0.0000
      3  CHB        7.0730   15.4530   27.2750 C.2   142  HEM142      0.0000
      4  CHC        8.3830   11.3650   24.8790 C.2   142  HEM142      0.0000
      5  CHD        9.6130    9.1370   28.9830 C.2   142  HEM142      0.0000
      6  NA         8.1220   14.1100   29.0870 N.ar  142  HEM142      0.0000
      7  C1A        8.1580   14.2700   30.4470 C.ar  142  HEM142      0.0000
      8  C2A        7.4680   15.5090   30.8140 C.ar  142  HEM142      0.0000
      9  C3A        7.0280   16.0830   29.7000 C.ar  142  HEM142      0.0000
     10  C4A        7.4180   15.2090   28.5980 C.ar  142  HEM142      0.0000
     11  CMA        6.2320   17.4310   29.5420 C.3   142  HEM142      0.0000
     12  CAA        7.3490   16.0490   32.2810 C.3   142  HEM142      0.0000
     13  CBA        8.6200   16.8370   32.6760 C.3   142  HEM142      0.0000
     14  CGA        8.4940   17.7310   33.9010 C.2   142  HEM142      0.0000
     15  O1A        8.8120   18.9510   33.7340 O.co2 142  HEM142      0.0000
     16  O2A        8.0910   17.2070   34.9690 O.co2 142  HEM142      0.0000
     17  NB         7.9070   13.2490   26.4310 N.2   142  HEM142      0.0000
     18  C1B        7.2960   14.4940   26.2660 C.2   142  HEM142      0.0000
     19  C2B        6.9200   14.6840   24.8860 C.2   142  HEM142      0.0000
     20  C3B        7.2710   13.5560   24.2180 C.2   142  HEM142      0.0000
     21  C4B        7.8910   12.6460   25.1710 C.2   142  HEM142      0.0000
     22  CMB        6.2760   15.9970   24.3330 C.3   142  HEM142      0.0000
     23  CAB        7.1420   13.2280   22.7320 C.2   142  HEM142      0.0000
     24  CBB        6.3590   13.7600   21.8290 C.2   142  HEM142      0.0000
     25  NC         9.0100   10.6250   27.0900 N.ar  142  HEM142      0.0000
     26  C1C        8.7960   10.3930   25.7560 C.ar  142  HEM142      0.0000
     27  C2C        9.0280    8.9540   25.4650 C.ar  142  HEM142      0.0000
     28  C3C        9.3080    8.3550   26.6230 C.ar  142  HEM142      0.0000
     29  C4C        9.2820    9.3910   27.6590 C.ar  142  HEM142      0.0000
     30  CMC        8.9000    8.2960   24.0730 C.3   142  HEM142      0.0000
     31  CAC        9.6840    6.8760   26.9310 C.2   142  HEM142      0.0000
     32  CBC        9.0270    5.8110   26.3720 C.2   142  HEM142      0.0000
     33  ND         9.0970   11.4420   29.7600 N.2   142  HEM142      0.0000
     34  C1D        9.4710   10.1160   29.9740 C.2   142  HEM142      0.0000
     35  C2D        9.6640    9.8740   31.3810 C.2   142  HEM142      0.0000
     36  C3D        9.4280   11.0610   32.0170 C.2   142  HEM142      0.0000
     37  C4D        9.0380   12.0380   31.0390 C.2   142  HEM142      0.0000
     38  CMD       10.0750    8.4930   31.9760 C.3   142  HEM142      0.0000
     39  CAD        9.4690   11.3940   33.5190 C.3   142  HEM142      0.0000
     40  CBD        8.2160   10.9580   34.2710 C.3   142  HEM142      0.0000
     41  CGD        8.0870   11.1650   35.7330 C.2   142  HEM142      0.0000
     42  O1D        7.3620   12.0900   36.1710 O.co2 142  HEM142      0.0000
     43  O2D        8.6750   10.3690   36.4940 O.co2 142  HEM142      0.0000
@<TRIPOS>BOND
     1    24    23    2
     2    23    20    1
     3    30    27    1
     4    20    19    2
     5    20    21    1
     6    22    19    1
     7     4    21    2
     8     4    26    1
     9    19    18    1
    10    21    17    1
    11    27    26   ar
    12    27    28   ar
    13    26    25   ar
    14    18    17    2
    15    18     3    1
    16    32    31    2
    17    17     1    1
    18    28    31    1
    19    28    29   ar
    20    25    29   ar
    21    25     1    1
    22     3    10    2
    23    29     5    1
    24     1     6    1
    25     1    33    1
    26    10     6   ar
    27    10     9   ar
    28     5    34    2
    29     6     7   ar
    30    11     9    1
    31     9     8   ar
    32    33    34    1
    33    33    37    2
    34    34    35    1
    35     7     8   ar
    36     7     2    2
    37     8    12    1
    38    37     2    1
    39    37    36    1
    40    35    38    1
    41    35    36    2
    42    36    39    1
    43    12    13    1
    44    13    14    1
    45    39    40    1
    46    15    14   ar
    47    14    16   ar
    48    40    41    1
    49    41    42   ar
    50    41    43   ar
