@<TRIPOS>MOLECULE
1j7y_HEM_A_1.pdb
 43 50 0 0 0
SMALL
GASTEIGER

@<TRIPOS>ATOM
      1 FE          8.4810   12.3280   27.7830 Fe    142  HEM142      0.0000
      2  CHA        8.2630   13.1870   31.1700 C.2   142  HEM142      0.0000
      3  CHB        7.0410   15.3010   26.9600 C.2   142  HEM142      0.0000
      4  CHC        7.9840   11.2100   24.5440 C.2   142  HEM142      0.0000
      5  CHD        9.1540    9.0600   28.7270 C.2   142  HEM142      0.0000
      6  NA         7.8010   13.9300   28.8440 N.ar  142  HEM142      0.0000
      7  C1A        7.7650   14.0900   30.2310 C.ar  142  HEM142      0.0000
      8  C2A        7.1780   15.3830   30.5400 C.ar  142  HEM142      0.0000
      9  C3A        6.7990   15.9520   29.4030 C.ar  142  HEM142      0.0000
     10  C4A        7.2170   15.0660   28.3300 C.ar  142  HEM142      0.0000
     11  CMA        6.1490   17.3300   29.1610 C.3   142  HEM142      0.0000
     12  CAA        6.9990   15.9210   31.9850 C.3   142  HEM142      0.0000
     13  CBA        8.2450   16.7430   32.4060 C.3   142  HEM142      0.0000
     14  CGA        8.1990   17.2620   33.8280 C.2   142  HEM142      0.0000
     15  O1A        8.8960   18.2690   34.0650 O.co2 142  HEM142      0.0000
     16  O2A        7.5030   16.6460   34.6460 O.co2 142  HEM142      0.0000
     17  NB         7.6500   13.0830   26.0850 N.2   142  HEM142      0.0000
     18  C1B        7.2080   14.3900   25.9110 C.2   142  HEM142      0.0000
     19  C2B        6.7990   14.5970   24.5530 C.2   142  HEM142      0.0000
     20  C3B        7.0410   13.4570   23.8780 C.2   142  HEM142      0.0000
     21  C4B        7.5820   12.5040   24.8410 C.2   142  HEM142      0.0000
     22  CMB        6.2280   15.9190   23.9990 C.3   142  HEM142      0.0000
     23  CAB        6.8370   13.1440   22.3850 C.2   142  HEM142      0.0000
     24  CBB        5.7630   13.6600   21.7440 C.2   142  HEM142      0.0000
     25  NC         8.5290   10.5120   26.8370 N.ar  142  HEM142      0.0000
     26  C1C        8.3640   10.2770   25.4830 C.ar  142  HEM142      0.0000
     27  C2C        8.5580    8.8600   25.2050 C.ar  142  HEM142      0.0000
     28  C3C        8.8790    8.2560   26.3620 C.ar  142  HEM142      0.0000
     29  C4C        8.8540    9.2860   27.3820 C.ar  142  HEM142      0.0000
     30  CMC        8.4660    8.2060   23.8080 C.3   142  HEM142      0.0000
     31  CAC        9.1770    6.7870   26.6650 C.2   142  HEM142      0.0000
     32  CBC        8.6500    5.7340   25.9820 C.2   142  HEM142      0.0000
     33  ND         8.6290   11.3450   29.5510 N.2   142  HEM142      0.0000
     34  C1D        9.0020   10.0230   29.7110 C.2   142  HEM142      0.0000
     35  C2D        9.2570    9.7530   31.1180 C.2   142  HEM142      0.0000
     36  C3D        9.0010   10.8680   31.7830 C.2   142  HEM142      0.0000
     37  C4D        8.6250   11.8910   30.8380 C.2   142  HEM142      0.0000
     38  CMD        9.7210    8.3780   31.6500 C.3   142  HEM142      0.0000
     39  CAD        9.0690   11.1140   33.3250 C.3   142  HEM142      0.0000
     40  CBD        7.7950   10.6050   34.0140 C.3   142  HEM142      0.0000
     41  CGD        7.7380   10.6120   35.5200 C.2   142  HEM142      0.0000
     42  O1D        6.7810   11.2210   36.0500 O.co2 142  HEM142      0.0000
     43  O2D        8.6290    9.9660   36.1310 O.co2 142  HEM142      0.0000
@<TRIPOS>BOND
     1    24    23    2
     2    23    20    1
     3    30    27    1
     4    20    19    2
     5    20    21    1
     6    22    19    1
     7     4    21    2
     8     4    26    1
     9    19    18    1
    10    21    17    1
    11    27    26   ar
    12    27    28   ar
    13    26    25   ar
    14    18    17    2
    15    18     3    1
    16    32    31    2
    17    17     1    1
    18    28    31    1
    19    28    29   ar
    20    25    29   ar
    21    25     1    1
    22     3    10    2
    23    29     5    1
    24     1     6    1
    25     1    33    1
    26    10     6   ar
    27    10     9   ar
    28     5    34    2
    29     6     7   ar
    30    11     9    1
    31     9     8   ar
    32    33    34    1
    33    33    37    2
    34    34    35    1
    35     7     8   ar
    36     7     2    2
    37     8    12    1
    38    37     2    1
    39    37    36    1
    40    35    38    1
    41    35    36    2
    42    36    39    1
    43    12    13    1
    44    13    14    1
    45    39    40    1
    46    14    15   ar
    47    14    16   ar
    48    40    41    1
    49    41    42   ar
    50    41    43   ar
