@<TRIPOS>MOLECULE
1j84_BGC_A_1.pdb
 12 12 0 0 0
SMALL
GASTEIGER

@<TRIPOS>ATOM
      1  C2        22.2140   49.8720   60.5160 C.3   401  BGC401      0.2434
      2  C3        22.5990   49.2870   59.1760 C.3   401  BGC401      0.2199
      3  C4        23.9620   48.6020   59.2880 C.3   401  BGC401      0.2144
      4  C5        23.8510   47.5050   60.3210 C.3   401  BGC401      0.1836
      5  C6        25.1590   46.7620   60.5590 C.3   401  BGC401      0.2142
      6  C1        22.1530   48.7300   61.5310 C.3   401  BGC401      0.3024
      7  O1        21.9130   49.2670   62.7840 O.3   401  BGC401     -0.1869
      8  O2        20.9470   50.5450   60.4310 O.3   401  BGC401     -0.2148
      9  O3        22.6670   50.3300   58.2250 O.3   401  BGC401     -0.2174
     10  O4        24.3120   48.0160   58.0170 O.3   401  BGC401     -0.2176
     11  O5        23.4400   48.0650   61.5930 O.3   401  BGC401     -0.3236
     12  O6        25.3330   46.4860   61.9460 O.3   401  BGC401     -0.2176
@<TRIPOS>BOND
     1    10     3    1
     2     9     2    1
     3     2     3    1
     4     2     1    1
     5     3     4    1
     6     4     5    1
     7     4    11    1
     8     8     1    1
     9     1     6    1
    10     5    12    1
    11     6    11    1
    12     6     7    1
