@<TRIPOS>MOLECULE
1j8q_FMN_A_1.pdb
 31 33 0 0 0
SMALL
GASTEIGER

@<TRIPOS>ATOM
      1  N1        24.9680   13.1610   82.6830 N.2   149  FMN149     -0.2887
      2  C2        23.9140   13.8690   83.1480 C.1   149  FMN149      0.3669
      3  O2        23.7880   14.5460   84.1940 O.2   149  FMN149     -0.1744
      4  N3        22.7200   14.0050   82.2830 N.2   149  FMN149     -0.2300
      5  C4        22.6980   13.4680   81.0100 C.1   149  FMN149      0.2513
      6  O4        21.6690   13.5660   80.3010 O.2   149  FMN149     -0.2057
      7  C4A       23.8430   12.7410   80.6190 C.2   149  FMN149      0.2706
      8  N5        23.8350   12.0950   79.3930 N.2   149  FMN149     -0.3841
      9  C5A       24.9760   11.5360   78.9910 C.2   149  FMN149      0.1452
     10  C6        25.1760   11.0160   77.5970 C.2   149  FMN149      0.0252
     11  C7        26.3010   10.4570   77.1950 C.2   149  FMN149     -0.0375
     12  C7M       26.3700   10.0600   75.7730 C.3   149  FMN149      0.0268
     13  C8        27.3670   10.3270   78.1070 C.3   149  FMN149      0.0417
     14  C8M       28.6530    9.7930   77.6170 C.3   149  FMN149      0.0091
     15  C9        27.2240   10.7370   79.4550 C.2   149  FMN149     -0.0049
     16  C9A       26.0810   11.3080   79.7960 C.2   149  FMN149      0.0795
     17  N10       26.0120   11.9270   81.1560 N.pl3 149  FMN149     -0.2545
     18  C10       24.9150   12.5550   81.4740 C.2   149  FMN149      0.2449
     19  C1'       27.1460   11.6950   82.0900 C.3   149  FMN149      0.1336
     20  C2'       27.2170   10.3730   82.7270 C.3   149  FMN149      0.2048
     21  O2'       26.1760   10.3860   83.8010 O.3   149  FMN149     -0.2185
     22  C3'       28.5600   10.2200   83.4310 C.3   149  FMN149      0.2165
     23  O3'       29.4350    9.7740   82.3970 O.3   149  FMN149     -0.2175
     24  C4'       28.5960    9.4060   84.6440 C.3   149  FMN149      0.2147
     25  O4'       29.8520    9.4360   85.3060 O.3   149  FMN149     -0.2176
     26  C5'       28.3780    7.9020   84.2760 C.3   149  FMN149      0.1892
     27  O5'       28.2670    7.2080   85.6010 O.3   149  FMN149     -0.2674
     28  P         28.2490    5.5980   85.6410 P.3   149  FMN149      0.5327
     29  O1P       27.9130    5.2570   87.0780 O.3   149  FMN149     -0.1145
     30  O2P       29.6380    5.1630   85.2520 O.3   149  FMN149     -0.1145
     31  O3P       27.1990    5.0810   84.6690 O.2   149  FMN149     -0.2224
@<TRIPOS>BOND
     1    12    11    1
     2    11    10    2
     3    11    13    1
     4    10     9    1
     5    14    13    1
     6    13    15    1
     7     9     8    2
     8     9    16    1
     9     8     7    2
    10    15    16    2
    11    16    17    1
    12     6     5    2
    13     7     5    1
    14     7    18    1
    15     5     4    2
    16    17    18    1
    17    17    19    1
    18    18     1    2
    19    19    20    1
    20     4     2    2
    21    23    22    1
    22     1     2    2
    23    20    22    1
    24    20    21    1
    25     2     3    2
    26    22    24    1
    27    26    24    1
    28    26    27    1
    29    24    25    1
    30    31    28    2
    31    30    28    1
    32    27    28    1
    33    28    29    1
