@<TRIPOS>MOLECULE
1j8r_GLA_A_1.pdb
 11 11 0 0 0
SMALL
GASTEIGER

@<TRIPOS>ATOM
      1  C1        17.0460   16.0750   60.8340 C.3   202  GLA202      0.1777
      2  C2        15.5660   15.9110   61.1910 C.3   202  GLA202      0.2141
      3  C3        14.9680   14.7450   60.4460 C.3   202  GLA202      0.2173
      4  C4        15.1000   14.9460   58.8780 C.3   202  GLA202      0.2142
      5  C5        16.5730   15.0620   58.5580 C.3   202  GLA202      0.1810
      6  C6        16.8810   15.3220   57.0420 C.3   202  GLA202      0.2141
      7  O2        15.4260   15.7500   62.5610 O.3   202  GLA202     -0.2176
      8  O3        13.5780   14.6390   60.8270 O.3   202  GLA202     -0.2175
      9  O4        14.4570   16.0940   58.4670 O.3   202  GLA202     -0.2176
     10  O5        17.2020   16.1420   59.4190 O.3   202  GLA202     -0.3481
     11  O6        18.3130   15.3410   56.8540 O.3   202  GLA202     -0.2176
@<TRIPOS>BOND
     1    11     6    1
     2     6     5    1
     3     9     4    1
     4     5     4    1
     5     5    10    1
     6     4     3    1
     7    10     1    1
     8     3     8    1
     9     3     2    1
    10     1     2    1
    11     2     7    1
