@<TRIPOS>MOLECULE
1j8r_GAL_A_1.pdb
 11 11 0 0 0
SMALL
GASTEIGER

@<TRIPOS>ATOM
      1  C1        19.8210   12.3530   62.6020 C.3   203  GAL203      0.1777
      2  C2        19.5280   12.3950   61.1040 C.3   203  GAL203      0.2141
      3  C3        19.9680   13.7230   60.5060 C.3   203  GAL203      0.2173
      4  C4        19.1630   14.8130   61.1650 C.3   203  GAL203      0.2142
      5  C5        19.4480   14.7790   62.7410 C.3   203  GAL203      0.1810
      6  C6        18.7480   15.7940   63.6500 C.3   203  GAL203      0.2141
      7  O2        20.2520   11.3070   60.5000 O.3   203  GAL203     -0.2176
      8  O3        19.6810   13.7490   59.1270 O.3   203  GAL203     -0.2175
      9  O4        17.8090   15.0620   61.5020 O.3   203  GAL203     -0.2176
     10  O5        19.1660   13.4400   63.3080 O.3   203  GAL203     -0.3481
     11  O6        19.2180   17.0980   63.3760 O.3   203  GAL203     -0.2176
@<TRIPOS>BOND
     1     8     3    1
     2     7     2    1
     3     3     2    1
     4     3     4    1
     5     2     1    1
     6     4     9    1
     7     4     5    1
     8     1    10    1
     9     5    10    1
    10     5     6    1
    11    11     6    1
