@<TRIPOS>MOLECULE
1j8u_H4B_A_1.pdb
 17 18 0 0 0
SMALL
GASTEIGER

@<TRIPOS>ATOM
      1  N1        -7.4590   22.6190    7.3780 N.2   429  H4B429     -0.2683
      2  C2        -6.3820   21.8990    7.6440 C.1   429  H4B429      0.2608
      3  N2        -6.5680   20.6180    8.1180 N.pl3 429  H4B429     -0.0220
      4  N3        -5.0850   22.3480    7.5570 N.2   429  H4B429     -0.2474
      5  C4        -4.8020   23.7370    7.3320 C.1   429  H4B429      0.2441
      6  O4        -3.6240   24.1440    7.1990 O.2   429  H4B429     -0.2063
      7  C4A       -5.9800   24.5120    7.0410 C.2   429  H4B429      0.2463
      8  C8A       -7.2400   23.9270    6.9950 C.1   429  H4B429      0.1270
      9  N5        -5.8080   25.8700    6.6590 N.2   429  H4B429     -0.2460
     10  N8        -8.3270   24.7300    6.8350 N.2   429  H4B429     -0.2054
     11  C6        -6.9390   26.7930    6.8620 C.3   429  H4B429      0.1627
     12  C7        -8.2100   26.1160    6.3310 C.3   429  H4B429      0.1643
     13  C9        -6.4540   28.1330    6.2580 C.3   429  H4B429      0.2063
     14  O9        -6.3770   28.0370    4.8220 O.3   429  H4B429     -0.2183
     15  C10       -7.3660   29.3570    6.4970 C.3   429  H4B429      0.1842
     16  C11       -7.4840   29.6870    7.9760 C.3   429  H4B429      0.0383
     17  O10       -8.6520   28.9500    5.9160 O.3   429  H4B429     -0.2204
@<TRIPOS>BOND
     1    14    13    1
     2    17    15    1
     3    13    15    1
     4    13    11    1
     5    12    10    1
     6    12    11    1
     7    15    16    1
     8     9    11    1
     9     9     7    2
    10    10     8    2
    11     8     7    1
    12     8     1    2
    13     7     5    1
    14     6     5    2
    15     5     4    2
    16     1     2    2
    17     4     2    2
    18     2     3    1
