@<TRIPOS>MOLECULE
1j8v_LAM_A_1.pdb
 23 24 0 0 0
SMALL
GASTEIGER

@<TRIPOS>ATOM
      1  C1        25.6460   26.3700   35.8210 C.3   621  LAM621      0.1956
      2  C2        24.8740   25.4080   36.8980 C.3   621  LAM621      0.2219
      3  O2        25.8460   25.0570   37.9910 O.3   621  LAM621     -0.2167
      4  C3        24.2750   24.0640   36.2120 C.3   621  LAM621      0.2181
      5  O3        23.3550   23.3830   37.1430 O.3   621  LAM621     -0.2175
      6  C4        23.4700   24.4260   34.8570 C.3   621  LAM621      0.2143
      7  O4        22.9420   23.2490   34.3620 O.3   621  LAM621     -0.2176
      8  C5        24.5790   25.1190   33.8420 C.3   621  LAM621      0.1820
      9  O5        24.9780   26.4300   34.5220 O.3   621  LAM621     -0.3398
     10  C6        24.2240   25.4940   32.3470 C.3   621  LAM621      0.2142
     11  O6        23.6600   26.8710   32.2680 O.3   621  LAM621     -0.2176
     12  C1A       28.3600   30.9520   35.7900 C.3   621  LAM621      0.3006
     13  C2A       27.4020   29.7490   36.4930 C.3   621  LAM621      0.2232
     14  C3A       26.3570   29.0670   35.3770 C.3   621  LAM621      0.1183
     15  C4A       25.4390   30.1800   34.6100 C.3   621  LAM621      0.1941
     16  C5A       26.4230   31.4550   33.9910 C.3   621  LAM621      0.1818
     17  C6A       25.5670   32.7370   33.5160 C.3   621  LAM621      0.2141
     18  O1A       29.3680   31.5600   36.7780 O.3   621  LAM621     -0.1870
     19  O2A       28.2240   28.6400   37.2050 O.3   621  LAM621     -0.2166
     20  O4A       24.5250   29.4340   33.5730 O.3   621  LAM621     -0.2194
     21  S3A       25.2000   28.0480   36.3310 S.3   621  LAM621     -0.1048
     22  O5A       27.4950   32.0260   35.0130 O.3   621  LAM621     -0.3237
     23  O6A       24.8320   32.3870   32.3110 O.3   621  LAM621     -0.2176
@<TRIPOS>BOND
     1    11    10    1
     2    23    17    1
     3    10     8    1
     4    17    16    1
     5    20    15    1
     6     8     9    1
     7     8     6    1
     8    16    15    1
     9    16    22    1
    10     7     6    1
    11     9     1    1
    12    15    14    1
    13     6     4    1
    14    22    12    1
    15    14    21    1
    16    14    13    1
    17    12    13    1
    18    12    18    1
    19     1    21    1
    20     1     2    1
    21     4     2    1
    22     4     5    1
    23    13    19    1
    24     2     3    1
