@<TRIPOS>MOLECULE
1j90_DCZ_A_1.pdb
 16 17 0 0 0
SMALL
GASTEIGER

@<TRIPOS>ATOM
      1  N1        61.2820   17.9060    9.6700 N.am  400  DCZ400     -0.1802
      2  C2        62.0910   16.9130    9.2510 C.1   400  DCZ400      0.2756
      3  N3        62.6160   16.0460   10.1170 N.2   400  DCZ400     -0.3024
      4  C4        62.3610   16.1470   11.4200 C.2   400  DCZ400      0.2346
      5  C5        61.5350   17.1580   11.8800 C.2   400  DCZ400      0.0687
      6  C6        60.9940   18.0470   10.9640 C.2   400  DCZ400      0.0835
      7  O2        62.3690   16.7870    7.9600 O.2   400  DCZ400     -0.1925
      8  N4        62.9180   15.2320   12.3160 N.pl3 400  DCZ400     -0.0921
      9  C1'       60.7380   18.8410    8.6890 C.3   400  DCZ400      0.2090
     10  C2'       59.2920   18.5290    8.3490 C.3   400  DCZ400      0.0874
     11  C3'       58.7820   19.8990    7.9670 C.3   400  DCZ400      0.1858
     12  C4'       59.5570   20.8580    8.8620 C.3   400  DCZ400      0.1802
     13  O4'       60.7740   20.1860    9.1920 O.3   400  DCZ400     -0.3338
     14  O3'       59.1530   20.1140    6.6180 O.3   400  DCZ400     -0.2203
     15  C5'       58.7720   21.1070   10.1250 C.3   400  DCZ400      0.2141
     16  O5'       57.6220   21.7790   10.0660 O.3   400  DCZ400     -0.2176
@<TRIPOS>BOND
     1    14    11    1
     2     7     2    2
     3    11    10    1
     4    11    12    1
     5    10     9    1
     6     9    13    1
     7     9     1    1
     8    12    13    1
     9    12    15    1
    10     2     1   am
    11     2     3    2
    12     1     6    1
    13    16    15    1
    14     3     4    2
    15     6     5    2
    16     4     5    1
    17     4     8    1
