@<TRIPOS>MOLECULE
1j91_TBS_A_1.pdb
 13 14 0 0 0
SMALL
GASTEIGER

@<TRIPOS>ATOM
      1  C1       -11.5580    5.4450    4.6080 C.ar  338  TBS338      0.0491
      2  C2       -11.9420    5.7270    3.2360 C.ar  338  TBS338      0.0491
      3  C3       -12.0550    4.6430    2.2960 C.ar  338  TBS338      0.0622
      4  C4       -11.2970    4.0910    5.0170 C.ar  338  TBS338      0.0622
      5  N5       -11.2270    1.7100    4.1120 N.ar  338  TBS338     -0.1266
      6  C6       -11.4160    3.0770    4.0430 C.ar  338  TBS338      0.1310
      7  C7       -11.7750    3.3400    2.7360 C.ar  338  TBS338      0.1310
      8  N8       -11.8070    2.1200    2.0310 N.ar  338  TBS338     -0.1266
      9  N9       -11.4910    1.2070    2.8120 N.ar  338  TBS338     -0.0420
     10 BR10      -10.7940    3.6310    6.8020 Br    338  TBS338     -0.0468
     11 BR11      -11.4000    6.8510    5.8860 Br    338  TBS338     -0.0479
     12 BR12      -12.2990    7.5300    2.6470 Br    338  TBS338     -0.0479
     13 BR13      -12.5560    4.9120    0.4870 Br    338  TBS338     -0.0468
@<TRIPOS>BOND
     1    13     3    1
     2     8     7   ar
     3     8     9   ar
     4     3     7   ar
     5     3     2   ar
     6    12     2    1
     7     7     6   ar
     8     9     5   ar
     9     2     1   ar
    10     6     5   ar
    11     6     4   ar
    12     1     4   ar
    13     1    11    1
    14     4    10    1
