@<TRIPOS>MOLECULE
1j96_TES_A_1.pdb
 21 24 0 0 0
SMALL
GASTEIGER

@<TRIPOS>ATOM
      1  C1        41.5460   26.8740   42.4970 C.3   903  TES903      0.0118
      2  C2        41.7170   27.3950   41.0640 C.3   903  TES903      0.0694
      3  C3        42.8780   28.3080   40.9400 C.2   903  TES903      0.1725
      4  O3        42.8870   29.3040   40.2590 O.2   903  TES903     -0.2914
      5  C4        44.0610   27.9150   41.6670 C.2   903  TES903      0.0289
      6  C5        44.0840   26.9450   42.6110 C.2   903  TES903     -0.0420
      7  C6        45.3840   26.6020   43.2730 C.3   903  TES903      0.0221
      8  C7        45.3040   26.6680   44.7930 C.3   903  TES903      0.0044
      9  C8        44.1040   25.8450   45.2690 C.3   903  TES903      0.0007
     10  C9        42.7780   26.2340   44.6030 C.3   903  TES903      0.0035
     11  C10       42.8130   26.1920   43.0680 C.3   903  TES903      0.0157
     12  C11       41.5450   25.4390   45.0910 C.3   903  TES903      0.0004
     13  C12       41.4240   25.5470   46.6200 C.3   903  TES903      0.0025
     14  C13       42.7180   25.1280   47.3130 C.3   903  TES903      0.0282
     15  C14       43.8770   25.9740   46.7720 C.3   903  TES903      0.0025
     16  C15       45.0460   25.6960   47.7180 C.3   903  TES903      0.0027
     17  C16       44.3570   25.6080   49.0930 C.3   903  TES903      0.0329
     18  C17       42.8350   25.6050   48.7970 C.3   903  TES903      0.1519
     19  O17       42.0500   24.8530   49.7300 O.3   903  TES903     -0.2232
     20  C18       42.9890   23.6170   47.1760 C.3   903  TES903      0.0025
     21  C19       42.9330   24.7400   42.5630 C.3   903  TES903      0.0041
@<TRIPOS>BOND
     1     4     3    2
     2     3     2    1
     3     3     5    1
     4     2     1    1
     5     5     6    2
     6     1    11    1
     7    21    11    1
     8     6    11    1
     9     6     7    1
    10    11    10    1
    11     7     8    1
    12    10    12    1
    13    10     9    1
    14     8     9    1
    15    12    13    1
    16     9    15    1
    17    13    14    1
    18    15    14    1
    19    15    16    1
    20    20    14    1
    21    14    18    1
    22    16    17    1
    23    18    17    1
    24    18    19    1
