@<TRIPOS>MOLECULE
1j96_NAP_A_1.pdb
 48 52 0 0 0
SMALL
GASTEIGER

@<TRIPOS>ATOM
      1  PA        35.8460   25.4590   31.4080 P.3   901  NAP901      0.2189
      2  O1A       36.4120   26.6080   30.7080 O.2   901  NAP901     -0.5170
      3  O2A       36.0370   24.0970   30.7690 O.3   901  NAP901     -0.4371
      4  O5B       34.3100   25.6750   31.6700 O.3   901  NAP901     -0.3112
      5  C5B       33.5570   26.6200   32.1870 C.3   901  NAP901      0.1813
      6  C4B       32.1560   26.3410   32.6380 C.3   901  NAP901      0.1820
      7  O4B       31.4940   26.0510   31.4580 O.3   901  NAP901     -0.3136
      8  C3B       31.7720   25.1920   33.5880 C.3   901  NAP901      0.2157
      9  O3B       31.4530   25.8100   34.8320 O.3   901  NAP901     -0.2175
     10  C2B       30.5360   24.5710   32.9840 C.3   901  NAP901      0.2314
     11  O2B       29.3780   24.5340   33.8560 O.3   901  NAP901     -0.2630
     12  C1B       30.2540   25.3910   31.7350 C.3   901  NAP901      0.3158
     13  N9A       29.9310   24.6100   30.5730 N.pl3 901  NAP901     -0.1439
     14  C8A       30.4710   23.3950   30.2000 C.3   901  NAP901      0.3377
     15  N7A       29.9630   22.9790   29.0170 N.2   901  NAP901     -0.2095
     16  C5A       29.1200   23.9800   28.6620 C.2   901  NAP901      0.2526
     17  C6A       28.3160   24.0700   27.5440 C.2   901  NAP901      0.4393
     18  N6A       28.2470   23.1790   26.5750 N.pl3 901  NAP901      0.2180
     19  N1A       27.5070   25.2080   27.4110 N.2   901  NAP901      0.0021
     20  C2A       27.5170   26.1580   28.3620 C.3   901  NAP901      0.5254
     21  N3A       28.2790   26.0890   29.4550 N.2   901  NAP901     -0.0055
     22  C4A       29.0980   24.9670   29.6270 C.2   901  NAP901      0.3518
     23  O3        36.6100   25.3530   32.7730 O.3   901  NAP901     -0.2703
     24  PN        37.6730   25.2140   33.8180 P.3   901  NAP901      0.2189
     25  O1N       38.3250   26.4330   34.0720 O.2   901  NAP901     -0.5170
     26  O2N       37.4560   24.1660   34.8410 O.3   901  NAP901     -0.4371
     27  O5D       38.4160   24.4620   32.7300 O.3   901  NAP901     -0.3112
     28  C5D       38.5640   23.1340   32.4130 C.3   901  NAP901      0.1813
     29  C4D       39.4690   22.1910   33.1430 C.3   901  NAP901      0.1799
     30  O4D       40.8400   22.5160   32.8430 O.3   901  NAP901     -0.3327
     31  C3D       39.4710   22.1820   34.7110 C.3   901  NAP901      0.2158
     32  O3D       38.3170   21.4760   35.2480 O.3   901  NAP901     -0.2175
     33  C2D       40.8120   21.4530   34.9530 C.3   901  NAP901      0.2309
     34  O2D       40.6360   20.0480   34.6860 O.3   901  NAP901     -0.2158
     35  C1D       41.6940   22.1320   33.9400 C.3   901  NAP901      0.2263
     36  N1N       42.3820   23.3470   34.4400 N.pl3 901  NAP901     -0.2787
     37  C2N       43.7570   23.2690   34.6580 C.3   901  NAP901      0.1244
     38  C3N       44.4340   24.3980   35.1300 C.2   901  NAP901      0.0544
     39  C7N       45.9430   24.3810   35.2550 C.2   901  NAP901      0.2818
     40  O7N       46.5200   25.2530   35.8890 O.2   901  NAP901     -0.2670
     41  N7N       46.5710   23.3720   34.6440 N.am  901  NAP901     -0.0839
     42  C4N       43.7090   25.5990   35.3990 C.2   901  NAP901      0.0033
     43  C5N       42.3130   25.7090   35.1640 C.2   901  NAP901      0.0157
     44  C6N       41.6630   24.5810   34.6690 C.2   901  NAP901      0.0633
     45  P2B       28.5680   23.1540   34.1970 P.3   901  NAP901      0.5328
     46  O1X       29.5850   22.2890   34.9460 O.3   901  NAP901     -0.1145
     47  O2X       27.3910   23.5900   35.0440 O.3   901  NAP901     -0.1145
     48  O3X       28.1810   22.5410   32.8540 O.2   901  NAP901     -0.2224
@<TRIPOS>BOND
     1    18    17    1
     2    19    17    2
     3    19    20    1
     4    17    16    1
     5    20    21    1
     6    16    15    2
     7    16    22    1
     8    15    14    1
     9    21    22    2
    10    22    13    1
    11    14    13    1
    12    13    12    1
    13     2     1    2
    14     3     1    1
    15     1     4    1
    16     1    23    1
    17     7    12    1
    18     7     6    1
    19     4     5    1
    20    12    10    1
    21     5     6    1
    22    28    27    1
    23    28    29    1
    24     6     8    1
    25    27    24    1
    26    23    24    1
    27    30    29    1
    28    30    35    1
    29    48    45    2
    30    10     8    1
    31    10    11    1
    32    29    31    1
    33     8     9    1
    34    24    25    2
    35    24    26    1
    36    11    45    1
    37    35    36    1
    38    35    33    1
    39    45    46    1
    40    45    47    1
    41    36    37    1
    42    36    44    1
    43    41    39   am
    44    37    38    1
    45    44    43    2
    46    34    33    1
    47    31    33    1
    48    31    32    1
    49    38    39    1
    50    38    42    2
    51    43    42    1
    52    39    40    2
