@<TRIPOS>MOLECULE
1j99_AND_A_1.pdb
 21 24 0 0 0
SMALL
GASTEIGER

@<TRIPOS>ATOM
      1  C1         8.3940  -44.8350   27.2910 C.3   401  AND401      0.0029
      2  C2         8.2580  -44.4480   28.7790 C.3   401  AND401      0.0329
      3  C3         9.5700  -44.5430   29.5630 C.3   401  AND401      0.1523
      4  O3         9.3670  -44.1770   30.9640 O.3   401  AND401     -0.2231
      5  C4        10.6650  -43.6530   28.9250 C.3   401  AND401      0.0372
      6  C5        10.8600  -44.0280   27.4510 C.3   401  AND401      0.0242
      7  C6        12.2680  -44.2700   26.8880 C.2   401  AND401     -0.0310
      8  C7        12.5380  -44.6590   25.4330 C.2   401  AND401     -0.0310
      9  C8        11.2890  -44.7360   24.5000 C.3   401  AND401      0.0221
     10  C9         9.9790  -45.1430   25.2730 C.3   401  AND401      0.0043
     11  C10        9.6130  -44.1790   26.4930 C.3   401  AND401      0.0042
     12  C11        8.7680  -45.2650   24.3060 C.3   401  AND401      0.0008
     13  C12        9.0530  -46.2010   23.1090 C.3   401  AND401      0.0069
     14  C13       10.3290  -45.8340   22.3510 C.3   401  AND401      0.0518
     15  C14       11.5010  -45.7300   23.3570 C.3   401  AND401      0.0110
     16  C15       12.6810  -45.6240   22.4280 C.3   401  AND401      0.0085
     17  C16       12.3680  -46.7900   21.4500 C.3   401  AND401      0.0645
     18  C17       10.9450  -46.8870   21.4050 C.2   401  AND401      0.1499
     19  O17       10.3670  -47.7200   20.6960 O.2   401  AND401     -0.2961
     20  C18       10.0490  -44.5530   21.4480 C.3   401  AND401      0.0073
     21  C19        9.1600  -42.7500   25.9790 C.3   401  AND401      0.0003
@<TRIPOS>BOND
     1    19    18    2
     2    18    17    1
     3    18    14    1
     4    20    14    1
     5    17    16    1
     6    14    13    1
     7    14    15    1
     8    16    15    1
     9    13    12    1
    10    15     9    1
    11    12    10    1
    12     9    10    1
    13     9     8    1
    14    10    11    1
    15     8     7    2
    16    21    11    1
    17    11     1    1
    18    11     6    1
    19     7     6    1
    20     1     2    1
    21     6     5    1
    22     2     3    1
    23     5     3    1
    24     3     4    1
