@<TRIPOS>MOLECULE
1j9c_0Z6_H_1.pdb
 34 35 0 0 0
SMALL
GASTEIGER

@<TRIPOS>ATOM
      1  N         50.8870  -10.6490   14.2570 N.3     1  0Z61       -0.1227
      2  CA        51.9940   -9.7930   13.7620 C.3     1  0Z61        0.1736
      3  C         51.6300   -8.3200   13.7190 C.2     1  0Z61        0.2595
      4  O         50.5710   -7.9170   14.1900 O.2     1  0Z61       -0.2718
      5  CB        53.2420   -9.9790   14.6190 C.3     1  0Z61        0.0547
      6  CG        52.9880   -9.9150   16.0950 C.ar    1  0Z61       -0.0202
      7  CD1       52.3560  -10.9690   16.7550 C.ar    1  0Z61       -0.0042
      8  CD2       53.4170   -8.8200   16.8430 C.ar    1  0Z61       -0.0042
      9  CE1       52.1560  -10.9400   18.1410 C.ar    1  0Z61       -0.0003
     10  CE2       53.2240   -8.7780   18.2320 C.ar    1  0Z61       -0.0003
     11  CZ        52.5920   -9.8450   18.8790 C.ar    1  0Z61       -0.0000
     12  N1        52.5250   -7.5180   13.1520 N.am    1  0Z61       -0.1962
     13  CA1       52.2990   -6.0870   13.0240 C.3     1  0Z61        0.1771
     14  C1        51.3850   -5.8820   11.8290 C.2     1  0Z61        0.2616
     15  O1        51.5880   -6.4650   10.7680 O.2     1  0Z61       -0.2715
     16  CB1       53.6280   -5.3540   12.7950 C.3     1  0Z61        0.0574
     17  CG1       54.4990   -5.2810   14.0160 C.ar    1  0Z61       -0.0200
     18 CD11       54.3620   -4.2350   14.9190 C.ar    1  0Z61       -0.0042
     19 CD21       55.4180   -6.2910   14.2920 C.ar    1  0Z61       -0.0042
     20 CE11       55.1250   -4.1980   16.0820 C.ar    1  0Z61       -0.0003
     21 CE21       56.1830   -6.2650   15.4510 C.ar    1  0Z61       -0.0003
     22  CZ1       56.0360   -5.2170   16.3480 C.ar    1  0Z61       -0.0000
     23  N2        50.3750   -5.0490   11.9950 N.am    1  0Z61       -0.2031
     24  CA2       49.4450   -4.8050   10.9130 C.3     1  0Z61        0.1257
     25  C2        49.6910   -3.4480   10.2650 C.3     1  0Z61        0.1718
     26  O2        49.2060   -3.5250    9.1410 O.3     1  0Z61       -0.2213
     27  CB2       48.0110   -4.8930   11.4520 C.3     1  0Z61        0.0280
     28  CG2       47.6430   -6.2590   12.0020 C.3     1  0Z61        0.0488
     29  CD        46.3540   -6.2390   12.8170 C.3     1  0Z61        0.2205
     30  NE        46.0330   -7.5950   13.2640 N.pl3   1  0Z61       -0.0865
     31  CZ2       45.1810   -7.9010   14.2400 C.cat   1  0Z61        0.5346
     32  NH1       44.5470   -6.9390   14.9010 N.pl3   1  0Z61        0.1354
     33  NH2       44.9580   -9.1750   14.5470 N.pl3   1  0Z61        0.1354
     34  C3        51.1460   -2.9680   10.1270 C.3     1  0Z61        0.0373
@<TRIPOS>BOND
     1    26    25    1
     2    34    25    1
     3    25    24    1
     4    15    14    2
     5    24    27    1
     6    24    23    1
     7    27    28    1
     8    14    23   am
     9    14    13    1
    10    28    29    1
    11    16    13    1
    12    16    17    1
    13    29    30    1
    14    13    12    1
    15    12     3   am
    16    30    31    2
    17     3     2    1
    18     3     4    2
    19     2     1    1
    20     2     5    1
    21    17    19   ar
    22    17    18   ar
    23    31    33    1
    24    31    32    1
    25    19    21   ar
    26     5     6    1
    27    18    20   ar
    28    21    22   ar
    29    20    22   ar
    30     6     7   ar
    31     6     8   ar
    32     7     9   ar
    33     8    10   ar
    34     9    11   ar
    35    10    11   ar
