@<TRIPOS>MOLECULE
1j9c_GLC_L_1.pdb
 11 11 0 0 0
SMALL
GASTEIGER

@<TRIPOS>ATOM
      1  C1        14.7690    0.7510   61.2380 C.3   352  GLC352      0.1777
      2  C2        16.1080    1.4000   60.8710 C.3   352  GLC352      0.2141
      3  C3        16.7900    0.6760   59.7170 C.3   352  GLC352      0.2173
      4  C4        16.8930   -0.8260   59.9780 C.3   352  GLC352      0.2142
      5  C5        15.5890   -1.4020   60.5390 C.3   352  GLC352      0.1810
      6  C6        15.7090   -1.8490   61.9880 C.3   352  GLC352      0.2141
      7  O2        15.8960    2.7560   60.5070 O.3   352  GLC352     -0.2176
      8  O3        18.0930    1.2090   59.5440 O.3   352  GLC352     -0.2175
      9  O4        17.2100   -1.4900   58.7650 O.3   352  GLC352     -0.2176
     10  O5        14.5220   -0.4280   60.4560 O.3   352  GLC352     -0.3481
     11  O6        16.1480   -3.1980   62.0730 O.3   352  GLC352     -0.2176
@<TRIPOS>BOND
     1     9     4    1
     2     8     3    1
     3     3     4    1
     4     3     2    1
     5     4     5    1
     6    10     5    1
     7    10     1    1
     8     7     2    1
     9     5     6    1
    10     2     1    1
    11     6    11    1
