@<TRIPOS>MOLECULE
1j9c_FUL_L_1.pdb
 10 10 0 0 0
SMALL
GASTEIGER

@<TRIPOS>ATOM
      1  C1         4.5850    3.4800   47.9500 C.3   360  FUL360      0.1776
      2  C2         5.2190    4.8610   47.8040 C.3   360  FUL360      0.2141
      3  O2         6.4870    4.7430   47.1890 O.3   360  FUL360     -0.2176
      4  C3         4.3230    5.7480   46.9600 C.3   360  FUL360      0.2172
      5  O3         4.9780    6.9790   46.7150 O.3   360  FUL360     -0.2175
      6  C4         3.0200    6.0010   47.7090 C.3   360  FUL360      0.2116
      7  O4         3.2170    7.0410   48.6570 O.3   360  FUL360     -0.2177
      8  C5         2.5460    4.7240   48.4250 C.3   360  FUL360      0.1483
      9  C6         2.8340    4.6930   49.9210 C.3   360  FUL360      0.0349
     10  O5         3.1490    3.5460   47.8200 O.3   360  FUL360     -0.3508
@<TRIPOS>BOND
     1     5     4    1
     2     4     6    1
     3     4     2    1
     4     3     2    1
     5     6     8    1
     6     6     7    1
     7     2     1    1
     8    10     1    1
     9    10     8    1
    10     8     9    1
