@<TRIPOS>MOLECULE
1j9e_FMN_A_1.pdb
 31 33 0 0 0
SMALL
GASTEIGER

@<TRIPOS>ATOM
      1  N1        24.7780   13.2050   82.6110 N.2   149  FMN149     -0.2887
      2  C2        23.6570   13.8210   82.8260 C.1   149  FMN149      0.3669
      3  O2        23.6480   14.4190   84.0020 O.2   149  FMN149     -0.1744
      4  N3        22.5270   13.9710   82.1040 N.2   149  FMN149     -0.2300
      5  C4        22.5920   13.3570   80.8580 C.1   149  FMN149      0.2513
      6  O4        21.5160   13.4900   80.1880 O.2   149  FMN149     -0.2057
      7  C4A       23.6650   12.5720   80.4400 C.2   149  FMN149      0.2706
      8  N5        23.6630   12.0350   79.2850 N.2   149  FMN149     -0.3841
      9  C5A       24.7840   11.3960   78.9510 C.2   149  FMN149      0.1452
     10  C6        24.9920   10.9420   77.6510 C.2   149  FMN149      0.0252
     11  C7        26.1340   10.3580   77.1360 C.2   149  FMN149     -0.0375
     12  C7M       26.2850    9.8530   75.6990 C.3   149  FMN149      0.0268
     13  C8        27.1930   10.2260   78.0170 C.3   149  FMN149      0.0417
     14  C8M       28.4450    9.5660   77.5670 C.3   149  FMN149      0.0091
     15  C9        27.0830   10.5900   79.3490 C.2   149  FMN149     -0.0049
     16  C9A       25.8950   11.2300   79.7450 C.2   149  FMN149      0.0795
     17  N10       25.7930   11.8100   81.0430 N.pl3 149  FMN149     -0.2545
     18  C10       24.6990   12.5940   81.4480 C.2   149  FMN149      0.2449
     19  C1'       26.9600   11.7140   82.0310 C.3   149  FMN149      0.1336
     20  C2'       26.9480   10.3340   82.7330 C.3   149  FMN149      0.2048
     21  O2'       25.9860   10.2930   83.7200 O.3   149  FMN149     -0.2185
     22  C3'       28.3990   10.2390   83.4080 C.3   149  FMN149      0.2165
     23  O3'       29.2870    9.7440   82.3480 O.3   149  FMN149     -0.2175
     24  C4'       28.3870    9.3480   84.5960 C.3   149  FMN149      0.2147
     25  O4'       29.6850    9.4480   85.2230 O.3   149  FMN149     -0.2176
     26  C5'       28.1850    7.8940   84.2970 C.3   149  FMN149      0.1892
     27  O5'       28.0300    7.1850   85.5820 O.3   149  FMN149     -0.2674
     28  P         28.0550    5.6120   85.5870 P.3   149  FMN149      0.5327
     29  O1P       27.6910    5.2640   87.0650 O.3   149  FMN149     -0.1145
     30  O2P       29.4360    5.1630   85.2060 O.3   149  FMN149     -0.1145
     31  O3P       26.9960    5.0760   84.6460 O.2   149  FMN149     -0.2224
@<TRIPOS>BOND
     1    12    11    1
     2    11    10    2
     3    11    13    1
     4    14    13    1
     5    10     9    1
     6    13    15    1
     7     9     8    2
     8     9    16    1
     9     8     7    2
    10    15    16    2
    11    16    17    1
    12     6     5    2
    13     7     5    1
    14     7    18    1
    15     5     4    2
    16    17    18    1
    17    17    19    1
    18    18     1    2
    19    19    20    1
    20     4     2    2
    21    23    22    1
    22     1     2    2
    23    20    22    1
    24    20    21    1
    25     2     3    2
    26    22    24    1
    27    26    24    1
    28    26    27    1
    29    24    25    1
    30    31    28    2
    31    30    28    1
    32    27    28    1
    33    28    29    1
