@<TRIPOS>MOLECULE
1j9g_FMN_A_1.pdb
 31 33 0 0 0
SMALL
GASTEIGER

@<TRIPOS>ATOM
      1  N1        79.1370   66.1600  -57.4690 N.2   149  FMN149     -0.2890
      2  C2        79.3250   67.1490  -58.3940 C.1   149  FMN149      0.3669
      3  O2        80.2750   67.8820  -58.4030 O.2   149  FMN149     -0.1744
      4  N3        78.3420   67.3290  -59.4220 N.2   149  FMN149     -0.2300
      5  C4        77.2160   66.5890  -59.5610 C.1   149  FMN149      0.2513
      6  O4        76.4190   66.8110  -60.4820 O.2   149  FMN149     -0.2057
      7  C4A       77.0200   65.5290  -58.5780 C.2   149  FMN149      0.2700
      8  N5        75.9570   64.7480  -58.6450 N.2   149  FMN149     -0.3878
      9  C5A       75.8020   63.7450  -57.7270 C.2   149  FMN149      0.1320
     10  C6        74.6440   62.8590  -57.8160 C.2   149  FMN149      0.0250
     11  C7        74.4180   61.8240  -56.9590 C.2   149  FMN149     -0.0238
     12  C7M       73.1950   60.9040  -57.0760 C.3   149  FMN149      0.0308
     13  C8        75.3840   61.5650  -55.8680 C.2   149  FMN149     -0.0280
     14  C8M       75.1840   60.4250  -54.8890 C.3   149  FMN149      0.0304
     15  C9        76.4940   62.4070  -55.7680 C.2   149  FMN149     -0.0041
     16  C9A       76.7420   63.4840  -56.6520 C.3   149  FMN149      0.1497
     17  N10       77.8650   64.3610  -56.5980 N.pl3 149  FMN149     -0.2691
     18  C10       78.0590   65.3760  -57.5300 C.2   149  FMN149      0.2416
     19  C1'       78.8920   64.1880  -55.5480 C.3   149  FMN149      0.1294
     20  C2'       78.5430   64.9480  -54.2710 C.3   149  FMN149      0.2044
     21  O2'       78.3870   66.3590  -54.4810 O.3   149  FMN149     -0.2185
     22  C3'       79.6590   64.7190  -53.2280 C.3   149  FMN149      0.2164
     23  O3'       79.4340   63.3970  -52.6310 O.3   149  FMN149     -0.2175
     24  C4'       79.7130   65.7610  -52.1250 C.3   149  FMN149      0.2147
     25  O4'       80.8180   65.4410  -51.2460 O.3   149  FMN149     -0.2176
     26  C5'       78.4710   65.8110  -51.2680 C.3   149  FMN149      0.1892
     27  O5'       78.5680   66.8400  -50.2600 O.3   149  FMN149     -0.2674
     28  P         77.6180   66.7800  -49.0160 P.3   149  FMN149      0.5327
     29  O1P       76.4150   67.6500  -48.9210 O.2   149  FMN149     -0.2224
     30  O2P       78.2370   66.1760  -47.7780 O.3   149  FMN149     -0.1145
     31  O3P       78.3790   68.1180  -48.6680 O.3   149  FMN149     -0.1145
@<TRIPOS>BOND
     1     6     5    2
     2     5     4    2
     3     5     7    1
     4     4     2    2
     5     8     7    2
     6     8     9    2
     7     7    18    1
     8     3     2    2
     9     2     1    2
    10    10     9    1
    11    10    11    2
    12     9    16    1
    13    18     1    2
    14    18    17    1
    15    12    11    1
    16    11    13    1
    17    16    17    1
    18    16    15    1
    19    17    19    1
    20    13    15    2
    21    13    14    1
    22    19    20    1
    23    21    20    1
    24    20    22    1
    25    22    23    1
    26    22    24    1
    27    24    26    1
    28    24    25    1
    29    26    27    1
    30    27    28    1
    31    28    29    2
    32    28    31    1
    33    28    30    1
