@<TRIPOS>MOLECULE
1j9z_NAP_A_1.pdb
 48 52 0 0 0
SMALL
GASTEIGER

@<TRIPOS>ATOM
      1  PA        10.2910   13.0800   23.0360 P.3   752  NAP752      0.2189
      2  O1A       10.6110   13.1460   21.6040 O.2   752  NAP752     -0.5170
      3  O2A       11.5660   13.0110   23.7620 O.3   752  NAP752     -0.4371
      4  O5B        9.5210   14.2710   23.4380 O.3   752  NAP752     -0.3112
      5  C5B        8.2660   14.5100   22.7890 C.3   752  NAP752      0.1813
      6  C4B        7.7010   15.9120   23.1180 C.3   752  NAP752      0.1820
      7  O4B        7.4320   16.0310   24.5160 O.3   752  NAP752     -0.3136
      8  C3B        8.5790   17.1340   22.7580 C.3   752  NAP752      0.2157
      9  O3B        7.8210   18.1930   22.2160 O.3   752  NAP752     -0.2175
     10  C2B        9.2290   17.4810   24.0990 C.3   752  NAP752      0.2314
     11  O2B        9.6890   18.8690   24.2270 O.3   752  NAP752     -0.2630
     12  C1B        8.0240   17.2050   24.9840 C.3   752  NAP752      0.3158
     13  N9A        8.2200   17.2700   26.4500 N.pl3 752  NAP752     -0.1439
     14  C8A        9.3870   17.2340   27.2090 C.3   752  NAP752      0.3377
     15  N7A        9.1300   17.3470   28.4660 N.2   752  NAP752     -0.2095
     16  C5A        7.7070   17.4620   28.5260 C.2   752  NAP752      0.2526
     17  C6A        6.7320   17.6340   29.7000 C.2   752  NAP752      0.4393
     18  N6A        7.2250   17.6950   30.8680 N.pl3 752  NAP752      0.2180
     19  N1A        5.4240   17.7050   29.3830 N.2   752  NAP752      0.0021
     20  C2A        4.9390   17.6280   28.0430 C.3   752  NAP752      0.5254
     21  N3A        5.7540   17.4860   26.9510 N.2   752  NAP752     -0.0055
     22  C4A        7.2140   17.4020   27.2710 C.2   752  NAP752      0.3518
     23  O3         9.5090   11.8550   23.3850 O.3   752  NAP752     -0.2703
     24  PN        10.0250   10.4760   23.1010 P.3   752  NAP752      0.2189
     25  O1N       11.3820   10.4700   22.5280 O.3   752  NAP752     -0.4371
     26  O2N        9.2200    9.7920   22.1010 O.2   752  NAP752     -0.5170
     27  O5D        9.9420    9.7280   24.3720 O.3   752  NAP752     -0.3112
     28  C5D       10.8100   10.0500   25.4680 C.3   752  NAP752      0.1813
     29  C4D       10.6290    9.1070   26.7300 C.3   752  NAP752      0.1799
     30  O4D        9.2650    8.6650   26.8540 O.3   752  NAP752     -0.3327
     31  C3D       11.5340    7.8280   26.7690 C.3   752  NAP752      0.2158
     32  O3D       12.2650    7.7210   28.0100 O.3   752  NAP752     -0.2175
     33  C2D       10.5380    6.6490   26.5730 C.3   752  NAP752      0.2309
     34  O2D       10.8630    5.4950   27.3910 O.3   752  NAP752     -0.2158
     35  C1D        9.1520    7.2420   26.9680 C.3   752  NAP752      0.2263
     36  N1N        7.9980    6.6550   26.2170 N.pl3 752  NAP752     -0.2787
     37  C2N        7.2740    5.5290   26.9300 C.3   752  NAP752      0.1244
     38  C3N        6.1880    4.9020   26.3200 C.2   752  NAP752      0.0544
     39  C7N        5.4370    3.7600   27.0280 C.2   752  NAP752      0.2818
     40  O7N        4.4710    3.1830   26.5190 O.2   752  NAP752     -0.2670
     41  N7N        5.8840    3.3500   28.3480 N.am  752  NAP752     -0.0839
     42  C4N        5.7780    5.4120   24.9020 C.2   752  NAP752      0.0033
     43  C5N        6.4520    6.4420   24.2660 C.2   752  NAP752      0.0157
     44  C6N        7.6330    7.0850   24.9970 C.2   752  NAP752      0.0633
     45  P2B       11.0810   19.2330   24.6460 P.3   752  NAP752      0.5328
     46  O1X       12.0390   18.0950   24.5020 O.3   752  NAP752     -0.1145
     47  O2X       11.6230   20.3540   23.8500 O.2   752  NAP752     -0.2224
     48  O3X       11.1400   19.6950   26.0350 O.3   752  NAP752     -0.1145
@<TRIPOS>BOND
     1     2     1    2
     2    26    24    2
     3     9     8    1
     4    25    24    1
     5     8     6    1
     6     8    10    1
     7     5     6    1
     8     5     4    1
     9     1    23    1
    10     1     4    1
    11     1     3    1
    12    24    23    1
    13    24    27    1
    14     6     7    1
    15    47    45    2
    16    10    11    1
    17    10    12    1
    18    11    45    1
    19    43    42    1
    20    43    44    2
    21    27    28    1
    22    46    45    1
    23     7    12    1
    24    45    48    1
    25    42    38    2
    26    12    13    1
    27    44    36    1
    28    28    29    1
    29    36    37    1
    30    36    35    1
    31    38    37    1
    32    38    39    1
    33    13    14    1
    34    13    22    1
    35    40    39    2
    36    33    31    1
    37    33    35    1
    38    33    34    1
    39    29    31    1
    40    29    30    1
    41    31    32    1
    42    30    35    1
    43    21    22    2
    44    21    20    1
    45    39    41   am
    46    14    15    1
    47    22    16    1
    48    20    19    1
    49    15    16    2
    50    16    17    1
    51    19    17    2
    52    17    18    1
