@<TRIPOS>MOLECULE
1j9z_FMN_A_1.pdb
 31 33 0 0 0
SMALL
GASTEIGER

@<TRIPOS>ATOM
      1  N1         6.9660   -0.4380   39.4670 N.2   751  FMN751     -0.2890
      2  C2         6.0360   -0.1820   40.4320 C.1   751  FMN751      0.3669
      3  O2         6.3400    0.0230   41.6020 O.2   751  FMN751     -0.1744
      4  N3         4.7220   -0.1560   40.0490 N.2   751  FMN751     -0.2300
      5  C4         4.1970   -0.3520   38.8050 C.1   751  FMN751      0.2513
      6  O4         2.9730   -0.2610   38.7600 O.2   751  FMN751     -0.2057
      7  C4A        5.1540   -0.6200   37.7480 C.2   751  FMN751      0.2700
      8  N5         4.6730   -0.8130   36.4330 N.2   751  FMN751     -0.3878
      9  C5A        5.6590   -1.0350   35.4700 C.2   751  FMN751      0.1320
     10  C6         5.1910   -1.1960   34.1190 C.2   751  FMN751      0.0250
     11  C7         6.0730   -1.4050   33.0450 C.2   751  FMN751     -0.0238
     12  C7M        5.4350   -1.5510   31.6620 C.3   751  FMN751      0.0308
     13  C8         7.5340   -1.4700   33.2890 C.2   751  FMN751     -0.0280
     14  C8M        8.6060   -1.6920   32.2000 C.3   751  FMN751      0.0304
     15  C9         7.9940   -1.3220   34.5660 C.2   751  FMN751     -0.0041
     16  C9A        7.1000   -1.0970   35.7000 C.3   751  FMN751      0.1497
     17  N10        7.5340   -0.9050   37.0980 N.pl3 751  FMN751     -0.2691
     18  C10        6.5390   -0.6470   38.1670 C.2   751  FMN751      0.2416
     19  C1'        8.9370   -0.9500   37.3950 C.3   751  FMN751      0.1294
     20  C2'        9.4310   -2.3780   37.6230 C.3   751  FMN751      0.2044
     21  O2'        8.6860   -2.8920   38.7520 O.3   751  FMN751     -0.2185
     22  C3'       10.9350   -2.4240   37.8400 C.3   751  FMN751      0.2164
     23  O3'       11.5390   -1.9130   36.6540 O.3   751  FMN751     -0.2175
     24  C4'       11.3520   -3.9120   38.1200 C.3   751  FMN751      0.2147
     25  O4'       12.7880   -3.8320   38.2940 O.3   751  FMN751     -0.2176
     26  C5'       11.0220   -4.8860   37.0010 C.3   751  FMN751      0.1892
     27  O5'       11.4770   -6.2170   37.3690 O.3   751  FMN751     -0.2674
     28  P         12.0030   -7.3730   36.4000 P.3   751  FMN751      0.5327
     29  O1P       13.2540   -6.9580   35.7760 O.3   751  FMN751     -0.1145
     30  O2P       10.9190   -7.8430   35.5290 O.2   751  FMN751     -0.2224
     31  O3P       12.3170   -8.3950   37.3840 O.3   751  FMN751     -0.1145
@<TRIPOS>BOND
     1    12    11    1
     2    14    13    1
     3    11    13    1
     4    11    10    2
     5    13    15    2
     6    10     9    1
     7    15    16    1
     8     9    16    1
     9     9     8    2
    10    30    28    2
    11    16    17    1
    12    29    28    1
    13    28    27    1
    14    28    31    1
    15     8     7    2
    16    23    22    1
    17    26    27    1
    18    26    24    1
    19    17    19    1
    20    17    18    1
    21    19    20    1
    22    20    22    1
    23    20    21    1
    24     7    18    1
    25     7     5    1
    26    22    24    1
    27    24    25    1
    28    18     1    2
    29     6     5    2
    30     5     4    2
    31     1     2    2
    32     4     2    2
    33     2     3    2
