@<TRIPOS>MOLECULE
1ja0_NAP_A_1.pdb
 48 52 0 0 0
SMALL
GASTEIGER

@<TRIPOS>ATOM
      1  PA        10.3980   13.1850   22.9170 P.3   752  NAP752      0.2189
      2  O1A       10.8180   13.5500   21.5630 O.2   752  NAP752     -0.5170
      3  O2A       11.5800   13.1600   23.7650 O.3   752  NAP752     -0.4371
      4  O5B        9.4610   14.2130   23.4390 O.3   752  NAP752     -0.3112
      5  C5B        8.2290   14.4220   22.7150 C.3   752  NAP752      0.1813
      6  C4B        7.6550   15.8470   22.9460 C.3   752  NAP752      0.1820
      7  O4B        7.2640   16.0020   24.3090 O.3   752  NAP752     -0.3136
      8  C3B        8.6040   17.0330   22.6310 C.3   752  NAP752      0.2157
      9  O3B        7.9560   18.1060   21.9710 O.3   752  NAP752     -0.2175
     10  C2B        9.1370   17.4190   24.0110 C.3   752  NAP752      0.2314
     11  O2B        9.5930   18.8050   24.1200 O.3   752  NAP752     -0.2630
     12  C1B        7.8610   17.1640   24.8550 C.3   752  NAP752      0.3158
     13  N9A        8.0750   17.1210   26.3340 N.pl3 752  NAP752     -0.1439
     14  C8A        9.2740   16.9640   27.0260 C.3   752  NAP752      0.3377
     15  N7A        9.0950   16.9930   28.2920 N.2   752  NAP752     -0.2095
     16  C5A        7.6830   17.1830   28.4520 C.2   752  NAP752      0.2526
     17  C6A        6.8040   17.3180   29.6990 C.2   752  NAP752      0.4393
     18  N6A        7.3610   17.2680   30.8630 N.pl3 752  NAP752      0.2180
     19  N1A        5.4990   17.4820   29.4540 N.2   752  NAP752      0.0021
     20  C2A        4.9420   17.5320   28.1590 C.3   752  NAP752      0.5254
     21  N3A        5.6610   17.4290   27.0210 N.2   752  NAP752     -0.0055
     22  C4A        7.1120   17.2440   27.2300 C.2   752  NAP752      0.3518
     23  O3         9.6740   11.8380   22.9800 O.3   752  NAP752     -0.2703
     24  PN        10.3860   10.5720   22.4750 P.3   752  NAP752      0.2189
     25  O1N       11.7380   10.8350   21.9610 O.3   752  NAP752     -0.4371
     26  O2N        9.6650    9.9560   21.3510 O.2   752  NAP752     -0.5170
     27  O5D       10.4640    9.6310   23.6300 O.3   752  NAP752     -0.3112
     28  C5D        9.2910    9.1920   24.3480 C.3   752  NAP752      0.1813
     29  C4D        9.5890    8.1590   25.5440 C.3   752  NAP752      0.1799
     30  O4D        8.3610    7.5280   25.9280 O.3   752  NAP752     -0.3327
     31  C3D       10.6230    7.0100   25.2890 C.3   752  NAP752      0.2158
     32  O3D       11.6430    6.9680   26.3250 O.3   752  NAP752     -0.2175
     33  C2D        9.7790    5.7000   25.2800 C.3   752  NAP752      0.2309
     34  O2D       10.4400    4.6260   26.0020 O.3   752  NAP752     -0.2158
     35  C1D        8.4390    6.0990   25.9600 C.3   752  NAP752      0.2263
     36  N1N        7.2230    5.4620   25.3750 N.pl3 752  NAP752     -0.2787
     37  C2N        6.4950    4.4880   26.2640 C.3   752  NAP752      0.1244
     38  C3N        5.3610    3.8610   25.7920 C.2   752  NAP752      0.0544
     39  C7N        4.6030    2.8770   26.6650 C.2   752  NAP752      0.2818
     40  O7N        3.6030    2.3080   26.2860 O.2   752  NAP752     -0.2670
     41  N7N        5.1020    2.6210   27.9840 N.am  752  NAP752     -0.0839
     42  C4N        4.9000    4.2010   24.3570 C.2   752  NAP752      0.0033
     43  C5N        5.5800    5.0960   23.5670 C.2   752  NAP752      0.0157
     44  C6N        6.8120    5.7490   24.1420 C.2   752  NAP752      0.0633
     45  P2B       11.0420   19.1740   24.3440 P.3   752  NAP752      0.5328
     46  O1X       11.9610   18.1890   23.7600 O.3   752  NAP752     -0.1145
     47  O2X       11.3710   20.4480   23.7080 O.2   752  NAP752     -0.2224
     48  O3X       11.3370   19.2910   25.7810 O.3   752  NAP752     -0.1145
@<TRIPOS>BOND
     1    26    24    2
     2     2     1    2
     3    25    24    1
     4     9     8    1
     5    24    23    1
     6    24    27    1
     7     8     6    1
     8     8    10    1
     9     5     6    1
    10     5     4    1
    11     1    23    1
    12     1     4    1
    13     1     3    1
    14     6     7    1
    15    43    44    2
    16    43    42    1
    17    27    28    1
    18    47    45    2
    19    46    45    1
    20    10    11    1
    21    10    12    1
    22    11    45    1
    23    44    36    1
    24     7    12    1
    25    45    48    1
    26    28    29    1
    27    42    38    2
    28    12    13    1
    29    33    31    1
    30    33    35    1
    31    33    34    1
    32    31    29    1
    33    31    32    1
    34    36    35    1
    35    36    37    1
    36    29    30    1
    37    38    37    1
    38    38    39    1
    39    30    35    1
    40    40    39    2
    41    13    14    1
    42    13    22    1
    43    39    41   am
    44    21    22    2
    45    21    20    1
    46    14    15    1
    47    22    16    1
    48    20    19    1
    49    15    16    2
    50    16    17    1
    51    19    17    2
    52    17    18    1
