@<TRIPOS>MOLECULE
1ja0_FMN_A_1.pdb
 31 33 0 0 0
SMALL
GASTEIGER

@<TRIPOS>ATOM
      1  N1         7.0870    0.0810   38.7930 N.2   751  FMN751     -0.2890
      2  C2         6.1560    0.2310   39.7750 C.1   751  FMN751      0.3669
      3  O2         6.4670    0.3600   40.9820 O.2   751  FMN751     -0.1744
      4  N3         4.8370    0.2420   39.4010 N.2   751  FMN751     -0.2300
      5  C4         4.3160    0.1310   38.1210 C.1   751  FMN751      0.2513
      6  O4         3.0440    0.1880   37.9990 O.2   751  FMN751     -0.2057
      7  C4A        5.2630   -0.0270   37.1020 C.2   751  FMN751      0.2700
      8  N5         4.7570   -0.1310   35.8320 N.2   751  FMN751     -0.3878
      9  C5A        5.7460   -0.2440   34.8760 C.2   751  FMN751      0.1320
     10  C6         5.2780   -0.3270   33.5570 C.2   751  FMN751      0.0250
     11  C7         6.1610   -0.4230   32.4990 C.2   751  FMN751     -0.0238
     12  C7M        5.5280   -0.4710   31.1170 C.3   751  FMN751      0.0308
     13  C8         7.6200   -0.4530   32.7110 C.2   751  FMN751     -0.0280
     14  C8M        8.6700   -0.5530   31.5690 C.3   751  FMN751      0.0304
     15  C9         8.0980   -0.3830   33.9760 C.2   751  FMN751     -0.0041
     16  C9A        7.1990   -0.2730   35.0900 C.3   751  FMN751      0.1497
     17  N10        7.6330   -0.1850   36.4790 N.pl3 751  FMN751     -0.2691
     18  C10        6.6390   -0.0340   37.5080 C.2   751  FMN751      0.2416
     19  C1'        9.0300   -0.2030   36.8710 C.3   751  FMN751      0.1294
     20  C2'        9.5120   -1.6630   36.7720 C.3   751  FMN751      0.2044
     21  O2'        8.5860   -2.5230   37.5310 O.3   751  FMN751     -0.2185
     22  C3'       10.9420   -1.7780   37.1960 C.3   751  FMN751      0.2164
     23  O3'       11.7430   -1.3800   36.0790 O.3   751  FMN751     -0.2175
     24  C4'       11.1890   -3.2700   37.5100 C.3   751  FMN751      0.2147
     25  O4'       12.5850   -3.2520   37.9220 O.3   751  FMN751     -0.2176
     26  C5'       11.1710   -4.1430   36.2780 C.3   751  FMN751      0.1892
     27  O5'       11.3680   -5.5430   36.6770 O.3   751  FMN751     -0.2674
     28  P         11.5710   -6.8920   35.6810 P.3   751  FMN751      0.5327
     29  O1P       12.9300   -6.7650   34.9080 O.3   751  FMN751     -0.1145
     30  O2P       10.2840   -7.1440   34.8520 O.2   751  FMN751     -0.2224
     31  O3P       11.6890   -7.9870   36.7290 O.3   751  FMN751     -0.1145
@<TRIPOS>BOND
     1    12    11    1
     2    14    13    1
     3    11    13    1
     4    11    10    2
     5    13    15    2
     6    10     9    1
     7    15    16    1
     8    30    28    2
     9     9    16    1
    10     9     8    2
    11    29    28    1
    12    16    17    1
    13    28    27    1
    14    28    31    1
    15     8     7    2
    16    23    22    1
    17    26    27    1
    18    26    24    1
    19    17    19    1
    20    17    18    1
    21    20    19    1
    22    20    22    1
    23    20    21    1
    24     7    18    1
    25     7     5    1
    26    22    24    1
    27    18     1    2
    28    24    25    1
    29     6     5    2
    30     5     4    2
    31     1     2    2
    32     4     2    2
    33     2     3    2
