@<TRIPOS>MOLECULE
1ja1_FMN_A_1.pdb
 31 33 0 0 0
SMALL
GASTEIGER

@<TRIPOS>ATOM
      1  N1         6.7490   -0.0220   39.3520 N.2   1751  FMN1751    -0.2890
      2  C2         5.8770    0.2230   40.3230 C.1   1751  FMN1751     0.3669
      3  O2         6.2480    0.4180   41.4830 O.2   1751  FMN1751    -0.1744
      4  N3         4.5580    0.2460   39.9730 N.2   1751  FMN1751    -0.2300
      5  C4         4.0200    0.0500   38.7140 C.1   1751  FMN1751     0.2513
      6  O4         2.7980    0.1200   38.6490 O.2   1751  FMN1751    -0.2057
      7  C4A        4.9360   -0.2020   37.6850 C.2   1751  FMN1751     0.2700
      8  N5         4.4270   -0.3970   36.3980 N.2   1751  FMN1751    -0.3878
      9  C5A        5.4180   -0.6320   35.4620 C.2   1751  FMN1751     0.1320
     10  C6         4.9620   -0.8300   34.1380 C.2   1751  FMN1751     0.0250
     11  C7         5.8490   -1.0740   33.0920 C.2   1751  FMN1751    -0.0238
     12  C7M        5.2220   -1.2630   31.6990 C.3   1751  FMN1751     0.0308
     13  C8         7.2930   -1.1380   33.3350 C.2   1751  FMN1751    -0.0280
     14  C8M        8.2510   -1.3670   32.3800 C.3   1751  FMN1751     0.0304
     15  C9         7.7440   -0.9490   34.6110 C.2   1751  FMN1751    -0.0041
     16  C9A        6.8350   -0.6950   35.6970 C.3   1751  FMN1751     0.1497
     17  N10        7.2580   -0.4820   37.0570 N.pl3 1751  FMN1751    -0.2691
     18  C10        6.2830   -0.2220   38.0810 C.2   1751  FMN1751     0.2416
     19  C1'        8.6480   -0.5230   37.4050 C.3   1751  FMN1751     0.1294
     20  C2'        9.1050   -1.8850   37.9480 C.3   1751  FMN1751     0.2044
     21  O2'        8.3240   -2.2030   39.1650 O.3   1751  FMN1751    -0.2185
     22  C3'       10.5810   -1.8330   38.2400 C.3   1751  FMN1751     0.2164
     23  O3'       11.2180   -1.3580   37.0430 O.3   1751  FMN1751    -0.2175
     24  C4'       11.0470   -3.2860   38.5680 C.3   1751  FMN1751     0.2147
     25  O4'       12.4690   -3.0900   38.8350 O.3   1751  FMN1751    -0.2176
     26  C5'       10.9100   -4.2340   37.3840 C.3   1751  FMN1751     0.1892
     27  O5'       11.3280   -5.6320   37.7000 O.3   1751  FMN1751    -0.2674
     28  P         11.4060   -6.8570   36.6790 P.3   1751  FMN1751     0.5327
     29  O1P       12.5120   -6.6500   35.7020 O.2   1751  FMN1751    -0.2224
     30  O2P        9.9370   -7.0960   36.2110 O.3   1751  FMN1751    -0.1145
     31  O3P       11.8770   -8.0050   37.7020 O.3   1751  FMN1751    -0.1145
@<TRIPOS>BOND
     1    12    11    1
     2    14    13    1
     3    11    13    1
     4    11    10    2
     5    13    15    2
     6    10     9    1
     7    15    16    1
     8     9    16    1
     9     9     8    2
    10    16    17    1
    11    29    28    2
    12    30    28    1
    13     8     7    2
    14    28    27    1
    15    28    31    1
    16    23    22    1
    17    17    19    1
    18    17    18    1
    19    26    27    1
    20    26    24    1
    21    19    20    1
    22     7    18    1
    23     7     5    1
    24    20    22    1
    25    20    21    1
    26    18     1    2
    27    22    24    1
    28    24    25    1
    29     6     5    2
    30     5     4    2
    31     1     2    2
    32     4     2    2
    33     2     3    2
