@<TRIPOS>MOLECULE
1ja1_NAP_A_1.pdb
 48 52 0 0 0
SMALL
GASTEIGER

@<TRIPOS>ATOM
      1  PA        10.5910   13.6480   22.7030 P.3   1752  NAP1752     0.2189
      2  O1A       10.8250   13.9400   21.2840 O.2   1752  NAP1752    -0.5170
      3  O2A       11.8260   13.9340   23.4120 O.3   1752  NAP1752    -0.4371
      4  O5B        9.4980   14.6860   23.2080 O.3   1752  NAP1752    -0.3112
      5  C5B        8.1870   14.8640   22.6240 C.3   1752  NAP1752     0.1813
      6  C4B        7.6600   16.2740   22.8760 C.3   1752  NAP1752     0.1820
      7  O4B        7.3770   16.4040   24.2920 O.3   1752  NAP1752    -0.3136
      8  C3B        8.6910   17.3650   22.5390 C.3   1752  NAP1752     0.2157
      9  O3B        8.1150   18.4670   21.8480 O.3   1752  NAP1752    -0.2175
     10  C2B        9.2150   17.7950   23.8970 C.3   1752  NAP1752     0.2314
     11  O2B        9.7090   19.1430   23.9360 O.3   1752  NAP1752    -0.2630
     12  C1B        7.9710   17.6150   24.7580 C.3   1752  NAP1752     0.3158
     13  N9A        8.2230   17.5100   26.2200 N.pl3 1752  NAP1752    -0.1439
     14  C8A        9.3810   17.3970   27.0010 C.3   1752  NAP1752     0.3377
     15  N7A        9.3300   17.3250   28.3720 N.2   1752  NAP1752    -0.2095
     16  C5A        7.9420   17.4060   28.4950 C.2   1752  NAP1752     0.2526
     17  C6A        7.0930   17.3980   29.6770 C.2   1752  NAP1752     0.4393
     18  N6A        7.5780   17.3120   30.9050 N.pl3 1752  NAP1752     0.2180
     19  N1A        5.7710   17.4870   29.5490 N.2   1752  NAP1752     0.0021
     20  C2A        5.1470   17.5860   28.3000 C.3   1752  NAP1752     0.5254
     21  N3A        5.7990   17.6070   27.1260 N.2   1752  NAP1752    -0.0055
     22  C4A        7.2620   17.5130   27.1930 C.2   1752  NAP1752     0.3518
     23  O3         9.9220   12.2850   23.0590 O.3   1752  NAP1752    -0.2703
     24  PN        10.2190   10.9740   22.2790 P.3   1752  NAP1752     0.2189
     25  O1N       11.0750   11.0920   21.1180 O.2   1752  NAP1752    -0.5170
     26  O2N        9.0250   10.3230   21.7790 O.3   1752  NAP1752    -0.4371
     27  O5D       10.8620    9.9110   23.3020 O.3   1752  NAP1752    -0.3112
     28  C5D       12.1530    9.9990   23.9020 C.3   1752  NAP1752     0.1813
     29  C4D       12.3120    8.7620   24.8000 C.3   1752  NAP1752     0.1799
     30  O4D       13.6930    8.4830   24.9930 O.3   1752  NAP1752    -0.3327
     31  C3D       11.6550    8.9120   26.1790 C.3   1752  NAP1752     0.2158
     32  O3D       10.6620    7.8990   26.4000 O.3   1752  NAP1752    -0.2175
     33  C2D       12.8020    8.8240   27.1990 C.3   1752  NAP1752     0.2309
     34  O2D       12.5240    7.9000   28.2510 O.3   1752  NAP1752    -0.2158
     35  C1D       14.0500    8.4730   26.3900 C.3   1752  NAP1752     0.2263
     36  N1N       15.2450    9.4010   26.6660 N.pl3 1752  NAP1752    -0.2787
     37  C2N       16.0680    9.0970   27.7010 C.3   1752  NAP1752     0.1244
     38  C3N       17.2090    9.8930   28.0540 C.2   1752  NAP1752     0.0544
     39  C7N       18.1580    9.5860   29.2140 C.2   1752  NAP1752     0.2818
     40  O7N       19.1290   10.2920   29.4910 O.2   1752  NAP1752    -0.2670
     41  N7N       17.9250    8.4170   30.0350 N.am  1752  NAP1752    -0.0839
     42  C4N       17.4510   11.0560   27.2430 C.2   1752  NAP1752     0.0033
     43  C5N       16.6040   11.3890   26.1560 C.2   1752  NAP1752     0.0157
     44  C6N       15.5020   10.5410   25.8890 C.2   1752  NAP1752     0.0633
     45  P2B       11.2150   19.5520   24.3760 P.3   1752  NAP1752     0.5328
     46  O1X       11.2370   19.9240   25.9340 O.3   1752  NAP1752    -0.1145
     47  O2X       11.6270   20.8270   23.5050 O.2   1752  NAP1752    -0.2224
     48  O3X       12.2170   18.3360   24.0970 O.3   1752  NAP1752    -0.1145
@<TRIPOS>BOND
     1    25    24    2
     2     2     1    2
     3    26    24    1
     4     9     8    1
     5    24    23    1
     6    24    27    1
     7     8     6    1
     8     8    10    1
     9     5     6    1
    10     5     4    1
    11     1    23    1
    12     1     4    1
    13     1     3    1
    14     6     7    1
    15    27    28    1
    16    47    45    2
    17    10    11    1
    18    10    12    1
    19    28    29    1
    20    11    45    1
    21    48    45    1
    22     7    12    1
    23    45    46    1
    24    12    13    1
    25    29    30    1
    26    29    31    1
    27    30    35    1
    28    44    43    2
    29    44    36    1
    30    43    42    1
    31    31    32    1
    32    31    33    1
    33    13    14    1
    34    13    22    1
    35    35    36    1
    36    35    33    1
    37    36    37    1
    38    14    15    1
    39    21    22    2
    40    21    20    1
    41    22    16    1
    42    33    34    1
    43    42    38    2
    44    37    38    1
    45    38    39    1
    46    20    19    1
    47    15    16    2
    48    16    17    1
    49    39    40    2
    50    39    41   am
    51    19    17    2
    52    17    18    1
