@<TRIPOS>MOLECULE
1ja9_NDP_A_1.pdb
 48 52 0 0 0
SMALL
GASTEIGER

@<TRIPOS>ATOM
      1  PA        94.5980   20.1000   18.5100 P.3   402  NDP402      0.2189
      2  O1A       95.7070   19.5090   19.2930 O.3   402  NDP402     -0.4371
      3  O2A       94.6270   21.4350   17.9140 O.2   402  NDP402     -0.5170
      4  O5B       93.2150   19.9560   19.3570 O.3   402  NDP402     -0.3112
      5  C5B       92.7850   18.6150   19.6600 C.3   402  NDP402      0.1813
      6  C4B       91.4220   18.4810   20.3370 C.3   402  NDP402      0.1820
      7  O4B       91.3960   17.2290   21.0440 O.3   402  NDP402     -0.3136
      8  C3B       91.1790   19.6110   21.2840 C.3   402  NDP402      0.2157
      9  O3B       89.8370   20.1500   21.1070 O.3   402  NDP402     -0.2175
     10  C2B       91.1760   18.9220   22.6130 C.3   402  NDP402      0.2314
     11  O2B       90.3440   19.6940   23.5280 O.3   402  NDP402     -0.2630
     12  C1B       90.7400   17.5240   22.2440 C.3   402  NDP402      0.3158
     13  N9A       91.0000   16.6420   23.3660 N.pl3 402  NDP402     -0.1439
     14  C8A       92.2560   16.2350   23.7150 C.3   402  NDP402      0.3377
     15  N7A       92.1890   15.4250   24.7590 N.2   402  NDP402     -0.2095
     16  C5A       90.8840   15.3430   25.0420 C.2   402  NDP402      0.2526
     17  C6A       90.3060   14.5900   26.0680 C.2   402  NDP402      0.4393
     18  N6A       91.0220   13.8020   26.8990 N.pl3 402  NDP402      0.2180
     19  N1A       88.9570   14.6580   26.1550 N.2   402  NDP402      0.0021
     20  C2A       88.2230   15.4100   25.2990 C.3   402  NDP402      0.5254
     21  N3A       88.7850   16.1230   24.3240 N.2   402  NDP402     -0.0055
     22  C4A       90.1160   16.1070   24.1690 C.2   402  NDP402      0.3518
     23  O3        94.1380   19.0390   17.3510 O.3   402  NDP402     -0.2703
     24  PN        93.6290   19.1350   15.8430 P.3   402  NDP402      0.2189
     25  O1N       92.3460   19.9070   15.9260 O.3   402  NDP402     -0.4371
     26  O2N       94.6770   19.5980   14.9390 O.2   402  NDP402     -0.5170
     27  O5D       93.2750   17.6140   15.5160 O.3   402  NDP402     -0.3112
     28  C5D       91.9680   17.0610   15.7880 C.3   402  NDP402      0.1813
     29  C4D       91.9220   15.6110   15.3080 C.3   402  NDP402      0.1799
     30  O4D       92.3890   15.5200   13.9340 O.3   402  NDP402     -0.3327
     31  C3D       92.8510   14.7040   16.0820 C.3   402  NDP402      0.2158
     32  O3D       92.2760   13.3990   16.2260 O.3   402  NDP402     -0.2175
     33  C2D       94.1260   14.6440   15.2540 C.3   402  NDP402      0.2309
     34  O2D       94.9420   13.4760   15.4890 O.3   402  NDP402     -0.2158
     35  C1D       93.4930   14.6200   13.8800 C.3   402  NDP402      0.2263
     36  N1N       94.3480   15.0780   12.7900 N.pl3 402  NDP402     -0.2787
     37  C2N       94.9000   16.3800   12.7400 C.3   402  NDP402      0.1244
     38  C3N       95.6710   16.7700   11.6450 C.2   402  NDP402      0.0544
     39  C7N       96.2810   18.1480   11.5150 C.2   402  NDP402      0.2818
     40  O7N       97.0410   18.3760   10.5880 O.2   402  NDP402     -0.2670
     41  N7N       95.9310   19.0750   12.4200 N.am  402  NDP402     -0.0839
     42  C4N       95.8960   15.8670   10.5880 C.2   402  NDP402      0.0033
     43  C5N       95.3520   14.5700   10.6220 C.2   402  NDP402      0.0157
     44  C6N       94.5650   14.1620   11.7260 C.2   402  NDP402      0.0633
     45  P2B       90.8150   20.0780   25.0030 P.3   402  NDP402      0.5328
     46  O1X       91.6540   21.2570   24.8150 O.2   402  NDP402     -0.2224
     47  O2X       91.5010   18.9710   25.6960 O.3   402  NDP402     -0.1145
     48  O3X       89.5920   20.4770   25.7580 O.3   402  NDP402     -0.1145
@<TRIPOS>BOND
     1    42    43    1
     2    42    38    2
     3    40    39    2
     4    43    44    2
     5    39    38    1
     6    39    41   am
     7    38    37    1
     8    44    36    1
     9    37    36    1
    10    36    35    1
    11    35    30    1
    12    35    33    1
    13    30    29    1
    14    26    24    2
    15    33    34    1
    16    33    31    1
    17    29    28    1
    18    29    31    1
    19    27    28    1
    20    27    24    1
    21    24    25    1
    22    24    23    1
    23    31    32    1
    24    23     1    1
    25     3     1    2
    26     1     2    1
    27     1     4    1
    28     4     5    1
    29     5     6    1
    30     6     7    1
    31     6     8    1
    32     7    12    1
    33     9     8    1
    34     8    10    1
    35    12    10    1
    36    12    13    1
    37    10    11    1
    38    13    14    1
    39    13    22    1
    40    11    45    1
    41    14    15    1
    42    22    21    2
    43    22    16    1
    44    21    20    1
    45    15    16    2
    46    46    45    2
    47    45    47    1
    48    45    48    1
    49    16    17    1
    50    20    19    1
    51    17    19    2
    52    17    18    1
