@<TRIPOS>MOLECULE
1ja9_PYQ_A_1.pdb
 13 15 0 0 0
SMALL
GASTEIGER

@<TRIPOS>ATOM
      1  C1       100.9400   18.2890   10.4140 C.ar  406  PYQ406      0.0014
      2  C2       100.2600   17.1480   10.8920 C.ar  406  PYQ406      0.0164
      3  C3        99.9680   16.1330    9.9400 C.ar  406  PYQ406      0.0668
      4  C5       100.3160   16.2180    8.5790 C.ar  406  PYQ406      0.0177
      5  C6        99.8380   14.9500    7.8820 C.ar  406  PYQ406      0.0205
      6  C7        99.1750   14.1770    9.0750 C.ar  406  PYQ406      0.0830
      7  N8        99.3200   14.9770   10.2260 N.ar  406  PYQ406     -0.2731
      8  C9        98.9070   14.7290   11.4970 C.ar  406  PYQ406      0.2648
      9  O10       98.2930   13.6410   11.7670 O.2   406  PYQ406     -0.2666
     10  C11       99.1580   15.6860   12.5250 C.ar  406  PYQ406      0.0611
     11  C12       99.8330   16.9030   12.2390 C.ar  406  PYQ406      0.0063
     12  C13      100.9930   17.3550    8.0980 C.ar  406  PYQ406      0.0015
     13  C14      101.3020   18.3890    9.0300 C.ar  406  PYQ406      0.0001
@<TRIPOS>BOND
     1     5     4   ar
     2     5     6   ar
     3    12     4   ar
     4    12    13   ar
     5     4     3   ar
     6    13     1   ar
     7     6     7   ar
     8     3     7   ar
     9     3     2   ar
    10     7     8   ar
    11     1     2   ar
    12     2    11   ar
    13     8     9    2
    14     8    10   ar
    15    11    10   ar
