@<TRIPOS>MOLECULE
1jac_AMG_A_1.pdb
 13 13 0 0 0
SMALL
GASTEIGER

@<TRIPOS>ATOM
      1  C1        33.5750   59.4060   70.2800 C.3   200  AMG200      0.2695
      2  C2        33.8850   59.9460   68.9260 C.3   200  AMG200      0.2406
      3  C3        35.3480   60.4830   68.8290 C.3   200  AMG200      0.2198
      4  C4        35.6310   61.4960   69.9710 C.3   200  AMG200      0.2144
      5  C5        35.3340   60.8570   71.3140 C.3   200  AMG200      0.1835
      6  C6        35.5780   61.6970   72.5750 C.3   200  AMG200      0.2142
      7  C7        34.0850   57.4410   71.8190 C.3   200  AMG200      0.1769
      8  O1        34.1040   58.0660   70.4940 O.3   200  AMG200     -0.3259
      9  O2        33.6990   59.0370   67.8870 O.3   200  AMG200     -0.2149
     10  O3        35.3040   61.1470   67.5320 O.3   200  AMG200     -0.2174
     11  O4        34.6700   62.5010   69.6990 O.3   200  AMG200     -0.2176
     12  O5        33.9470   60.4680   71.2560 O.3   200  AMG200     -0.3256
     13  O6        34.4850   62.5690   72.7260 O.3   200  AMG200     -0.2176
@<TRIPOS>BOND
     1    10     3    1
     2     9     2    1
     3     3     2    1
     4     3     4    1
     5     2     1    1
     6    11     4    1
     7     4     5    1
     8     1     8    1
     9     1    12    1
    10     8     7    1
    11    12     5    1
    12     5     6    1
    13     6    13    1
