@<TRIPOS>MOLECULE
1jaf_HEM_A_1.pdb
 43 50 0 0 0
SMALL
GASTEIGER

@<TRIPOS>ATOM
      1 FE         16.3610   26.6740  104.5930 Fe    130  HEM130      0.0000
      2  CHA       13.7090   28.4540  103.3730 C.2   130  HEM130      0.0000
      3  CHB       14.6930   23.8290  103.9320 C.2   130  HEM130      0.0000
      4  CHC       19.1950   24.9010  104.8340 C.2   130  HEM130      0.0000
      5  CHD       18.1080   29.5360  104.9370 C.2   130  HEM130      0.0000
      6  NA        14.6240   26.2490  103.8410 N.ar  130  HEM130      0.0000
      7  C1A       13.6330   27.0910  103.3730 C.ar  130  HEM130      0.0000
      8  C2A       12.4500   26.3570  102.9570 C.ar  130  HEM130      0.0000
      9  C3A       12.7230   25.0590  103.1670 C.ar  130  HEM130      0.0000
     10  C4A       14.0590   25.0070  103.7040 C.ar  130  HEM130      0.0000
     11  CMA       11.7860   23.9230  102.8430 C.3   130  HEM130      0.0000
     12  CAA       11.0880   26.8430  102.5050 C.3   130  HEM130      0.0000
     13  CBA       11.0140   27.4190  101.1080 C.3   130  HEM130      0.0000
     14  CGA        9.6140   27.8490  100.7400 C.2   130  HEM130      0.0000
     15  O1A        9.0150   28.6470  101.4880 O.co2 130  HEM130      0.0000
     16  O2A        9.1010   27.3880   99.7050 O.co2 130  HEM130      0.0000
     17  NB        16.8390   24.7890  104.4530 N.2   130  HEM130      0.0000
     18  C1B       16.0010   23.7100  104.2670 C.2   130  HEM130      0.0000
     19  C2B       16.6910   22.4430  104.3800 C.2   130  HEM130      0.0000
     20  C3B       17.9930   22.7380  104.5910 C.2   130  HEM130      0.0000
     21  C4B       18.0620   24.1950  104.6150 C.2   130  HEM130      0.0000
     22  CMB       16.0900   21.0510  104.3570 C.3   130  HEM130      0.0000
     23  CAB       19.2170   21.9040  104.9060 C.3   130  HEM130      0.0000
     24  CBB       19.4370   20.7170  103.9610 C.3   130  HEM130      0.0000
     25  NC        18.2340   27.1090  104.8810 N.ar  130  HEM130      0.0000
     26  C1C       19.2910   26.2440  104.9910 C.ar  130  HEM130      0.0000
     27  C2C       20.5400   26.8980  105.3620 C.ar  130  HEM130      0.0000
     28  C3C       20.2760   28.2340  105.3990 C.ar  130  HEM130      0.0000
     29  C4C       18.8290   28.3480  105.0750 C.ar  130  HEM130      0.0000
     30  CMC       21.8860   26.2520  105.6870 C.3   130  HEM130      0.0000
     31  CAC       21.1140   29.4550  105.8480 C.3   130  HEM130      0.0000
     32  CBC       22.6230   29.5430  105.6670 C.3   130  HEM130      0.0000
     33  ND        15.9720   28.5550  104.2630 N.2   130  HEM130      0.0000
     34  C1D       16.7790   29.6420  104.5710 C.2   130  HEM130      0.0000
     35  C2D       16.0700   30.9040  104.3510 C.2   130  HEM130      0.0000
     36  C3D       14.8690   30.5810  103.8250 C.2   130  HEM130      0.0000
     37  C4D       14.8040   29.1410  103.7960 C.2   130  HEM130      0.0000
     38  CMD       16.4750   32.2940  104.7450 C.3   130  HEM130      0.0000
     39  CAD       13.8250   31.5410  103.3250 C.3   130  HEM130      0.0000
     40  CBD       13.9080   31.9010  101.8550 C.3   130  HEM130      0.0000
     41  CGD       12.8460   32.9030  101.4590 C.2   130  HEM130      0.0000
     42  O1D       13.1980   33.9490  100.8760 O.co2 130  HEM130      0.0000
     43  O2D       11.6560   32.6560  101.7460 O.co2 130  HEM130      0.0000
@<TRIPOS>BOND
     1    16    14   ar
     2    14    13    1
     3    14    15   ar
     4    42    41   ar
     5    13    12    1
     6    41    43   ar
     7    41    40    1
     8    40    39    1
     9    12     8    1
    10    11     9    1
    11     8     9   ar
    12     8     7   ar
    13     9    10   ar
    14    39    36    1
    15     2     7    2
    16     2    37    1
    17     7     6   ar
    18    10     6   ar
    19    10     3    2
    20    37    36    1
    21    37    33    2
    22    36    35    2
    23     6     1    1
    24     3    18    1
    25    24    23    1
    26    33    34    1
    27    33     1    1
    28    18    19    1
    29    18    17    2
    30    35    34    1
    31    35    38    1
    32    22    19    1
    33    19    20    2
    34    17     1    1
    35    17    21    1
    36    34     5    2
    37    20    21    1
    38    20    23    1
    39     1    25    1
    40    21     4    2
    41     4    26    1
    42    25    26   ar
    43    25    29   ar
    44     5    29    1
    45    26    27   ar
    46    29    28   ar
    47    27    28   ar
    48    27    30    1
    49    28    31    1
    50    32    31    1
