@<TRIPOS>MOLECULE
1jah_GCP_A_1.pdb
 32 34 0 0 0
SMALL
GASTEIGER

@<TRIPOS>ATOM
      1  PG         4.8440   31.9840   22.0550 P.3   167  GCP167      0.1295
      2  O1G        4.4920   32.5160   23.3820 O.3   167  GCP167     -0.3567
      3  O2G        3.9370   32.4350   21.0300 O.2   167  GCP167     -0.4595
      4  O3G        4.5690   30.4690   22.1470 O.3   167  GCP167     -0.3567
      5  C3B        6.4920   32.1710   21.6360 C.3   167  GCP167      0.1768
      6  PB         7.1250   31.7530   20.1260 P.3   167  GCP167      0.3815
      7  O1B        7.3340   30.3010   19.9780 O.3   167  GCP167     -0.1391
      8  O2B        6.3790   32.2630   19.0460 O.2   167  GCP167     -0.2547
      9  O3A        8.5470   32.4210   19.9860 O.3   167  GCP167     -0.2483
     10  PA         9.0960   33.8870   19.5290 P.3   167  GCP167      0.2209
     11  O1A        9.1190   34.0140   18.0510 O.2   167  GCP167     -0.5170
     12  O2A        8.3680   34.9170   20.2710 O.3   167  GCP167     -0.4371
     13  O5'       10.5910   33.8080   20.0510 O.3   167  GCP167     -0.3111
     14  C5'       10.9150   33.4520   21.3940 C.3   167  GCP167      0.1813
     15  C4'       12.2710   33.9580   21.7190 C.3   167  GCP167      0.1799
     16  O4'       13.2960   33.1610   21.0330 O.3   167  GCP167     -0.3326
     17  C3'       12.4920   35.4240   21.2690 C.3   167  GCP167      0.2158
     18  O3'       13.3800   36.0860   22.1650 O.3   167  GCP167     -0.2175
     19  C2'       13.1340   35.2480   19.8860 C.3   167  GCP167      0.2310
     20  O2'       13.9360   36.4080   19.5200 O.3   167  GCP167     -0.2158
     21  C1'       14.0170   34.0020   20.1120 C.3   167  GCP167      0.2293
     22  N9        14.2500   33.2850   18.8930 N.pl3 167  GCP167     -0.2354
     23  C8        13.3750   32.8270   18.0260 C.3   167  GCP167      0.2246
     24  N7        13.8740   32.3640   16.9580 N.2   167  GCP167     -0.2322
     25  C5        15.1960   32.3050   17.2100 C.2   167  GCP167      0.2182
     26  C6        16.2570   31.7890   16.4480 C.1   167  GCP167      0.2372
     27  O6        16.2580   31.1720   15.3740 O.2   167  GCP167     -0.2069
     28  N1        17.4570   32.0790   17.0220 N.2   167  GCP167     -0.2485
     29  C2        17.6450   32.6660   18.2400 C.1   167  GCP167      0.2531
     30  N2        18.9020   33.0740   18.4700 N.pl3 167  GCP167     -0.0226
     31  N3        16.6340   33.0330   19.0210 N.2   167  GCP167     -0.3074
     32  C4        15.4520   32.8900   18.4070 C.2   167  GCP167      0.2300
@<TRIPOS>BOND
     1    27    26    2
     2    26    28    2
     3    26    25    1
     4    24    25    2
     5    24    23    1
     6    28    29    2
     7    25    32    1
     8    23    22    1
     9    11    10    2
    10    29    30    1
    11    29    31    2
    12    32    22    1
    13    32    31    2
    14    22    21    1
    15     8     6    2
    16    20    19    1
    17    10     9    1
    18    10    13    1
    19    10    12    1
    20    19    21    1
    21    19    17    1
    22     7     6    1
    23     9     6    1
    24    13    14    1
    25    21    16    1
    26     6     5    1
    27     3     1    2
    28    16    15    1
    29    17    15    1
    30    17    18    1
    31    14    15    1
    32     5     1    1
    33     1     4    1
    34     1     2    1
