@<TRIPOS>MOLECULE
1jai_GCP_A_1.pdb
 32 34 0 0 0
SMALL
GASTEIGER

@<TRIPOS>ATOM
      1  PG         4.7230   31.8200   22.0150 P.3   167  GCP167      0.1295
      2  O1G        4.3900   32.3010   23.3910 O.3   167  GCP167     -0.3567
      3  O2G        3.7740   32.2980   21.0270 O.2   167  GCP167     -0.4595
      4  O3G        4.4750   30.3010   22.0290 O.3   167  GCP167     -0.3567
      5  C3B        6.3300   31.9980   21.5860 C.3   167  GCP167      0.1768
      6  PB         6.9390   31.5640   20.0870 P.3   167  GCP167      0.3815
      7  O1B        7.1370   30.1150   19.9590 O.3   167  GCP167     -0.1391
      8  O2B        6.1770   32.1340   18.9820 O.2   167  GCP167     -0.2547
      9  O3A        8.3680   32.2220   19.9520 O.3   167  GCP167     -0.2483
     10  PA         8.9340   33.6780   19.5030 P.3   167  GCP167      0.2209
     11  O1A        8.9700   33.7580   18.0030 O.2   167  GCP167     -0.5170
     12  O2A        8.1980   34.7530   20.2060 O.3   167  GCP167     -0.4371
     13  O5'       10.4260   33.5770   20.0710 O.3   167  GCP167     -0.3111
     14  C5'       10.7170   33.2850   21.4490 C.3   167  GCP167      0.1813
     15  C4'       12.0770   33.7710   21.7140 C.3   167  GCP167      0.1799
     16  O4'       13.0510   32.9540   20.9710 O.3   167  GCP167     -0.3326
     17  C3'       12.2980   35.2480   21.2440 C.3   167  GCP167      0.2158
     18  O3'       13.1600   35.9480   22.1590 O.3   167  GCP167     -0.2175
     19  C2'       12.9770   35.0730   19.8780 C.3   167  GCP167      0.2310
     20  O2'       13.7970   36.1870   19.5720 O.3   167  GCP167     -0.2158
     21  C1'       13.8300   33.8170   20.1000 C.3   167  GCP167      0.2293
     22  N9        14.0830   33.1290   18.8660 N.pl3 167  GCP167     -0.2354
     23  C8        13.2030   32.6720   17.9690 C.3   167  GCP167      0.2246
     24  N7        13.7180   32.2420   16.8960 N.2   167  GCP167     -0.2322
     25  C5        15.0500   32.1940   17.1590 C.2   167  GCP167      0.2182
     26  C6        16.0980   31.7090   16.4010 C.1   167  GCP167      0.2372
     27  O6        16.0890   30.9940   15.3970 O.2   167  GCP167     -0.2069
     28  N1        17.3030   32.0050   16.9550 N.2   167  GCP167     -0.2485
     29  C2        17.5090   32.5460   18.1490 C.1   167  GCP167      0.2531
     30  N2        18.7440   32.9190   18.3460 N.pl3 167  GCP167     -0.0226
     31  N3        16.5050   32.8930   18.9790 N.2   167  GCP167     -0.3074
     32  C4        15.3040   32.7530   18.3660 C.2   167  GCP167      0.2300
@<TRIPOS>BOND
     1    27    26    2
     2    26    28    2
     3    26    25    1
     4    24    25    2
     5    24    23    1
     6    28    29    2
     7    25    32    1
     8    23    22    1
     9    11    10    2
    10    29    30    1
    11    29    31    2
    12    32    22    1
    13    32    31    2
    14    22    21    1
    15     8     6    2
    16    10     9    1
    17    10    13    1
    18    10    12    1
    19    20    19    1
    20    19    21    1
    21    19    17    1
    22     9     6    1
    23     7     6    1
    24    13    14    1
    25     6     5    1
    26    21    16    1
    27    16    15    1
    28     3     1    2
    29    17    15    1
    30    17    18    1
    31    14    15    1
    32     5     1    1
    33     1     4    1
    34     1     2    1
