@<TRIPOS>MOLECULE
1jak_IFG_A_1.pdb
 14 14 0 0 0
SMALL
GASTEIGER

@<TRIPOS>ATOM
      1  N1        -4.9210   66.0730   10.1950 N.3   601  IFG601     -0.1963
      2  C2        -5.3230   66.5970    8.8640 C.3   601  IFG601      0.2007
      3  C3        -4.1330   66.9630    7.8870 C.3   601  IFG601      0.2184
      4  C4        -2.9250   67.6140    8.5930 C.3   601  IFG601      0.1892
      5  C5        -2.5140   66.7250    9.7690 C.3   601  IFG601      0.0835
      6  C6        -1.2940   67.1970   10.5530 C.3   601  IFG601      0.1861
      7  C7        -5.8370   64.3160    8.0960 C.2   601  IFG601      0.2432
      8  C8        -6.6540   63.2520    7.4090 C.3   601  IFG601      0.0965
      9  C9        -3.6480   66.5190   10.7820 C.3   601  IFG601      0.0958
     10  N2        -6.2190   65.6240    8.2000 N.am  601  IFG601     -0.1864
     11  O7        -4.7800   63.9530    8.5930 O.2   601  IFG601     -0.2733
     12  O3        -4.6120   67.8320    6.8690 O.3   601  IFG601     -0.2170
     13  O4        -3.3200   68.8920    9.0900 O.3   601  IFG601     -0.2202
     14  O6        -0.6840   66.1220   11.2590 O.3   601  IFG601     -0.2203
@<TRIPOS>BOND
     1    12     3    1
     2     8     7    1
     3     3     4    1
     4     3     2    1
     5     7    10   am
     6     7    11    2
     7    10     2    1
     8     4    13    1
     9     4     5    1
    10     2     1    1
    11     5     6    1
    12     5     9    1
    13     1     9    1
    14     6    14    1
