@<TRIPOS>MOLECULE
1jan_III_I_1.pdb
 27 27 0 0 0
SMALL
GASTEIGER

@<TRIPOS>ATOM
      1  N         24.1000   65.2430   61.0210 N.4     1  PRO1        0.3907
      2  CA        23.4410   64.1780   60.2270 C.3     1  PRO1        0.0167
      3  C         24.4490   63.0720   59.9030 C.2     1  PRO1        0.2027
      4  O         25.5840   63.1200   60.3680 O.2     1  PRO1       -0.2773
      5  CB        22.9010   64.8180   58.9470 C.3     1  PRO1       -0.0146
      6  CG        23.7490   66.1370   58.8150 C.3     1  PRO1       -0.0250
      7  CD        24.0780   66.5300   60.2530 C.3     1  PRO1       -0.0810
      8  H2        23.5890   65.3300   61.9150 H       1  PRO1       -0.0837
      9  H3        25.0520   64.8320   61.1950 H       1  PRO1       -0.0837
     10  N         24.0350   62.1060   59.0840 N.am    2  LEU2       -0.3000
     11  CA        24.8570   60.9730   58.6910 C.3     2  LEU2        0.1485
     12  C         25.0630   61.1140   57.2140 C.2     2  LEU2        0.2407
     13  O         24.0620   61.1960   56.4930 O.2     2  LEU2       -0.2733
     14  CB        24.1020   59.6720   58.9860 C.3     2  LEU2        0.0290
     15  CG        23.6720   59.7620   60.4500 C.3     2  LEU2        0.0021
     16  CD1       22.4250   58.9720   60.7860 C.3     2  LEU2        0.0001
     17  CD2       24.8510   59.3660   61.3000 C.3     2  LEU2        0.0001
     18  H         23.1550   62.1010   58.6590 H       2  LEU2        0.1497
     19  N         26.3320   61.1870   56.7820 N.am    3  GLY3       -0.2953
     20  CA        26.6580   61.3130   55.3700 C.3     3  GLY3        0.1778
     21  C         26.3560   59.9650   54.7640 C.2     3  GLY3        0.2644
     22  O         26.6250   58.9640   55.3720 O.2     3  GLY3       -0.2712
     23  H         27.0870   61.1110   57.3970 H       3  GLY3        0.1499
     24  N         25.7480   59.8970   53.6090 N.am    4  HOA4       -0.1956
     25  O         25.4570   58.6230   53.1130 O.3     4  HOA4       -0.2951
     26  HN1       25.5300   60.6970   53.1250 H       4  HOA4        0.1823
     27  HO        25.2540   58.0240   53.8910 H       4  HOA4        0.2414
@<TRIPOS>BOND
     1    25    24    1
     2    25    27    1
     3    26    24    1
     4    24    21   am
     5    21    20    1
     6    21    22    2
     7    20    19    1
     8    13    12    2
     9    19    12   am
    10    19    23    1
    11    12    11    1
    12    18    10    1
    13    11    14    1
    14    11    10    1
    15     6     5    1
    16     6     7    1
    17     5     2    1
    18    14    15    1
    19    10     3   am
    20     3     2    1
    21     3     4    2
    22     2     1    1
    23     7     1    1
    24    15    16    1
    25    15    17    1
    26     1     9    1
    27     1     8    1
