@<TRIPOS>MOLECULE
1jao_0D3_A_1.pdb
 26 26 0 0 0
SMALL
GASTEIGER

@<TRIPOS>ATOM
      1  C1        28.1410   59.3310   50.4100 C.2     1  0D31        0.2235
      2  O1        27.9380   60.4170   49.8620 O.2     1  0D31       -0.2751
      3  C2        27.0550   58.6650   51.2520 C.3     1  0D31        0.0924
      4  C3        25.8220   58.4370   50.3520 C.3     1  0D31        0.0363
      5  C1'       25.8180   57.1130   49.5940 C.ar    1  0D31       -0.0217
      6  C2'       26.5800   56.0320   50.0170 C.ar    1  0D31       -0.0043
      7  C3'       26.5160   54.8120   49.3740 C.ar    1  0D31       -0.0003
      8  C4'       25.6920   54.6650   48.2970 C.ar    1  0D31       -0.0000
      9  C5'       24.9260   55.7290   47.8470 C.ar    1  0D31       -0.0003
     10  C6'       24.9970   56.9420   48.4960 C.ar    1  0D31       -0.0043
     11  C'        26.7860   59.5460   52.4960 C.3     1  0D31        0.0780
     12  S'        25.4920   58.9180   53.6320 S.3     1  0D31       -0.0816
     13  N         29.3000   58.6810   50.3180 N.am    1  0D31       -0.2983
     14  CA        30.4080   59.2270   49.5530 C.3     1  0D31        0.1486
     15  C         30.4740   58.6420   48.1610 C.2     1  0D31        0.2407
     16  O         30.2400   57.4560   47.9690 O.2     1  0D31       -0.2733
     17  CB        31.6840   59.0130   50.2740 C.3     1  0D31        0.0312
     18  N1        30.8880   59.4780   47.2170 N.am    1  0D31       -0.2953
     19  CA1       30.9500   59.0920   45.8270 C.3     1  0D31        0.1754
     20  C4        32.1720   58.3430   45.3570 C.2     1  0D31        0.2394
     21  O2        32.7810   58.7980   44.3830 O.2     1  0D31       -0.2735
     22  N2        32.1630   57.0380   45.6440 N.am    1  0D31       -0.3274
     23  H         29.3470   57.8220   50.8070 H       1  0D31        0.1498
     24  H1        31.1770   60.3750   47.4870 H       1  0D31        0.1499
     25  HN1       31.3890   56.6310   46.1510 H       1  0D31        0.1450
     26  HN2       32.9680   56.5450   45.2980 H       1  0D31        0.1450
@<TRIPOS>BOND
     1    21    20    2
     2    26    22    1
     3    20    22   am
     4    20    19    1
     5    22    25    1
     6    19    18    1
     7    18    24    1
     8    18    15   am
     9     9     8   ar
    10     9    10   ar
    11    16    15    2
    12    15    14    1
    13     8     7   ar
    14    10     5   ar
    15     7     6   ar
    16    14    17    1
    17    14    13    1
    18     5     6   ar
    19     5     4    1
    20     2     1    2
    21    13     1   am
    22    13    23    1
    23     4     3    1
    24     1     3    1
    25     3    11    1
    26    11    12    1
