@<TRIPOS>MOLECULE
1jap_III_I_1.pdb
 21 21 0 0 0
SMALL
GASTEIGER

@<TRIPOS>ATOM
      1  N         23.9990   64.8030   61.1530 N.3     1  PRO1       -0.2102
      2  CA        23.3210   63.8600   60.2290 C.3     1  PRO1        0.1504
      3  C         24.3640   62.8350   59.7540 C.2     1  PRO1        0.2576
      4  O         25.5740   63.0990   59.7870 O.2     1  PRO1       -0.2718
      5  CB        22.7940   64.6800   59.0300 C.3     1  PRO1        0.0282
      6  CG        23.8090   65.9100   58.9710 C.3     1  PRO1        0.0208
      7  CD        24.1280   66.1470   60.4680 C.3     1  PRO1        0.0893
      8  N         23.8800   61.6830   59.3070 N.am    2  LEU2       -0.1966
      9  CA        24.7150   60.6100   58.8140 C.3     2  LEU2        0.1728
     10  C         24.9690   60.7900   57.3270 C.2     2  LEU2        0.2616
     11  O         24.0160   60.8490   56.5490 O.2     2  LEU2       -0.2715
     12  CB        24.0390   59.2460   59.0160 C.3     2  LEU2        0.0311
     13  CG        23.5390   58.7350   60.3790 C.3     2  LEU2        0.0022
     14  CD1       24.5220   59.1650   61.4810 C.3     2  LEU2        0.0001
     15  CD2       22.1380   59.2650   60.6660 C.3     2  LEU2        0.0001
     16  N         26.2480   60.8750   56.9340 N.am    3  GLY3       -0.1970
     17  CA        26.5820   60.9700   55.5080 C.3     3  GLY3        0.1659
     18  C         26.2140   59.6270   54.8720 C.2     3  GLY3        0.1088
     19  O         26.5380   58.5780   55.4250 O.2     3  GLY3       -0.5379
     20  N         25.4860   59.6090   53.7650 N.am    4  HOA4       -0.2012
     21  O         25.1670   58.3520   53.2190 O.3     4  HOA4       -0.4026
@<TRIPOS>BOND
     1    21    20    1
     2    20    18   am
     3    18    19    2
     4    18    17    1
     5    17    16    1
     6    11    10    2
     7    16    10   am
     8    10     9    1
     9     9    12    1
    10     9     8    1
    11     6     5    1
    12     6     7    1
    13    12    13    1
    14     5     2    1
    15     8     3   am
    16     3     4    2
    17     3     2    1
    18     2     1    1
    19    13    15    1
    20    13    14    1
    21     7     1    1
