@<TRIPOS>MOLECULE
1jaq_01S_A_1.pdb
 27 26 0 0 0
SMALL
GASTEIGER

@<TRIPOS>ATOM
      1  N         25.5830   60.0800   53.7210 N.am    1  01S1       -0.1966
      2  OH        24.7190   59.0810   54.1600 O.3     1  01S1       -0.2952
      3  C1        26.8430   59.7710   53.4900 C.2     1  01S1        0.2526
      4  O1        27.2550   58.6470   53.6670 O.2     1  01S1       -0.2725
      5  CA        27.7710   60.8910   52.9840 C.3     1  01S1        0.1545
      6  CB        29.0010   60.9470   53.8590 C.3     1  01S1        0.0184
      7  CG        28.9460   61.9840   54.9840 C.3     1  01S1        0.0010
      8  CD1       29.2660   63.3870   54.4510 C.3     1  01S1        0.0000
      9  CD2       27.5730   61.9580   55.7150 C.3     1  01S1        0.0000
     10  C         28.1990   60.6030   51.5540 C.2     1  01S1        0.2311
     11  O         27.9860   61.4070   50.6410 O.2     1  01S1       -0.2746
     12  N1        28.8560   59.4730   51.3550 N.am    1  01S1       -0.2980
     13  CA1       29.3250   59.1540   50.0270 C.3     1  01S1        0.1486
     14  C2        28.2420   58.4100   49.2240 C.2     1  01S1        0.2407
     15  O2        28.4690   58.0280   48.0740 O.2     1  01S1       -0.2733
     16  CB1       30.6140   58.3850   50.1030 C.3     1  01S1        0.0312
     17  N2        27.1300   58.1020   49.9100 N.am    1  01S1       -0.2953
     18  CA2       25.9430   57.5180   49.3080 C.3     1  01S1        0.1754
     19  C3        25.9370   56.1170   48.8290 C.2     1  01S1        0.2394
     20  O3        25.1680   55.8360   47.9080 O.2     1  01S1       -0.2735
     21  N3        26.3920   55.2060   49.6780 N.am    1  01S1       -0.3274
     22  HN        25.2930   61.0020   53.5680 H       1  01S1        0.1822
     23  HOH       23.8200   59.1540   53.8610 H       1  01S1        0.2414
     24  H         28.9850   58.8610   52.1160 H       1  01S1        0.1498
     25  H1        27.1390   58.2330   50.8760 H       1  01S1        0.1499
     26  HN1       26.3970   54.1990   49.4790 H       1  01S1        0.1450
     27  HN2       26.6950   55.5080   50.5920 H       1  01S1        0.1450
@<TRIPOS>BOND
     1    20    19    2
     2    15    14    2
     3    19    18    1
     4    19    21   am
     5    14    17   am
     6    14    13    1
     7    18    17    1
     8    26    21    1
     9    21    27    1
    10    17    25    1
    11    13    16    1
    12    13    12    1
    13    11    10    2
    14    12    10   am
    15    12    24    1
    16    10     5    1
    17     5     3    1
    18     5     6    1
    19     3     4    2
    20     3     1   am
    21    22     1    1
    22     1     2    1
    23     6     7    1
    24    23     2    1
    25     8     7    1
    26     7     9    1
