@<TRIPOS>MOLECULE
1jay_NAP_A_1.pdb
 48 52 0 0 0
SMALL
GASTEIGER

@<TRIPOS>ATOM
      1  PA        28.0520   30.2860   25.5060 P.3   213  NAP213      0.2189
      2  O1A       29.1590   29.7600   24.6460 O.2   213  NAP213     -0.5170
      3  O2A       28.1160   31.6640   25.9640 O.3   213  NAP213     -0.4371
      4  O5B       27.9540   29.3120   26.7620 O.3   213  NAP213     -0.3112
      5  C5B       26.9490   29.5770   27.7400 C.3   213  NAP213      0.1813
      6  C4B       27.3320   28.8910   29.0200 C.3   213  NAP213      0.1820
      7  O4B       27.3000   27.4880   28.9340 O.3   213  NAP213     -0.3136
      8  C3B       28.7100   29.2160   29.5010 C.3   213  NAP213      0.2157
      9  O3B       28.7780   30.5420   30.0440 O.3   213  NAP213     -0.2175
     10  C2B       28.9960   28.1670   30.5420 C.3   213  NAP213      0.2314
     11  O2B       28.5550   28.5490   31.8620 O.3   213  NAP213     -0.2630
     12  C1B       28.0830   27.0030   30.0480 C.3   213  NAP213      0.3158
     13  N9A       28.8290   25.7870   29.6640 N.pl3 213  NAP213     -0.1439
     14  C8A       29.9330   25.6320   28.8170 C.3   213  NAP213      0.3377
     15  N7A       30.3440   24.3790   28.7620 N.2   213  NAP213     -0.2095
     16  C5A       29.4850   23.6880   29.5970 C.2   213  NAP213      0.2526
     17  C6A       29.3910   22.3230   29.9920 C.2   213  NAP213      0.4393
     18  N6A       30.2400   21.3920   29.5520 N.pl3 213  NAP213      0.2180
     19  N1A       28.4010   21.9680   30.8520 N.2   213  NAP213      0.0021
     20  C2A       27.5280   22.8890   31.3140 C.3   213  NAP213      0.5254
     21  N3A       27.5550   24.1890   30.9930 N.2   213  NAP213     -0.0055
     22  C4A       28.5530   24.5280   30.1390 C.2   213  NAP213      0.3518
     23  O3        26.6760   30.0330   24.7510 O.3   213  NAP213     -0.2703
     24  PN        25.5300   30.9980   24.2260 P.3   213  NAP213      0.2189
     25  O1N       25.0540   31.8200   25.3610 O.3   213  NAP213     -0.4371
     26  O2N       26.0540   31.6670   23.0060 O.2   213  NAP213     -0.5170
     27  O5D       24.4520   29.9900   23.6190 O.3   213  NAP213     -0.3112
     28  C5D       23.6650   29.2650   24.5470 C.3   213  NAP213      0.1813
     29  C4D       22.6030   28.4520   23.8320 C.3   213  NAP213      0.1799
     30  O4D       21.6520   29.3300   23.2230 O.3   213  NAP213     -0.3327
     31  C3D       23.1170   27.5590   22.7030 C.3   213  NAP213      0.2158
     32  O3D       22.4630   26.2780   22.6660 O.3   213  NAP213     -0.2175
     33  C2D       22.8650   28.3190   21.4120 C.3   213  NAP213      0.2309
     34  O2D       22.5230   27.4930   20.3110 O.3   213  NAP213     -0.2158
     35  C1D       21.6530   29.1980   21.8140 C.3   213  NAP213      0.2263
     36  N1N       21.5380   30.4840   21.1340 N.pl3 213  NAP213     -0.2787
     37  C2N       22.6920   31.2990   21.0630 C.3   213  NAP213      0.1244
     38  C3N       22.5420   32.5480   20.4100 C.2   213  NAP213      0.0544
     39  C7N       23.6790   33.4650   20.2460 C.2   213  NAP213      0.2818
     40  O7N       23.6170   34.4290   19.4880 O.2   213  NAP213     -0.2670
     41  N7N       24.8320   33.2640   20.9030 N.am  213  NAP213     -0.0839
     42  C4N       21.2710   32.9100   19.8920 C.2   213  NAP213      0.0033
     43  C5N       20.1820   32.1020   19.9690 C.2   213  NAP213      0.0157
     44  C6N       20.3200   30.8910   20.5930 C.2   213  NAP213      0.0633
     45  P2B       29.3210   28.1620   33.2370 P.3   213  NAP213      0.5328
     46  O1X       28.8380   26.8430   33.7300 O.3   213  NAP213     -0.1145
     47  O2X       30.7480   28.1840   32.8380 O.2   213  NAP213     -0.2224
     48  O3X       28.9790   29.3220   34.1000 O.3   213  NAP213     -0.1145
@<TRIPOS>BOND
     1    40    39    2
     2    42    43    1
     3    42    38    2
     4    43    44    2
     5    39    38    1
     6    39    41   am
     7    34    33    1
     8    38    37    1
     9    44    36    1
    10    37    36    1
    11    36    35    1
    12    33    35    1
    13    33    31    1
    14    35    30    1
    15    32    31    1
    16    31    29    1
    17    26    24    2
    18    30    29    1
    19    27    24    1
    20    27    28    1
    21    29    28    1
    22    24    23    1
    23    24    25    1
    24     2     1    2
    25    23     1    1
    26     1     3    1
    27     1     4    1
    28     4     5    1
    29     5     6    1
    30    15    14    1
    31    15    16    2
    32    14    13    1
    33     7     6    1
    34     7    12    1
    35     6     8    1
    36     8     9    1
    37     8    10    1
    38    18    17    1
    39    16    17    1
    40    16    22    1
    41    13    12    1
    42    13    22    1
    43    17    19    2
    44    12    10    1
    45    22    21    2
    46    10    11    1
    47    19    20    1
    48    21    20    1
    49    11    45    1
    50    47    45    2
    51    45    46    1
    52    45    48    1
