@<TRIPOS>MOLECULE
1jbp_ADP_E_1.pdb
 27 29 0 0 0
SMALL
GASTEIGER

@<TRIPOS>ATOM
      1  PB        13.4860   11.1760   -0.5010 P.3   381  ADP381      0.5373
      2  O1B       13.7880   12.1020   -1.6540 O.2   381  ADP381     -0.2221
      3  O2B       14.3870    9.9890   -0.3060 O.3   381  ADP381     -0.1143
      4  O3B       13.3060   12.0780    0.8450 O.3   381  ADP381     -0.1143
      5  PA        11.1490    9.5450    0.2460 P.3   381  ADP381      0.2231
      6  O1A        9.8890    9.2790   -0.4970 O.2   381  ADP381     -0.5169
      7  O2A       12.0100    8.3600    0.4770 O.3   381  ADP381     -0.4370
      8  O3A       11.9850   10.6330   -0.5720 O.3   381  ADP381     -0.2261
      9  O5'       10.8030   10.1990    1.6760 O.3   381  ADP381     -0.3111
     10  C5'       11.5440    9.9420    2.8930 C.3   381  ADP381      0.1813
     11  C4'       10.6230    9.5130    4.0230 C.3   381  ADP381      0.1821
     12  O4'        9.4050   10.3170    4.0200 O.3   381  ADP381     -0.3135
     13  C3'       10.0860    8.0960    3.9600 C.3   381  ADP381      0.2184
     14  O3'       11.0850    7.1720    4.4700 O.3   381  ADP381     -0.2174
     15  C2'        8.9700    8.2110    4.9730 C.3   381  ADP381      0.2570
     16  O2'        9.5380    8.2880    6.2670 O.3   381  ADP381     -0.2130
     17  C1'        8.3500    9.5720    4.6040 C.3   381  ADP381      0.3186
     18  N9         7.2040    9.4870    3.6930 N.pl3 381  ADP381     -0.1439
     19  C8         7.2300    9.3370    2.3400 C.3   381  ADP381      0.3377
     20  N7         6.0630    9.2390    1.7770 N.2   381  ADP381     -0.2095
     21  C5         5.1860    9.3370    2.8290 C.2   381  ADP381      0.2526
     22  C6         3.7770    9.3020    2.8650 C.2   381  ADP381      0.4393
     23  N6         3.0080    9.1690    1.7510 N.pl3 381  ADP381      0.2180
     24  N1         3.2130    9.3960    4.0970 N.2   381  ADP381      0.0021
     25  C2         4.0140    9.5140    5.1910 C.3   381  ADP381      0.5254
     26  N3         5.3600    9.5380    5.2490 N.2   381  ADP381     -0.0055
     27  C4         5.8780    9.4640    4.0270 C.2   381  ADP381      0.3518
@<TRIPOS>BOND
     1     2     1    2
     2     8     1    1
     3     8     5    1
     4     1     3    1
     5     1     4    1
     6     6     5    2
     7     5     7    1
     8     5     9    1
     9     9    10    1
    10    23    22    1
    11    20    19    1
    12    20    21    2
    13    19    18    1
    14    21    22    1
    15    21    27    1
    16    22    24    2
    17    10    11    1
    18    18    27    1
    19    18    17    1
    20    13    11    1
    21    13    14    1
    22    13    15    1
    23    12    11    1
    24    12    17    1
    25    27    26    2
    26    24    25    1
    27    17    15    1
    28    15    16    1
    29    25    26    1
