@<TRIPOS>MOLECULE
1jbv_ACP_A_1.pdb
 31 33 0 0 0
SMALL
GASTEIGER

@<TRIPOS>ATOM
      1  PG         2.1090    0.3980   23.9920 P.3   999  ACP999      0.1295
      2  O1G        2.3130    1.8160   23.6300 O.3   999  ACP999     -0.3567
      3  O2G        2.2120   -0.5350   22.8290 O.2   999  ACP999     -0.4595
      4  O3G        2.9710   -0.0160   25.1410 O.3   999  ACP999     -0.3567
      5  PB        -1.0830   -0.0690   23.6430 P.3   999  ACP999      0.3815
      6  O1B       -0.6870   -1.0010   22.5410 O.2   999  ACP999     -0.2547
      7  O2B       -1.7320    1.2000   23.2600 O.3   999  ACP999     -0.1391
      8  C3B        0.4030    0.2710   24.6240 C.3   999  ACP999      0.1768
      9  PA        -2.7340   -2.3970   24.4640 P.3   999  ACP999      0.2209
     10  O1A       -1.7950   -3.4810   24.3340 O.3   999  ACP999     -0.4371
     11  O2A       -3.8320   -2.4880   23.5100 O.2   999  ACP999     -0.5170
     12  O3A       -2.1030   -0.9320   24.5440 O.3   999  ACP999     -0.2483
     13  O5'       -3.3970   -2.4110   25.8990 O.3   999  ACP999     -0.3111
     14  C5'       -2.9690   -1.6270   27.0280 C.3   999  ACP999      0.1813
     15  C4'       -3.8450   -1.7230   28.2570 C.3   999  ACP999      0.1821
     16  O4'       -4.0180   -3.1090   28.6130 O.3   999  ACP999     -0.3135
     17  C3'       -3.1890   -1.0680   29.4280 C.3   999  ACP999      0.2184
     18  O3'       -4.1440   -0.6600   30.4340 O.3   999  ACP999     -0.2174
     19  C2'       -2.2610   -2.2070   29.8780 C.3   999  ACP999      0.2570
     20  O2'       -1.8730   -2.1520   31.2360 O.3   999  ACP999     -0.2130
     21  C1'       -3.1430   -3.4800   29.6900 C.3   999  ACP999      0.3186
     22  N9        -2.4730   -4.7440   29.2150 N.pl3 999  ACP999     -0.1439
     23  C8        -2.7150   -6.0370   29.6260 C.3   999  ACP999      0.3377
     24  N7        -1.9990   -6.9500   29.0270 N.2   999  ACP999     -0.2095
     25  C5        -1.2280   -6.2110   28.1500 C.2   999  ACP999      0.2526
     26  C6        -0.2460   -6.5770   27.1930 C.2   999  ACP999      0.4393
     27  N6         0.0870   -7.8370   27.0130 N.pl3 999  ACP999      0.2180
     28  N1         0.3470   -5.6070   26.4550 N.2   999  ACP999      0.0021
     29  C2         0.0050   -4.3270   26.6470 C.3   999  ACP999      0.5254
     30  N3        -0.9030   -3.8510   27.5100 N.2   999  ACP999     -0.0055
     31  C4        -1.4970   -4.8620   28.2440 C.2   999  ACP999      0.3518
@<TRIPOS>BOND
     1     6     5    2
     2     3     1    2
     3     7     5    1
     4    11     9    2
     5     2     1    1
     6     5    12    1
     7     5     8    1
     8     1     8    1
     9     1     4    1
    10    10     9    1
    11     9    12    1
    12     9    13    1
    13    13    14    1
    14    28    29    1
    15    28    26    2
    16    29    30    1
    17    27    26    1
    18    14    15    1
    19    26    25    1
    20    30    31    2
    21    25    31    1
    22    25    24    2
    23    31    22    1
    24    15    16    1
    25    15    17    1
    26    16    21    1
    27    24    23    1
    28    22    23    1
    29    22    21    1
    30    17    19    1
    31    17    18    1
    32    21    19    1
    33    19    20    1
