@<TRIPOS>MOLECULE
1jbw_TMF_A_1.pdb
 24 27 0 0 0
SMALL
GASTEIGER

@<TRIPOS>ATOM
      1  N1         4.7920   -5.6750   16.3980 N.2   996  TMF996     -0.2726
      2  C2         6.1540   -5.9290   16.5620 C.1   996  TMF996      0.2603
      3  NA2        6.9150   -6.7680   15.8430 N.pl3 996  TMF996     -0.0221
      4  N3         6.8490   -5.2560   17.5710 N.2   996  TMF996     -0.2515
      5  C4         6.2250   -4.3410   18.4470 C.1   996  TMF996      0.2219
      6  O4         7.0020   -3.7500   19.5600 O.2   996  TMF996     -0.2109
      7  C4A        4.7730   -4.0800   18.2120 C.3   996  TMF996      0.2774
      8  N5         4.1690   -3.2140   19.0440 N.3   996  TMF996     -0.2275
      9  C6         2.6880   -3.3640   19.1710 C.3   996  TMF996      0.1058
     10  C7         2.0520   -3.5690   17.6570 C.3   996  TMF996      0.1547
     11  N8         2.7170   -4.6470   16.8830 N.2   996  TMF996     -0.2096
     12  C8A        4.0930   -4.8170   17.1400 C.1   996  TMF996      0.1050
     13  C9         2.4350   -2.0400   19.9440 C.3   996  TMF996      0.1101
     14  N10        3.1880   -1.0450   19.1430 N.pl3 996  TMF996     -0.2923
     15  C11        3.6340    3.0150   20.6650 C.ar  996  TMF996      0.0567
     16  C12        2.5180    2.1690   21.0420 C.ar  996  TMF996      0.0059
     17  C13        2.3180    0.8110   20.5570 C.ar  996  TMF996      0.0147
     18  C14        3.3280    0.3220   19.6410 C.ar  996  TMF996      0.0488
     19  C15        4.4510    1.1700   19.2500 C.ar  996  TMF996      0.0147
     20  C16        4.6350    2.5220   19.7410 C.ar  996  TMF996      0.0059
     21  C          3.6920    4.4060   21.2660 C.2   996  TMF996      0.2842
     22  O          2.9560    4.7120   22.2780 O.2   996  TMF996     -0.2667
     23  N          4.5820    5.2640   20.6350 N.am  996  TMF996     -0.0837
     24  CP1        4.4380   -1.7590   18.7550 C.3   996  TMF996      0.1706
@<TRIPOS>BOND
     1     3     2    1
     2     1     2    2
     3     1    12    2
     4     2     4    2
     5    11    12    2
     6    11    10    1
     7    12     7    1
     8     4     5    2
     9    10     9    1
    10     7     5    1
    11     7     8    1
    12     5     6    2
    13    24     8    1
    14    24    14    1
    15     8     9    1
    16    14    18    1
    17    14    13    1
    18     9    13    1
    19    19    18   ar
    20    19    20   ar
    21    18    17   ar
    22    20    15   ar
    23    17    16   ar
    24    23    21   am
    25    15    16   ar
    26    15    21    1
    27    21    22    2
