@<TRIPOS>MOLECULE
1jbw_ACQ_A_1.pdb
 35 37 0 0 0
SMALL
GASTEIGER

@<TRIPOS>ATOM
      1  PG        13.8940    2.0220   16.3150 P.3   999  ACQ999      0.3895
      2  O1G       13.8650    3.5230   16.1630 O.2   999  ACQ999     -0.2544
      3  O2G       13.7630    1.5410   17.7400 O.3   999  ACQ999     -0.1388
      4  O3G       12.9240    1.2000   15.2960 O.3   999  ACQ999     -0.2026
      5  PB        17.0930    1.7430   16.6630 P.3   999  ACQ999      0.3865
      6  O1B       17.0080    1.0940   18.0040 O.3   999  ACQ999     -0.1389
      7  O2B       17.5440    3.1750   16.5480 O.2   999  ACQ999     -0.2545
      8  C3B       15.5020    1.4540   15.8960 C.3   999  ACQ999      0.2360
      9  PA        18.6780   -0.4790   15.8760 P.3   999  ACQ999      0.2209
     10  O1A       17.7430   -1.5040   16.3970 O.2   999  ACQ999     -0.5170
     11  O2A       19.9780   -0.3590   16.5620 O.3   999  ACQ999     -0.4371
     12  O3A       17.8770    0.8290   15.7110 O.3   999  ACQ999     -0.2482
     13  O5'       18.9500   -0.6590   14.3150 O.3   999  ACQ999     -0.3111
     14  C5'       17.8260   -0.8460   13.4030 C.3   999  ACQ999      0.1813
     15  C4'       18.2530   -0.5780   11.9850 C.3   999  ACQ999      0.1821
     16  O4'       18.7930    0.7740   11.9240 O.3   999  ACQ999     -0.3135
     17  C3'       19.3390   -1.4680   11.5120 C.3   999  ACQ999      0.2184
     18  O3'       18.7630   -2.6760   10.9920 O.3   999  ACQ999     -0.2174
     19  C2'       20.0350   -0.6370   10.4790 C.3   999  ACQ999      0.2570
     20  O2'       19.3130   -0.6170    9.2350 O.3   999  ACQ999     -0.2130
     21  C1'       19.9400    0.8220   11.0200 C.3   999  ACQ999      0.3186
     22  N9        21.1290    1.3340   11.8120 N.pl3 999  ACQ999     -0.1439
     23  C8        21.5230    1.0420   13.0980 C.3   999  ACQ999      0.3377
     24  N7        22.5930    1.6730   13.5290 N.2   999  ACQ999     -0.2095
     25  C5        22.9370    2.4330   12.4540 C.2   999  ACQ999      0.2526
     26  C6        23.9940    3.3650   12.2440 C.2   999  ACQ999      0.4393
     27  N6        24.8890    3.6380   13.2180 N.pl3 999  ACQ999      0.2180
     28  N1        24.0780    3.9860   11.0240 N.2   999  ACQ999      0.0021
     29  C2        23.1780    3.7110   10.0580 C.3   999  ACQ999      0.5254
     30  N3        22.1290    2.8540   10.1330 N.2   999  ACQ999     -0.0055
     31  C4        22.0620    2.2410   11.3790 C.2   999  ACQ999      0.3518
     32  PD        12.0810    1.3370   13.9080 P.3   999  ACQ999      0.5389
     33  O1D       12.6240    2.6120   13.3060 O.3   999  ACQ999     -0.1143
     34  O2D       12.3530    0.1100   13.0500 O.2   999  ACQ999     -0.2220
     35  O3D       10.5990    1.4280   14.2400 O.3   999  ACQ999     -0.1143
@<TRIPOS>BOND
     1    20    19    1
     2    29    30    1
     3    29    28    1
     4    30    31    2
     5    19    21    1
     6    19    17    1
     7    18    17    1
     8    21    22    1
     9    21    16    1
    10    28    26    2
    11    31    22    1
    12    31    25    1
    13    17    15    1
    14    22    23    1
    15    16    15    1
    16    15    14    1
    17    26    25    1
    18    26    27    1
    19    25    24    2
    20    34    32    2
    21    23    24    1
    22    33    32    1
    23    14    13    1
    24    32    35    1
    25    32     4    1
    26    13     9    1
    27     4     1    1
    28    12     9    1
    29    12     5    1
    30     9    10    2
    31     9    11    1
    32     8     1    1
    33     8     5    1
    34     2     1    2
    35     1     3    1
    36     7     5    2
    37     5     6    1
