@<TRIPOS>MOLECULE
1jcg_ANP_A_1.pdb
 31 33 0 0 0
SMALL
GASTEIGER

@<TRIPOS>ATOM
      1  PG        23.2430    6.8540  124.0490 P.3   346  ANP346      0.4884
      2  O1G       22.6870    6.7240  122.5980 O.2   346  ANP346     -0.2331
      3  O2G       23.7250    8.2810  124.4330 O.3   346  ANP346     -0.1240
      4  O3G       22.3750    6.2010  125.1280 O.3   346  ANP346     -0.1240
      5  PB        26.1400    6.2730  124.4000 P.3   346  ANP346      0.4669
      6  O1B       26.0040    7.2280  125.5920 O.3   346  ANP346     -0.1253
      7  O2B       27.0950    5.2010  124.7080 O.2   346  ANP346     -0.2351
      8  N3B       24.6510    5.9070  124.0410 N.3   346  ANP346     -0.0163
      9  PA        28.4240    7.8560  122.9740 P.3   346  ANP346      0.2220
     10  O1A       28.2950    9.3770  122.8590 O.2   346  ANP346     -0.5170
     11  O2A       29.4670    7.3890  124.0030 O.3   346  ANP346     -0.4370
     12  O3A       26.9750    7.2020  123.2960 O.3   346  ANP346     -0.2360
     13  O5'       28.6860    7.1910  121.5000 O.3   346  ANP346     -0.3111
     14  C5'       29.0100    5.8050  121.6180 C.3   346  ANP346      0.1813
     15  C4'       29.0240    5.2010  120.2040 C.3   346  ANP346      0.1821
     16  O4'       29.9110    6.0190  119.4150 O.3   346  ANP346     -0.3135
     17  C3'       29.6730    3.8360  120.0610 C.3   346  ANP346      0.2184
     18  O3'       28.8730    3.1440  119.0990 O.3   346  ANP346     -0.2174
     19  C2'       31.0520    4.1130  119.3590 C.3   346  ANP346      0.2570
     20  O2'       31.4670    3.1630  118.3920 O.3   346  ANP346     -0.2130
     21  C1'       30.9000    5.3830  118.6170 C.3   346  ANP346      0.3186
     22  N9        32.1940    6.1450  118.2500 N.pl3 346  ANP346     -0.1439
     23  C8        33.2590    6.3740  119.0790 C.3   346  ANP346      0.3377
     24  N7        34.2570    7.0120  118.4300 N.2   346  ANP346     -0.2095
     25  C5        33.8200    7.1850  117.1630 C.2   346  ANP346      0.2526
     26  C6        34.5210    7.8080  116.0350 C.2   346  ANP346      0.4393
     27  N6        35.8000    8.3120  116.2240 N.pl3 346  ANP346      0.2180
     28  N1        33.8640    7.8820  114.7750 N.2   346  ANP346      0.0021
     29  C2        32.5770    7.3620  114.7160 C.3   346  ANP346      0.5254
     30  N3        31.9220    6.7720  115.7690 N.2   346  ANP346     -0.0055
     31  C4        32.5110    6.6570  117.0240 C.2   346  ANP346      0.3518
@<TRIPOS>BOND
     1    29    28    1
     2    29    30    1
     3    28    26    2
     4    30    31    2
     5    26    27    1
     6    26    25    1
     7    31    25    1
     8    31    22    1
     9    25    24    2
    10    22    21    1
    11    22    23    1
    12    20    19    1
    13    24    23    1
    14    21    19    1
    15    21    16    1
    16    18    17    1
    17    19    17    1
    18    16    15    1
    19    17    15    1
    20    15    14    1
    21    13    14    1
    22    13     9    1
    23     2     1    2
    24    10     9    2
    25     9    12    1
    26     9    11    1
    27    12     5    1
    28     8     1    1
    29     8     5    1
    30     1     3    1
    31     1     4    1
    32     5     7    2
    33     5     6    1
