@<TRIPOS>MOLECULE
1jci_HEM_A_1.pdb
 43 50 0 0 0
SMALL
GASTEIGER

@<TRIPOS>ATOM
      1 FE         28.0230   91.6070   52.5050 Fe    296  HEM296      0.0000
      2  CHA       27.6510   93.8070   49.8970 C.2   296  HEM296      0.0000
      3  CHB       30.4120   93.6650   53.8850 C.2   296  HEM296      0.0000
      4  CHC       28.2060   89.5660   55.2390 C.2   296  HEM296      0.0000
      5  CHD       25.2780   89.8410   51.3710 C.2   296  HEM296      0.0000
      6  NA        28.8180   93.4220   52.0250 N.2   296  HEM296      0.0000
      7  C1A       28.5780   94.1470   50.8780 C.2   296  HEM296      0.0000
      8  C2A       29.4450   95.3000   50.8350 C.2   296  HEM296      0.0000
      9  C3A       30.2160   95.2620   51.9480 C.2   296  HEM296      0.0000
     10  C4A       29.8320   94.0830   52.6890 C.2   296  HEM296      0.0000
     11  CMA       31.2840   96.2790   52.3830 C.3   296  HEM296      0.0000
     12  CAA       29.4400   96.3590   49.7370 C.3   296  HEM296      0.0000
     13  CBA       28.2730   97.3250   49.8640 C.3   296  HEM296      0.0000
     14  CGA       28.2690   98.3770   48.7740 C.2   296  HEM296      0.0000
     15  O1A       29.2890   99.0830   48.6240 O.co2 296  HEM296      0.0000
     16  O2A       27.2480   98.4970   48.0670 O.co2 296  HEM296      0.0000
     17  NB        29.0850   91.6290   54.2350 N.ar  296  HEM296      0.0000
     18  C1B       30.0700   92.5210   54.6000 C.ar  296  HEM296      0.0000
     19  C2B       30.7170   92.0730   55.8120 C.ar  296  HEM296      0.0000
     20  C3B       30.1230   90.9060   56.1730 C.ar  296  HEM296      0.0000
     21  C4B       29.0950   90.6380   55.1960 C.ar  296  HEM296      0.0000
     22  CMB       31.8540   92.7870   56.5380 C.3   296  HEM296      0.0000
     23  CAB       30.4020   90.0900   57.2860 C.3   296  HEM296      0.0000
     24  CBB       31.6640   89.9910   58.0010 C.3   296  HEM296      0.0000
     25  NC        26.9000   90.0670   53.2070 N.2   296  HEM296      0.0000
     26  C1C       27.1800   89.3140   54.3310 C.2   296  HEM296      0.0000
     27  C2C       26.1570   88.3070   54.5040 C.2   296  HEM296      0.0000
     28  C3C       25.2880   88.4350   53.4660 C.2   296  HEM296      0.0000
     29  C4C       25.8170   89.4640   52.6000 C.2   296  HEM296      0.0000
     30  CMC       26.0720   87.3550   55.6900 C.3   296  HEM296      0.0000
     31  CAC       24.0630   87.7770   53.2750 C.3   296  HEM296      0.0000
     32  CBC       23.7670   86.4040   53.6210 C.3   296  HEM296      0.0000
     33  ND        26.7280   91.7820   50.9420 N.ar  296  HEM296      0.0000
     34  C1D       25.7190   90.9080   50.5900 C.ar  296  HEM296      0.0000
     35  C2D       25.2730   91.1960   49.2450 C.ar  296  HEM296      0.0000
     36  C3D       25.9520   92.2920   48.8260 C.ar  296  HEM296      0.0000
     37  C4D       26.8060   92.7030   49.9160 C.ar  296  HEM296      0.0000
     38  CMD       24.2650   90.3780   48.4280 C.3   296  HEM296      0.0000
     39  CAD       25.8500   92.9570   47.4400 C.3   296  HEM296      0.0000
     40  CBD       24.9090   94.1570   47.4490 C.3   296  HEM296      0.0000
     41  CGD       24.8330   94.8640   46.1050 C.2   296  HEM296      0.0000
     42  O1D       24.1710   95.9220   46.0290 O.co2 296  HEM296      0.0000
     43  O2D       25.4280   94.3670   45.1270 O.co2 296  HEM296      0.0000
@<TRIPOS>BOND
     1    43    41   ar
     2    42    41   ar
     3    41    40    1
     4    39    40    1
     5    39    36    1
     6    16    14   ar
     7    38    35    1
     8    15    14   ar
     9    14    13    1
    10    36    35   ar
    11    36    37   ar
    12    35    34   ar
    13    12    13    1
    14    12     8    1
    15     2    37    2
    16     2     7    1
    17    37    33   ar
    18    34    33   ar
    19    34     5    2
    20     8     7    1
    21     8     9    2
    22     7     6    2
    23    33     1    1
    24     5    29    1
    25     9    11    1
    26     9    10    1
    27     6     1    1
    28     6    10    1
    29     1    25    1
    30     1    17    1
    31    29    25    2
    32    29    28    1
    33    10     3    2
    34    25    26    1
    35    31    28    1
    36    31    32    1
    37    28    27    2
    38     3    18    1
    39    17    18   ar
    40    17    21   ar
    41    26    27    1
    42    26     4    2
    43    27    30    1
    44    18    19   ar
    45    21     4    1
    46    21    20   ar
    47    19    20   ar
    48    19    22    1
    49    20    23    1
    50    23    24    1
