@<TRIPOS>MOLECULE
1jcj_HPD_A_1.pdb
 12 11 0 0 0
SMALL
GASTEIGER

@<TRIPOS>ATOM
      1  P         29.4990   -3.0250   19.2930 P.3   601  HPD601      0.5327
      2  O5'       28.5890   -1.7120   19.1620 O.3   601  HPD601     -0.2674
      3  O1P       29.7380   -3.2560   20.7530 O.3   601  HPD601     -0.1145
      4  O2P       30.7980   -2.7870   18.5720 O.2   601  HPD601     -0.2224
      5  O3P       28.6980   -4.0960   18.6370 O.3   601  HPD601     -0.1145
      6  C5'       29.1640   -0.4040   19.4440 C.3   601  HPD601      0.1891
      7  O4'       27.4570    0.2100   20.9900 O.3   601  HPD601     -0.2177
      8  O3'       29.0600    2.3250   18.5360 O.3   601  HPD601     -0.2203
      9  C1'       27.6010    4.3750   19.9740 C.3   601  HPD601      0.0028
     10  C3'       28.4300    2.0070   19.7440 C.3   601  HPD601      0.1847
     11  C4'       28.0240    0.5540   19.7170 C.3   601  HPD601      0.2120
     12  C2'       27.1840    2.8940   19.9550 C.3   601  HPD601      0.0356
@<TRIPOS>BOND
     1     8    10    1
     2     4     1    2
     3     5     1    1
     4     2     1    1
     5     2     6    1
     6     1     3    1
     7     6    11    1
     8    11    10    1
     9    11     7    1
    10    10    12    1
    11    12     9    1
