@<TRIPOS>MOLECULE
1jcl_HPD_A_1.pdb
 13 12 0 0 0
SMALL
GASTEIGER

@<TRIPOS>ATOM
      1  P         29.5040   -3.4700   19.2680 P.3   801  HPD801      0.5327
      2  O5'       28.5650   -2.1650   19.1230 O.3   801  HPD801     -0.2674
      3  O1P       30.8000   -3.2340   18.5670 O.2   801  HPD801     -0.2224
      4  O2P       28.6940   -4.5760   18.5860 O.3   801  HPD801     -0.1145
      5  O3P       29.7270   -3.6860   20.7550 O.3   801  HPD801     -0.1145
      6  C5'       29.1140   -0.8800   19.4690 C.3   801  HPD801      0.1891
      7  O4'       27.3510   -0.3390   20.9750 O.3   801  HPD801     -0.2177
      8  O3'       28.9220    1.9400   18.6090 O.3   801  HPD801     -0.2202
      9  C1'       27.2280    3.9560   20.0780 C.3   801  HPD801      0.1848
     10  O1'       28.2610    4.2800   20.9470 O.3   801  HPD801     -0.2203
     11  C3'       28.2850    1.5940   19.8200 C.3   801  HPD801      0.1873
     12  C4'       27.9450    0.0790   19.7650 C.3   801  HPD801      0.2121
     13  C2'       27.0050    2.4500   19.9730 C.3   801  HPD801      0.0711
@<TRIPOS>BOND
     1     3     1    2
     2     4     1    1
     3     8    11    1
     4     2     1    1
     5     2     6    1
     6     1     5    1
     7     6    12    1
     8    12    11    1
     9    12     7    1
    10    11    13    1
    11    13     9    1
    12     9    10    1
