@<TRIPOS>MOLECULE
1jcm_137_P_1.pdb
 23 23 0 0 0
SMALL
GASTEIGER

@<TRIPOS>ATOM
      1  P         24.7110   38.9590   70.0040 P.3   400  137400      0.5327
      2  O1P       24.6740   40.4000   70.1610 O.3   400  137400     -0.1145
      3  O2P       26.1330   38.5460   69.8910 O.2   400  137400     -0.2224
      4  O3P       24.0000   38.2130   71.0910 O.3   400  137400     -0.1145
      5  O5'       23.9500   38.7480   68.7230 O.3   400  137400     -0.2674
      6  C5'       24.3600   38.8280   67.5120 C.3   400  137400      0.1892
      7  C4'       23.3830   38.5920   66.3210 C.3   400  137400      0.2147
      8  O4'       23.1480   37.1960   66.1340 O.3   400  137400     -0.2176
      9  C3'       22.0130   39.2940   66.5460 C.3   400  137400      0.2165
     10  O3'       22.3150   40.6650   66.5930 O.3   400  137400     -0.2175
     11  C2'       20.9960   39.1160   65.3770 C.3   400  137400      0.2062
     12  O2'       21.4270   39.5350   64.1270 O.3   400  137400     -0.2184
     13  C1'       19.6680   39.7990   65.6010 C.3   400  137400      0.1477
     14  NH        19.1490   39.4110   66.8780 N.pl3 400  137400     -0.2346
     15  C1        17.2690   39.8130   68.4400 C.ar  400  137400      0.0946
     16  C2        17.7690   39.4190   67.1250 C.ar  400  137400      0.0717
     17  C3        16.8620   39.0280   66.0580 C.ar  400  137400      0.0163
     18  C4        15.4680   39.0310   66.3010 C.ar  400  137400      0.0013
     19  C5        14.9570   39.4170   67.5880 C.ar  400  137400      0.0003
     20  C6        15.8430   39.7980   68.6370 C.ar  400  137400      0.0079
     21  C7        18.1340   40.2260   69.5950 C.2   400  137400      0.3890
     22  O71       19.3610   40.2750   69.5320 O.co2 400  137400     -0.2405
     23  O72       17.6050   40.5320   70.6590 O.co2 400  137400     -0.2405
@<TRIPOS>BOND
     1    12    11    1
     2    11    13    1
     3    11     9    1
     4    13    14    1
     5    17    18   ar
     6    17    16   ar
     7     8     7    1
     8    18    19   ar
     9     7     9    1
    10     7     6    1
    11     9    10    1
    12    14    16    1
    13    16    15   ar
    14     6     5    1
    15    19    20   ar
    16    15    20   ar
    17    15    21    1
    18     5     1    1
    19    22    21   ar
    20    21    23   ar
    21     3     1    2
    22     1     2    1
    23     1     4    1
