@<TRIPOS>MOLECULE
1jcn_CPR_A_1.pdb
 22 24 0 0 0
SMALL
GASTEIGER

@<TRIPOS>ATOM
      1  P         -6.4250   21.3930   55.5110 P.3   631  CPR631      0.5327
      2  O1P       -5.5330   22.5250   55.0940 O.3   631  CPR631     -0.1145
      3  O2P       -6.8960   21.4590   56.9330 O.3   631  CPR631     -0.1145
      4  O3P       -6.0340   20.0470   55.0210 O.2   631  CPR631     -0.2224
      5  O5'       -7.7840   21.6870   54.5790 O.3   631  CPR631     -0.2675
      6  C5'       -8.6170   22.9860   54.9320 C.3   631  CPR631      0.1860
      7  C4'       -9.7040   23.0240   53.8390 C.3   631  CPR631      0.1823
      8  O4'      -10.4650   21.8380   54.4060 O.3   631  CPR631     -0.3135
      9  C3'      -10.7700   24.1860   53.8820 C.3   631  CPR631      0.2184
     10  O3'      -10.3880   25.3750   53.2530 O.3   631  CPR631     -0.2174
     11  C2'      -12.0480   23.4010   53.5150 C.3   631  CPR631      0.2570
     12  O2'      -12.1100   23.2310   52.1070 O.3   631  CPR631     -0.2130
     13  C1'      -12.0120   22.0390   54.1120 C.3   631  CPR631      0.3186
     14  N9       -12.8740   21.9090   55.3650 N.pl3 631  CPR631     -0.1440
     15  C8       -12.7450   22.3230   56.6750 C.3   631  CPR631      0.3373
     16  N7       -13.7570   22.0240   57.5330 N.2   631  CPR631     -0.2187
     17  C5       -14.6030   21.3720   56.7790 C.2   631  CPR631      0.1644
     18  C6       -15.8500   20.7700   57.0170 C.3   631  CPR631      0.1822
     19  N1       -16.5180   20.1360   55.9920 N.2   631  CPR631     -0.2189
     20  C2       -15.9620   20.0850   54.7170 C.2   631  CPR631      0.3347
     21  N3       -14.7440   20.6810   54.4750 N.2   631  CPR631     -0.0132
     22  C4       -14.0490   21.3280   55.5120 C.2   631  CPR631      0.3444
@<TRIPOS>BOND
     1    12    11    1
     2    10     9    1
     3    11     9    1
     4    11    13    1
     5     7     9    1
     6     7     8    1
     7     7     6    1
     8    13     8    1
     9    13    14    1
    10    21    20    1
    11    21    22    2
    12     5     6    1
    13     5     1    1
    14    20    19    2
    15     4     1    2
    16     2     1    1
    17    14    22    1
    18    14    15    1
    19     1     3    1
    20    22    17    1
    21    19    18    1
    22    15    16    1
    23    17    18    1
    24    17    16    2
