@<TRIPOS>MOLECULE
1jcq_739_B_1.pdb
 34 34 0 0 0
SMALL
GASTEIGER

@<TRIPOS>ATOM
      1  CBC       19.9260  131.9130    2.4460 C.3   3012  7393012     0.0891
      2  SCC       18.9710  133.3520    3.0440 S.3   3012  7393012    -0.0805
      3  CC        20.1410  133.0100    0.2620 C.3   3012  7393012     0.1086
      4  NC        21.8670  133.3060    1.9500 N.3   3012  7393012    -0.1304
      5  CAC       20.9150  132.3250    1.3690 C.3   3012  7393012     0.1207
      6  NI        20.7760  133.0450   -0.9890 N.3   3012  7393012    -0.2154
      7  CAI       20.0110  133.7290   -2.0020 C.3   3012  7393012     0.1023
      8  CBI       21.0760  134.4560   -2.9250 C.3   3012  7393012     0.0185
      9  CCI       22.1060  133.4930   -3.4920 C.3   3012  7393012     0.0015
     10  CDI       20.3840  135.2130   -4.0690 C.3   3012  7393012     0.0015
     11  CEI       21.3420  135.9250   -5.0000 C.3   3012  7393012     0.0000
     12  CI        19.1360  132.6900   -2.7320 C.3   3012  7393012     0.1599
     13  O'F       18.2700  133.2580   -3.7960 O.3   3012  7393012    -0.3452
     14  CAF       17.4930  132.2240   -4.4230 C.3   3012  7393012     0.1968
     15  CBF       16.1900  132.0400   -3.6070 C.3   3012  7393012     0.0654
     16  CCF       15.3270  133.2650   -3.7320 C.ar  3012  7393012    -0.0192
     17  CDF       14.2280  133.2540   -4.5830 C.ar  3012  7393012    -0.0042
     18  CEF       15.6260  134.4180   -3.0310 C.ar  3012  7393012    -0.0042
     19  CFF       13.4160  134.3840   -4.7330 C.ar  3012  7393012    -0.0003
     20  CGF       14.8270  135.5700   -3.1820 C.ar  3012  7393012    -0.0003
     21  CHF       13.7070  135.5490   -4.0450 C.ar  3012  7393012    -0.0000
     22  CF        17.1210  132.7260   -5.8270 C.2   3012  7393012     0.2693
     23  OF        16.4810  132.0170   -6.5870 O.2   3012  7393012    -0.2707
     24  NM        17.4470  133.9730   -6.1390 N.am  3012  7393012    -0.1935
     25  CAM       17.0700  134.5200   -7.4470 C.3   3012  7393012     0.1996
     26  CBM       15.5900  134.9550   -7.4560 C.3   3012  7393012     0.0586
     27  CCM       15.2010  135.5090   -8.7990 C.3   3012  7393012     0.1532
     28  SDM       13.5960  136.0640   -8.9060 S.O2  3012  7393012    -0.0082
     29  ODM       13.2980  137.0250   -7.7460 O.2   3012  7393012    -0.1729
     30  OEM       12.5090  134.8130   -9.0350 O.2   3012  7393012    -0.1729
     31  CEM       13.5850  137.0950  -10.2940 C.3   3012  7393012     0.1760
     32  CM        17.9420  135.7390   -7.7340 C.2   3012  7393012     0.3843
     33  O         18.2060  136.0420   -8.9280 O.co2 3012  7393012    -0.2437
     34  OXT       18.3600  136.3740   -6.7440 O.co2 3012  7393012    -0.2437
@<TRIPOS>BOND
     1    31    28    1
     2    30    28    2
     3    33    32   ar
     4    28    27    1
     5    28    29    2
     6    27    26    1
     7    32    25    1
     8    32    34   ar
     9    26    25    1
    10    25    24    1
    11    23    22    2
    12    24    22   am
    13    22    14    1
    14    11    10    1
    15    19    17   ar
    16    19    21   ar
    17    17    16   ar
    18    14    13    1
    19    14    15    1
    20    10     8    1
    21    21    20   ar
    22    13    12    1
    23    16    15    1
    24    16    18   ar
    25     9     8    1
    26    20    18   ar
    27     8     7    1
    28    12     7    1
    29     7     6    1
    30     6     3    1
    31     3     5    1
    32     5     4    1
    33     5     1    1
    34     1     2    1
