@<TRIPOS>MOLECULE
1jcq_FPP_B_1.pdb
 24 23 0 0 0
SMALL
GASTEIGER

@<TRIPOS>ATOM
      1  C1        24.4610  130.7010   -1.3090 C.3   3011  FPP3011     0.1747
      2  O1        24.2580  131.9800   -0.7100 O.3   3011  FPP3011    -0.3089
      3  C2        23.1680  130.1660   -1.8590 C.2   3011  FPP3011    -0.0024
      4  C3        22.9260  129.9710   -3.1840 C.2   3011  FPP3011    -0.0454
      5  C4        23.9410  130.2750   -4.2620 C.3   3011  FPP3011     0.0261
      6  C5        21.6230  129.4380   -3.7350 C.3   3011  FPP3011     0.0264
      7  C6        20.6060  129.0180   -2.6720 C.3   3011  FPP3011     0.0297
      8  C7        19.4170  128.3180   -3.2680 C.2   3011  FPP3011    -0.0342
      9  C8        18.2040  128.2440   -2.6700 C.2   3011  FPP3011    -0.0478
     10  C10       17.9140  128.8450   -1.3270 C.3   3011  FPP3011     0.0260
     11  C9        17.0410  127.5330   -3.2820 C.3   3011  FPP3011     0.0263
     12  C11       16.3470  128.2950   -4.3980 C.3   3011  FPP3011     0.0297
     13  C12       15.1120  127.5680   -4.8260 C.2   3011  FPP3011    -0.0342
     14  C13       14.2700  127.9740   -5.7810 C.2   3011  FPP3011    -0.0478
     15  C14       14.4390  129.2500   -6.5630 C.3   3011  FPP3011     0.0260
     16  C15       13.0510  127.1730   -6.1530 C.3   3011  FPP3011     0.0260
     17  PA        24.9320  132.2530    0.7190 P.3   3011  FPP3011     0.2233
     18  O1A       26.4250  132.1980    0.6970 O.2   3011  FPP3011    -0.5169
     19  O2A       24.4190  133.6460    1.1170 O.3   3011  FPP3011    -0.4370
     20  O3A       24.3000  131.2080    1.7640 O.3   3011  FPP3011    -0.2261
     21  PB        24.9880  130.1660    2.7620 P.3   3011  FPP3011     0.5373
     22  O1B       26.1010  130.7530    3.5570 O.3   3011  FPP3011    -0.1143
     23  O2B       25.4640  129.0140    1.8650 O.2   3011  FPP3011    -0.2221
     24  O3B       23.8450  129.6600    3.6660 O.3   3011  FPP3011    -0.1143
@<TRIPOS>BOND
     1    15    14    1
     2    16    14    1
     3    14    13    2
     4    13    12    1
     5    12    11    1
     6     5     4    1
     7     6     4    1
     8     6     7    1
     9    11     9    1
    10     8     7    1
    11     8     9    2
    12     4     3    2
    13     9    10    1
    14     3     1    1
    15     1     2    1
    16     2    17    1
    17    18    17    2
    18    17    19    1
    19    17    20    1
    20    20    21    1
    21    23    21    2
    22    21    22    1
    23    21    24    1
