@<TRIPOS>MOLECULE
1jcr_FPP_B_1.pdb
 24 23 0 0 0
SMALL
GASTEIGER

@<TRIPOS>ATOM
      1  C1       108.5730   24.4770   33.0750 C.3   1002  FPP1002     0.1747
      2  O1       108.5050   23.1120   32.6310 O.3   1002  FPP1002    -0.3089
      3  C2       107.2040   25.1120   33.0860 C.2   1002  FPP1002    -0.0024
      4  C3       106.5740   25.4680   34.2240 C.2   1002  FPP1002    -0.0454
      5  C4       107.1850   25.2610   35.5740 C.3   1002  FPP1002     0.0261
      6  C5       105.2090   26.1050   34.2860 C.3   1002  FPP1002     0.0264
      7  C6       104.4860   26.2220   32.9550 C.3   1002  FPP1002     0.0297
      8  C7       103.1550   26.9420   33.0750 C.2   1002  FPP1002    -0.0342
      9  C8       102.1940   26.9050   32.1150 C.2   1002  FPP1002    -0.0478
     10  C10      102.3620   26.1440   30.8350 C.3   1002  FPP1002     0.0260
     11  C9       100.8670   27.6230   32.2280 C.3   1002  FPP1002     0.0263
     12  C11       99.8240   26.9360   33.0840 C.3   1002  FPP1002     0.0297
     13  C12       98.5390   27.7050   33.1080 C.2   1002  FPP1002    -0.0342
     14  C13       97.4430   27.3340   33.8090 C.2   1002  FPP1002    -0.0478
     15  C14       97.3590   26.0970   34.6630 C.3   1002  FPP1002     0.0260
     16  C15       96.1810   28.1470   33.7940 C.3   1002  FPP1002     0.0260
     17  PA       109.6760   22.6090   31.6820 P.3   1002  FPP1002     0.2233
     18  O1A      111.0560   22.8720   32.2220 O.3   1002  FPP1002    -0.4370
     19  O2A      109.4200   21.1060   31.4810 O.2   1002  FPP1002    -0.5169
     20  O3A      109.4440   23.3250   30.2880 O.3   1002  FPP1002    -0.2261
     21  PB       110.4030   24.3020   29.5060 P.3   1002  FPP1002     0.5373
     22  O1B      111.7300   23.6740   29.2520 O.3   1002  FPP1002    -0.1143
     23  O2B      110.4900   25.5620   30.3960 O.3   1002  FPP1002    -0.1143
     24  O3B      109.6280   24.6400   28.2120 O.2   1002  FPP1002    -0.2221
@<TRIPOS>BOND
     1    24    21    2
     2    22    21    1
     3    21    20    1
     4    21    23    1
     5    20    17    1
     6    10     9    1
     7    19    17    2
     8    17    18    1
     9    17     2    1
    10     9    11    1
    11     9     8    2
    12    11    12    1
    13     2     1    1
    14     7     8    1
    15     7     6    1
    16     1     3    1
    17    12    13    1
    18     3     4    2
    19    13    14    2
    20    16    14    1
    21    14    15    1
    22     4     6    1
    23     4     5    1
