@<TRIPOS>MOLECULE
1jcr_III_C_1.pdb
 33 33 0 0 0
SMALL
GASTEIGER

@<TRIPOS>ATOM
      1  N        107.3310   20.8510   29.5180 N.3     1  CYS1       -0.1221
      2  CA       106.3250   21.7410   30.1780 C.3     1  CYS1        0.1808
      3  C        105.4890   20.9650   31.2240 C.2     1  CYS1        0.2601
      4  O        105.5630   19.7320   31.2910 O.2     1  CYS1       -0.2717
      5  CB       105.3940   22.3350   29.1090 C.3     1  CYS1        0.0970
      6  SG       104.6260   21.0590   28.0340 S.3     1  CYS1       -0.0800
      7  N        104.7490   21.7040   32.0570 N.am    2  VAL2       -0.1965
      8  CA       103.8460   21.1630   33.0850 C.3     2  VAL2        0.1727
      9  C        102.7470   22.2180   33.1820 C.2     2  VAL2        0.2616
     10  O        102.8120   23.2250   32.4840 O.2     2  VAL2       -0.2715
     11  CB       104.5250   21.0090   34.4790 C.3     2  VAL2        0.0290
     12  CG1      105.5620   19.9140   34.4460 C.3     2  VAL2        0.0023
     13  CG2      105.1590   22.3130   34.9200 C.3     2  VAL2        0.0023
     14  N        101.7350   22.0010   34.0090 N.am    3  PHE3       -0.1960
     15  CA       100.6790   23.0030   34.1360 C.3     3  PHE3        0.1771
     16  C         99.9780   22.9250   35.4970 C.2     3  PHE3        0.2620
     17  O         99.4240   23.9240   35.9500 O.2     3  PHE3       -0.2715
     18  CB        99.6670   22.9360   32.9560 C.3     3  PHE3        0.0574
     19  CG        98.7780   21.7200   32.9850 C.ar    3  PHE3       -0.0200
     20  CD1       97.5020   21.7880   33.5450 C.ar    3  PHE3       -0.0042
     21  CD2       99.2570   20.4700   32.5600 C.ar    3  PHE3       -0.0042
     22  CE1       96.7180   20.6310   33.6990 C.ar    3  PHE3       -0.0003
     23  CE2       98.4810   19.3110   32.7090 C.ar    3  PHE3       -0.0003
     24  CZ        97.2090   19.3980   33.2850 C.ar    3  PHE3       -0.0000
     25  N        100.0070   21.7550   36.1520 N.am    4  MET4       -0.1941
     26  CA        99.3760   21.5910   37.4780 C.3     4  MET4        0.1987
     27  C         99.8300   20.3160   38.1980 C.2     4  MET4        0.3842
     28  O        100.5330   19.5120   37.5610 O.co2   4  MET4       -0.2437
     29  CB        97.8410   21.6050   37.3960 C.3     4  MET4        0.0449
     30  CG        97.2300   20.2730   37.0260 C.3     4  MET4        0.0599
     31  SD        95.4690   20.1800   37.3810 S.3     4  MET4       -0.1393
     32  CE        95.4850   19.7870   39.1670 C.3     4  MET4        0.0692
     33  OXT       99.4800   20.1260   39.3860 O.co2   4  MET4       -0.2437
@<TRIPOS>BOND
     1     6     5    1
     2     5     2    1
     3     1     2    1
     4     2     3    1
     5     3     4    2
     6     3     7   am
     7     7     8    1
     8    10     9    2
     9    21    23   ar
    10    21    19   ar
    11    23    24   ar
    12    18    19    1
    13    18    15    1
    14    19    20   ar
    15     8     9    1
    16     8    11    1
    17     9    14   am
    18    24    22   ar
    19    20    22   ar
    20    14    15    1
    21    15    16    1
    22    12    11    1
    23    11    13    1
    24    16    17    2
    25    16    25   am
    26    25    26    1
    27    30    31    1
    28    30    29    1
    29    31    32    1
    30    29    26    1
    31    26    27    1
    32    28    27   ar
    33    27    33   ar
