@<TRIPOS>MOLECULE
1jcs_FII_B_1.pdb
 24 23 0 0 0
SMALL
GASTEIGER

@<TRIPOS>ATOM
      1  C1        97.0870   26.1670   34.6890 C.3   1002  FII1002     0.0260
      2  C2        97.1080   27.3590   33.7660 C.2   1002  FII1002    -0.0478
      3  C6        95.8370   28.1490   33.7850 C.3   1002  FII1002     0.0260
      4  C10       98.1630   27.6970   32.9900 C.2   1002  FII1002    -0.0342
      5  C11       99.4440   26.9310   32.9490 C.3   1002  FII1002     0.0297
      6  C12      100.5320   27.6910   32.2330 C.3   1002  FII1002     0.0263
      7  C15      101.8390   26.9340   32.2120 C.2   1002  FII1002    -0.0478
      8  C18      101.9810   25.9380   31.0920 C.3   1002  FII1002     0.0260
      9  C22      102.8040   27.1390   33.1280 C.2   1002  FII1002    -0.0342
     10  C23      104.1180   26.4000   33.1310 C.3   1002  FII1002     0.0297
     11  C24      104.4530   25.8630   34.5050 C.3   1002  FII1002     0.0264
     12  C27      105.8350   25.2850   34.5800 C.2   1002  FII1002    -0.0453
     13  C30      105.9100   23.9840   35.3430 C.3   1002  FII1002     0.0261
     14  C34      106.9120   25.8600   34.0270 C.2   1002  FII1002    -0.0002
     15  C35      108.2960   25.2740   34.1070 C.3   1002  FII1002     0.1990
     16  O36      108.2820   23.8550   33.8940 O.3   1002  FII1002    -0.2391
     17  N42      108.1650   23.5370   32.5200 N.am  1002  FII1002    -0.0618
     18  C43      109.2240   23.0750   31.8030 C.2   1002  FII1002     0.2747
     19  O44      110.3370   22.7890   32.2460 O.2   1002  FII1002    -0.2705
     20  C45      108.9550   23.0630   30.3070 C.3   1002  FII1002     0.1477
     21  P46      110.0960   24.1620   29.4350 P.3   1002  FII1002     0.1265
     22  O49      109.5570   24.4220   28.1180 O.2   1002  FII1002    -0.4596
     23  O50      111.4090   23.5450   29.3050 O.3   1002  FII1002    -0.3568
     24  O51      110.2220   25.4020   30.1880 O.3   1002  FII1002    -0.3568
@<TRIPOS>BOND
     1    22    21    2
     2    23    21    1
     3    21    24    1
     4    21    20    1
     5    20    18    1
     6     8     7    1
     7    18    19    2
     8    18    17   am
     9     7     6    1
    10     7     9    2
    11     6     5    1
    12    17    16    1
    13     5     4    1
    14     4     2    2
    15     9    10    1
    16    10    11    1
    17     2     3    1
    18     2     1    1
    19    16    15    1
    20    14    15    1
    21    14    12    2
    22    11    12    1
    23    12    13    1
