@<TRIPOS>MOLECULE
1jcs_III_C_1.pdb
 49 49 0 0 0
SMALL
GASTEIGER

@<TRIPOS>ATOM
      1  N        107.2500   12.1930   27.0860 N.3     1  THR1       -0.1203
      2  CA       107.3430   13.2770   28.1090 C.3     1  THR1        0.1994
      3  C        106.0480   14.0910   28.0710 C.2     1  THR1        0.2618
      4  O        105.3650   14.1100   27.0450 O.2     1  THR1       -0.2717
      5  CB       108.5450   14.2250   27.8150 C.3     1  THR1        0.1784
      6  OG1      108.5260   14.6110   26.4330 O.3     1  THR1       -0.2211
      7  CG2      109.8740   13.5360   28.1300 C.3     1  THR1        0.0376
      8  N        105.7050   14.7400   29.1820 N.am    2  LYS2       -0.1965
      9  CA       104.4970   15.5600   29.2560 C.3     2  LYS2        0.1728
     10  C        104.8340   16.9340   29.8450 C.2     2  LYS2        0.2616
     11  O        105.8560   17.0940   30.5230 O.2     2  LYS2       -0.2715
     12  CB       103.4190   14.8670   30.1160 C.3     2  LYS2        0.0311
     13  CG       103.8960   14.4180   31.5090 C.3     2  LYS2        0.0038
     14  CD       102.7430   14.0670   32.4600 C.3     2  LYS2        0.0206
     15  CE       102.0030   15.3130   32.9630 C.3     2  LYS2        0.1093
     16  NZ       100.9290   14.9830   33.9510 N.3     2  LYS2       -0.1314
     17  N        104.0230   17.9360   29.5150 N.am    3  CYS3       -0.1954
     18  CA       104.2040   19.2890   30.0490 C.3     3  CYS3        0.1843
     19  C        103.3440   19.3880   31.3070 C.2     3  CYS3        0.2625
     20  O        102.1650   19.0230   31.2820 O.2     3  CYS3       -0.2714
     21  CB       103.7370   20.3660   29.0510 C.3     3  CYS3        0.0997
     22  SG       104.8970   20.8100   27.7420 S.3     3  CYS3       -0.0797
     23  N        103.9350   19.8300   32.4130 N.am    4  VAL4       -0.1963
     24  CA       103.1690   19.9760   33.6440 C.3     4  VAL4        0.1727
     25  C        102.5930   21.3890   33.6800 C.2     4  VAL4        0.2616
     26  O        103.2000   22.3280   33.1660 O.2     4  VAL4       -0.2715
     27  CB       104.0080   19.6430   34.9140 C.3     4  VAL4        0.0290
     28  CG1      104.5070   18.2110   34.8340 C.3     4  VAL4        0.0023
     29  CG2      105.1790   20.5700   35.0530 C.3     4  VAL4        0.0023
     30  N        101.3650   21.4960   34.1680 N.am    5  PHE5       -0.1960
     31  CA       100.6610   22.7740   34.2690 C.3     5  PHE5        0.1771
     32  C         99.9090   22.8100   35.6090 C.2     5  PHE5        0.2620
     33  O         99.3420   23.8390   35.9740 O.2     5  PHE5       -0.2715
     34  CB        99.6810   22.9500   33.0860 C.3     5  PHE5        0.0574
     35  CG        98.6570   21.8600   32.9960 C.ar    5  PHE5       -0.0200
     36  CD1       97.4150   22.0060   33.6050 C.ar    5  PHE5       -0.0042
     37  CD2       98.9880   20.6240   32.4390 C.ar    5  PHE5       -0.0042
     38  CE1       96.5230   20.9300   33.6780 C.ar    5  PHE5       -0.0003
     39  CE2       98.1030   19.5450   32.5070 C.ar    5  PHE5       -0.0003
     40  CZ        96.8710   19.7000   33.1330 C.ar    5  PHE5       -0.0000
     41  N         99.8760   21.6710   36.3120 N.am    6  MET6       -0.1941
     42  CA        99.2250   21.5600   37.6320 C.3     6  MET6        0.1987
     43  C         99.6570   20.2610   38.3340 C.2     6  MET6        0.3842
     44  O        100.3240   19.4420   37.6750 O.co2   6  MET6       -0.2437
     45  CB        97.6900   21.6040   37.5330 C.3     6  MET6        0.0449
     46  CG        97.0740   20.2960   37.1050 C.3     6  MET6        0.0599
     47  SD        95.3050   20.2260   37.3730 S.3     6  MET6       -0.1393
     48  CE        95.2270   19.6890   39.0910 C.3     6  MET6        0.0692
     49  OXT       99.3290   20.0650   39.5230 O.co2   6  MET6       -0.2437
@<TRIPOS>BOND
     1     6     5    1
     2     4     3    2
     3     1     2    1
     4    22    21    1
     5     5     2    1
     6     5     7    1
     7     3     2    1
     8     3     8   am
     9    21    18    1
    10     8     9    1
    11     9    10    1
    12     9    12    1
    13    17    10   am
    14    17    18    1
    15    10    11    2
    16    18    19    1
    17    12    13    1
    18    20    19    2
    19    19    23   am
    20    13    14    1
    21    23    24    1
    22    37    39   ar
    23    37    35   ar
    24    14    15    1
    25    39    40   ar
    26    15    16    1
    27    35    34    1
    28    35    36   ar
    29    34    31    1
    30    40    38   ar
    31    26    25    2
    32    36    38   ar
    33    24    25    1
    34    24    27    1
    35    25    30   am
    36    30    31    1
    37    31    32    1
    38    28    27    1
    39    27    29    1
    40    32    33    2
    41    32    41   am
    42    41    42    1
    43    46    47    1
    44    46    45    1
    45    47    48    1
    46    45    42    1
    47    42    43    1
    48    44    43   ar
    49    43    49   ar
