@<TRIPOS>MOLECULE
1jcx_PAI_A_1.pdb
 25 24 0 0 0
SMALL
GASTEIGER

@<TRIPOS>ATOM
      1  P1        39.5660   55.8050   15.4410 P.3   1300  PAI1300     0.5327
      2  O1P       39.6840   57.2810   15.3430 O.3   1300  PAI1300    -0.1145
      3  O2P       40.7160   55.1510   16.1060 O.3   1300  PAI1300    -0.1145
      4  O3P       38.3500   55.6480   16.4610 O.3   1300  PAI1300    -0.2674
      5  O4P       39.2660   55.1660   14.1350 O.2   1300  PAI1300    -0.2224
      6  C6        37.1970   54.8200   16.3180 C.3   1300  PAI1300     0.1892
      7  C5        37.1550   53.5930   17.2280 C.3   1300  PAI1300     0.2147
      8  O1        38.3220   53.4570   18.0460 O.3   1300  PAI1300    -0.2176
      9  C4        35.8850   53.7040   18.0840 C.3   1300  PAI1300     0.2173
     10  O4        34.6770   54.0020   17.3690 O.3   1300  PAI1300    -0.2175
     11  C3        35.7660   52.4250   18.9310 C.3   1300  PAI1300     0.2162
     12  O3        35.5920   51.2360   18.1490 O.3   1300  PAI1300    -0.2175
     13  C2        34.6120   52.6640   19.9040 C.3   1300  PAI1300     0.2006
     14  O2        34.7960   53.7340   20.8260 O.3   1300  PAI1300    -0.2188
     15  C1        34.3920   51.4260   20.7650 C.3   1300  PAI1300     0.1089
     16  N1        33.0570   51.3440   21.0400 N.3   1300  PAI1300    -0.2547
     17  C7        32.7280   51.5570   22.3570 C.3   1300  PAI1300     0.1882
     18  C8        31.4380   52.1820   22.8710 C.2   1300  PAI1300     0.3809
     19  O5        30.4040   51.4870   22.6190 O.co2 1300  PAI1300    -0.2441
     20  O6        31.4790   53.2550   23.3760 O.co2 1300  PAI1300    -0.2441
     21  C9        32.4540   50.2480   20.4700 C.3   1300  PAI1300     0.1323
     22  P2        32.3140   49.4290   19.1640 P.3   1300  PAI1300     0.1333
     23  O5P       32.9370   48.2010   19.6490 O.3   1300  PAI1300    -0.3562
     24  O6P       33.0370   50.0450   18.0160 O.2   1300  PAI1300    -0.4587
     25  O7P       30.7870   49.4420   18.8480 O.3   1300  PAI1300    -0.3562
@<TRIPOS>BOND
     1     5     1    2
     2     2     1    1
     3     1     3    1
     4     1     4    1
     5     6     4    1
     6     6     7    1
     7     7     8    1
     8     7     9    1
     9    10     9    1
    10    24    22    2
    11     9    11    1
    12    12    11    1
    13    25    22    1
    14    11    13    1
    15    22    23    1
    16    22    21    1
    17    13    15    1
    18    13    14    1
    19    21    16    1
    20    15    16    1
    21    16    17    1
    22    17    18    1
    23    19    18   ar
    24    18    20   ar
