@<TRIPOS>MOLECULE
1jcy_PEP_A_1.pdb
 10 9 0 0 0
SMALL
GASTEIGER

@<TRIPOS>ATOM
      1  C1        32.4140   51.7680   22.4460 C.2   1268  PEP1268     0.4216
      2  O1        33.1270   52.3220   23.3540 O.co2 1268  PEP1268    -0.2371
      3  O2'       31.2250   51.8180   22.5350 O.co2 1268  PEP1268    -0.2371
      4  C2        33.1100   50.9820   21.3170 C.2   1268  PEP1268     0.2283
      5  C3        34.3990   50.5650   21.3740 C.2   1268  PEP1268     0.0477
      6  O2        32.2010   50.5200   20.3600 O.2   1268  PEP1268    -0.3930
      7  P         32.1790   49.4060   19.2340 P.3   1268  PEP1268     0.5889
      8  O1P       32.7510   48.1380   19.6940 O.3   1268  PEP1268    -0.1039
      9  O2P       32.8040   50.0630   18.0590 O.2   1268  PEP1268    -0.2114
     10  O3P       30.6910   49.1820   18.8270 O.3   1268  PEP1268    -0.1039
@<TRIPOS>BOND
     1     9     7    2
     2    10     7    1
     3     7     8    1
     4     7     6    1
     5     6     4    1
     6     4     5    2
     7     4     1    1
     8     1     3   ar
     9     1     2   ar
