@<TRIPOS>MOLECULE
1jcy_R5P_A_1.pdb
 14 13 0 0 0
SMALL
GASTEIGER

@<TRIPOS>ATOM
      1  C1        35.4170   51.3900   17.9680 C.2   1269  R5P1269     0.2427
      2  O1        35.1990   50.4360   18.6710 O.2   1269  R5P1269    -0.2854
      3  C2        34.7940   52.7420   18.3260 C.3   1269  R5P1269     0.2486
      4  O2        33.3700   52.7460   18.2260 O.3   1269  R5P1269    -0.2118
      5  C3        35.2130   53.7410   17.2700 C.3   1269  R5P1269     0.2224
      6  O3        34.4130   53.7140   16.0670 O.3   1269  R5P1269    -0.2171
      7  C4        36.7250   53.7200   17.5320 C.3   1269  R5P1269     0.2151
      8  O4        37.4650   53.8340   18.7600 O.3   1269  R5P1269    -0.2176
      9  C5        37.1140   54.7230   16.4860 C.3   1269  R5P1269     0.1892
     10  O5        38.5280   54.6760   16.3800 O.3   1269  R5P1269    -0.2674
     11  P         39.4280   55.6240   15.5050 P.3   1269  R5P1269     0.5327
     12  O1P       40.7800   55.5020   16.1130 O.3   1269  R5P1269    -0.1145
     13  O2P       39.3360   55.0300   14.1480 O.2   1269  R5P1269    -0.2224
     14  O3P       38.8650   57.0050   15.5900 O.3   1269  R5P1269    -0.1145
@<TRIPOS>BOND
     1    13    11    2
     2    11    14    1
     3    11    12    1
     4    11    10    1
     5     6     5    1
     6    10     9    1
     7     9     7    1
     8     5     7    1
     9     5     3    1
    10     7     8    1
    11     1     3    1
    12     1     2    2
    13     4     3    1
