@<TRIPOS>MOLECULE
1jd0_AZM_A_1.pdb
 13 13 0 0 0
SMALL
GASTEIGER

@<TRIPOS>ATOM
      1  C1        17.7910    5.5370   25.4360 C.ar  1400  AZM1400     0.2590
      2  C2        18.3440    7.6770   25.9060 C.ar  1400  AZM1400     0.2093
      3  C3        20.0180    9.4550   25.9800 C.2   1400  AZM1400     0.2478
      4  C4        21.1630    8.5180   26.3180 C.3   1400  AZM1400     0.0969
      5  N1        16.9530    3.1160   26.1670 N.3   1400  AZM1400     0.0413
      6  N2        17.0840    7.4740   26.1280 N.ar  1400  AZM1400    -0.1222
      7  N3        16.7400    6.1820   25.8430 N.ar  1400  AZM1400    -0.1189
      8  N4        18.7460    8.9460   26.1660 N.am  1400  AZM1400    -0.1528
      9  O1        19.0790    3.3380   24.8410 O.2   1400  AZM1400    -0.1483
     10  O2        17.0690    3.7740   23.6530 O.2   1400  AZM1400    -0.1483
     11  O3        20.2920   10.5820   25.5720 O.2   1400  AZM1400    -0.2729
     12  S1        17.7110    3.8300   24.9650 S.O2  1400  AZM1400     0.1178
     13  S2        19.2630    6.3840   25.3560 S.2   1400  AZM1400    -0.0087
@<TRIPOS>BOND
     1    10    12    2
     2     9    12    2
     3    12     1    1
     4    12     5    1
     5    13     1   ar
     6    13     2   ar
     7     1     7   ar
     8    11     3    2
     9     7     6   ar
    10     2     6   ar
    11     2     8    1
    12     3     8   am
    13     3     4    1
