@<TRIPOS>MOLECULE
1jd2_III_8_1.pdb
 49 52 0 0 0
SMALL
GASTEIGER

@<TRIPOS>ATOM
      1  C42       57.9530 -135.8300   31.4200 C.2     1  1QQ1        0.3006
      2  C44       56.8900 -136.6410   30.7950 C.2     1  1QQ1        0.2271
      3  C46       57.0680 -137.4300   29.5690 C.3     1  1QQ1        0.0667
      4  C48       56.5580 -138.8660   29.8220 C.3     1  1QQ1        0.0083
      5  C47       56.2400 -136.7040   28.4800 C.3     1  1QQ1        0.0078
      6  C49       56.3520 -137.4670   27.1680 C.3     1  1QQ1        0.0005
      7  O45       55.7960 -136.6730   31.3310 O.2     1  1QQ1       -0.2865
      8  O43       59.0960 -135.7940   30.9030 O.2     1  1QQ1       -0.2652
      9  N         57.5770 -135.1730   32.5750 N.am    2  TYR2       -0.1836
     10  CA        58.4630 -134.3350   33.3720 C.3     2  TYR2        0.2048
     11  C         59.5690 -135.1450   34.0650 C.1     2  TYR2        0.1470
     12  O         59.5010 -136.3540   33.9990 O.2     2  TYR2       -0.2253
     13  CB        57.6970 -133.7410   34.5090 C.3     2  TYR2        0.0650
     14  CG        56.9400 -134.7660   35.3190 C.ar    2  TYR2       -0.0194
     15  CD1       57.5560 -135.4620   36.3530 C.ar    2  TYR2       -0.0046
     16  CD2       55.5780 -135.0930   35.0120 C.ar    2  TYR2       -0.0009
     17  CE1       56.8230 -136.3930   37.1120 C.ar    2  TYR2        0.0269
     18  CE2       54.8720 -136.0490   35.8190 C.ar    2  TYR2        0.0414
     19  CZ        55.5120 -136.6920   36.8590 C.ar    2  TYR2        0.1924
     20  OH        54.8880 -137.6310   37.6510 O.3     2  TYR2       -0.2869
     21  N         60.5890 -134.4890   34.7790 N.2     3  ASN3       -0.1897
     22  CA        61.6570 -135.1890   35.4750 C.3     3  ASN3        0.2231
     23  C         61.2230 -135.3060   36.8960 C.1     3  ASN3        0.1497
     24  O         60.4260 -134.4820   37.3080 O.2     3  ASN3       -0.2251
     25  CB        62.9440 -134.3260   35.4560 C.3     3  ASN3        0.0950
     26  CG        63.6010 -134.2330   34.0700 C.3     3  ASN3        0.2450
     27  OD1       64.6600 -133.4540   34.1920 O.3     3  ASN3       -0.2021
     28  ND2       62.7500 -133.7230   33.0420 N.3     3  ASN3       -0.0967
     29  C50       59.2840 -138.1960   39.1360 C.2     4  TRP4        0.0504
     30  C51       58.7140 -138.0970   40.4510 C.2     4  TRP4        0.0012
     31  C52       57.5110 -137.3970   40.5970 C.2     4  TRP4       -0.0040
     32  C53       56.9310 -136.8730   39.4490 C.2     4  TRP4       -0.0149
     33  C54       57.5030 -137.0040   38.1950 C.3     4  TRP4        0.1003
     34  C55       58.7120 -137.7140   38.0490 C.2     4  TRP4        0.1290
     35  N31       59.4880 -137.9950   36.9410 N.2     4  TRP4       -0.3382
     36  C32       60.5290 -138.6610   37.2900 C.1     4  TRP4        0.2138
     37  O33       61.4460 -139.0960   36.5990 O.2     4  TRP4       -0.2113
     38  N         61.8080 -136.3190   37.6330 N.2     4  TRP4       -0.1944
     39  CA        61.6050 -136.5690   39.0710 C.3     4  TRP4        0.2262
     40  C         62.6030 -135.8710   39.8730 C.2     4  TRP4        0.2712
     41  O         63.7390 -135.7950   39.3430 O.2     4  TRP4       -0.2708
     42  CB        61.6330 -138.0700   39.4990 C.3     4  TRP4        0.2315
     43  O34       61.4820 -138.2610   40.9440 O.3     4  TRP4       -0.2162
     44  C29       60.4860 -138.8480   38.7790 C.3     4  TRP4        0.2788
     45  O30       60.5350 -140.2130   39.2100 O.3     4  TRP4       -0.2002
     46  CA        64.9940 -134.2830   41.2630 C.3     5  AKK5        0.0065
     47  CB        63.9580 -134.1920   42.3360 C.3     5  AKK5        0.0443
     48  CC        62.7220 -134.7140   42.2090 C.2     5  AKK5        0.0623
     49  ND        62.1810 -135.4140   41.1380 N.am    5  AKK5       -0.1809
@<TRIPOS>BOND
     1     6     5    1
     2     5     3    1
     3     3     4    1
     4     3     2    1
     5     2     7    2
     6     2     1    1
     7     8     1    2
     8     1     9   am
     9     9    10    1
    10    28    26    1
    11    10    11    1
    12    10    13    1
    13    12    11    2
    14    11    21    2
    15    26    27    1
    16    26    25    1
    17    13    14    1
    18    21    22    1
    19    16    14   ar
    20    16    18   ar
    21    14    15   ar
    22    25    22    1
    23    22    23    1
    24    18    19   ar
    25    15    17   ar
    26    37    36    2
    27    19    17   ar
    28    19    20    1
    29    23    24    2
    30    23    38    2
    31    35    36    2
    32    35    34    2
    33    17    33    1
    34    36    44    1
    35    38    39    1
    36    34    33    1
    37    34    29    1
    38    33    32    1
    39    44    29    1
    40    44    45    1
    41    44    42    1
    42    39    42    1
    43    39    40    1
    44    29    30    2
    45    41    40    2
    46    32    31    2
    47    42    43    1
    48    40    49    1
    49    30    31    1
    50    49    48    2
    51    46    47    1
    52    48    47    1
