@<TRIPOS>MOLECULE
1jdb_GLN_B_1.pdb
 10 9 0 0 0
SMALL
GASTEIGER

@<TRIPOS>ATOM
      1  N         53.5890   27.5620  -15.1650 N.2   1091  GLN1091    -0.1458
      2  CA        53.0090   28.6550  -14.6760 C.2   1091  GLN1091     0.1602
      3  C         53.9090   29.4330  -13.6920 C.2   1091  GLN1091     0.4028
      4  O         53.3680   30.1710  -12.8090 O.co2 1091  GLN1091    -0.2392
      5  CB        51.4580   28.6110  -14.3630 C.3   1091  GLN1091     0.0642
      6  CG        50.5380   27.3760  -14.7490 C.3   1091  GLN1091     0.0951
      7  CD        49.5880   27.4140  -15.9890 C.2   1091  GLN1091     0.2611
      8  OE1       49.9470   27.9870  -17.0480 O.2   1091  GLN1091    -0.2716
      9  NE2       48.3850   26.7760  -15.9120 N.am  1091  GLN1091    -0.0878
     10  OXT       55.1790   29.3430  -13.7740 O.co2 1091  GLN1091    -0.2392
@<TRIPOS>BOND
     1     8     7    2
     2     7     9   am
     3     7     6    1
     4     1     2    2
     5     6     5    1
     6     2     5    1
     7     2     3    1
     8    10     3   ar
     9     3     4   ar
