@<TRIPOS>MOLECULE
1jdb_ADP_B_1.pdb
 27 29 0 0 0
SMALL
GASTEIGER

@<TRIPOS>ATOM
      1  PB        62.7010   45.3830  -46.3900 P.3   1093  ADP1093     0.5373
      2  O1B       61.5410   46.2690  -46.6990 O.3   1093  ADP1093    -0.1143
      3  O2B       62.4370   44.6220  -45.1330 O.3   1093  ADP1093    -0.1143
      4  O3B       63.0480   44.5450  -47.5660 O.2   1093  ADP1093    -0.2221
      5  PA        64.7180   47.5310  -46.5800 P.3   1093  ADP1093     0.2231
      6  O1A       63.6730   48.1800  -47.4290 O.2   1093  ADP1093    -0.5169
      7  O2A       66.0250   47.3470  -47.2100 O.3   1093  ADP1093    -0.4370
      8  O3A       64.1010   46.1790  -46.1620 O.3   1093  ADP1093    -0.2261
      9  O5'       64.9660   48.3290  -45.2120 O.3   1093  ADP1093    -0.3111
     10  C5'       63.8130   48.6210  -44.3600 C.3   1093  ADP1093     0.1813
     11  C4'       63.7450   50.0860  -43.9510 C.3   1093  ADP1093     0.1821
     12  O4'       64.9960   50.3340  -43.3210 O.3   1093  ADP1093    -0.3135
     13  C3'       63.7560   51.1400  -45.0900 C.3   1093  ADP1093     0.2184
     14  O3'       62.3810   51.3890  -45.5900 O.3   1093  ADP1093    -0.2174
     15  C2'       64.5000   52.3170  -44.4510 C.3   1093  ADP1093     0.2570
     16  O2'       63.6850   53.3440  -43.7750 O.3   1093  ADP1093    -0.2130
     17  C1'       65.4090   51.6500  -43.4360 C.3   1093  ADP1093     0.3186
     18  N9        66.8470   51.6610  -43.7180 N.pl3 1093  ADP1093    -0.1439
     19  C8        67.5520   50.8910  -44.5910 C.3   1093  ADP1093     0.3377
     20  N7        68.8910   51.0820  -44.5330 N.2   1093  ADP1093    -0.2095
     21  C5        69.0090   52.0910  -43.5780 C.2   1093  ADP1093     0.2526
     22  C6        70.1560   52.7190  -43.0580 C.2   1093  ADP1093     0.4393
     23  N6        71.3980   52.4170  -43.4560 N.pl3 1093  ADP1093     0.2180
     24  N1        69.9500   53.6890  -42.1230 N.2   1093  ADP1093     0.0021
     25  C2        68.6690   53.9540  -41.7080 C.3   1093  ADP1093     0.5254
     26  N3        67.5420   53.4150  -42.1050 N.2   1093  ADP1093    -0.0055
     27  C4        67.7850   52.4790  -43.0800 C.2   1093  ADP1093     0.3518
@<TRIPOS>BOND
     1     4     1    2
     2     6     5    2
     3     7     5    1
     4     2     1    1
     5     5     8    1
     6     5     9    1
     7     1     8    1
     8     1     3    1
     9    14    13    1
    10     9    10    1
    11    13    15    1
    12    13    11    1
    13    19    20    1
    14    19    18    1
    15    20    21    2
    16    15    16    1
    17    15    17    1
    18    10    11    1
    19    11    12    1
    20    18    17    1
    21    18    27    1
    22    21    27    1
    23    21    22    1
    24    23    22    1
    25    17    12    1
    26    27    26    2
    27    22    24    2
    28    24    25    1
    29    26    25    1
