@<TRIPOS>MOLECULE
1jdc_GLC_A_1.pdb
 11 11 0 0 0
SMALL
GASTEIGER

@<TRIPOS>ATOM
      1  C1        12.3460  115.4680   17.7230 C.3   460  GLC460      0.1777
      2  C2        11.2580  115.6800   16.7060 C.3   460  GLC460      0.2141
      3  C3        11.2280  117.0760   16.0970 C.3   460  GLC460      0.2173
      4  C4        11.3380  118.1330   17.2020 C.3   460  GLC460      0.2142
      5  C5        12.5320  117.8300   18.1080 C.3   460  GLC460      0.1810
      6  C6        12.6720  118.8140   19.2280 C.3   460  GLC460      0.2141
      7  O2        11.4090  114.7320   15.6430 O.3   460  GLC460     -0.2176
      8  O3         9.9770  117.2610   15.4320 O.3   460  GLC460     -0.2175
      9  O4        11.4390  119.5230   16.8350 O.3   460  GLC460     -0.2176
     10  O5        12.4090  116.5060   18.6780 O.3   460  GLC460     -0.3481
     11  O6        11.7770  118.5940   20.3140 O.3   460  GLC460     -0.2176
@<TRIPOS>BOND
     1     8     3    1
     2     7     2    1
     3     3     2    1
     4     3     4    1
     5     2     1    1
     6     9     4    1
     7     4     5    1
     8     1    10    1
     9     5    10    1
    10     5     6    1
    11     6    11    1
