@<TRIPOS>MOLECULE
1jdd_GLC_A_1.pdb
 11 11 0 0 0
SMALL
GASTEIGER

@<TRIPOS>ATOM
      1  C1        38.5720   91.9110   11.1640 C.3   460  GLC460      0.1777
      2  C2        38.8500   90.8350   10.1130 C.3   460  GLC460      0.2141
      3  C3        37.5880   90.2500    9.5220 C.3   460  GLC460      0.2173
      4  C4        36.6750   89.7840   10.6730 C.3   460  GLC460      0.2142
      5  C5        36.4050   90.9260   11.6500 C.3   460  GLC460      0.1810
      6  C6        35.5940   90.5250   12.8470 C.3   460  GLC460      0.2141
      7  O2        39.6850   91.4380    9.1210 O.3   460  GLC460     -0.2176
      8  O3        37.7590   89.1480    8.6300 O.3   460  GLC460     -0.2175
      9  O4        35.4540   89.2590   10.1950 O.3   460  GLC460     -0.2176
     10  O5        37.6630   91.4350   12.1360 O.3   460  GLC460     -0.3481
     11  O6        36.3920   89.9860   13.9140 O.3   460  GLC460     -0.2176
@<TRIPOS>BOND
     1     8     3    1
     2     7     2    1
     3     3     2    1
     4     3     4    1
     5     2     1    1
     6     9     4    1
     7     4     5    1
     8     1    10    1
     9     5    10    1
    10     5     6    1
    11     6    11    1
