@<TRIPOS>MOLECULE
1jdj_CFP_A_1.pdb
 11 12 0 0 0
SMALL
GASTEIGER

@<TRIPOS>ATOM
      1  N9        33.1880   55.0960   30.8680 N.2   367  CFP367     -0.1807
      2  C8        33.8130   55.9020   31.7990 C.3   367  CFP367      0.2627
      3  N7        35.1160   55.6990   31.9000 N.2   367  CFP367     -0.2293
      4  C5        35.3780   54.6930   30.9770 C.2   367  CFP367      0.1941
      5  C6        36.5720   53.9840   30.5580 C.2   367  CFP367      0.2311
      6 CL6        37.8160   54.1920   31.0460 Cl    367  CFP367     -0.0448
      7  N1        36.4470   53.0080   29.5770 N.2   367  CFP367     -0.3027
      8  C2        35.2200   52.7380   29.0330 C.1   367  CFP367      0.3071
      9  N3        34.0450   53.3380   29.3490 N.2   367  CFP367     -0.2608
     10  C4        34.1880   54.3050   30.3260 C.1   367  CFP367      0.1205
     11  F2        35.1770   52.0260   28.3270 F     367  CFP367     -0.0972
@<TRIPOS>BOND
     1    11     8    1
     2     8     9    2
     3     8     7    2
     4     9    10    2
     5     7     5    2
     6    10     1    2
     7    10     4    1
     8     5     4    1
     9     5     6    1
    10     1     2    1
    11     4     3    2
    12     2     3    1
