@<TRIPOS>MOLECULE
1jdl_HEM_A_1.pdb
 43 50 0 0 0
SMALL
GASTEIGER

@<TRIPOS>ATOM
      1 FE          3.5390    5.3790    0.3970 Fe    500  HEM500      0.0000
      2  CHA        0.4690    6.7030   -0.3160 C.2   500  HEM500      0.0000
      3  CHB        2.1070    2.3250    0.8720 C.2   500  HEM500      0.0000
      4  CHC        6.6170    4.0590    0.9510 C.2   500  HEM500      0.0000
      5  CHD        4.9090    8.4900    0.3110 C.2   500  HEM500      0.0000
      6  NA         1.6850    4.6660    0.3130 N.2   500  HEM500      0.0000
      7  C1A        0.5290    5.3330   -0.0540 C.2   500  HEM500      0.0000
      8  C2A       -0.5990    4.4360   -0.1410 C.2   500  HEM500      0.0000
      9  C3A       -0.1220    3.2060    0.1900 C.2   500  HEM500      0.0000
     10  C4A        1.2820    3.3600    0.4880 C.2   500  HEM500      0.0000
     11  CMA       -0.8900    1.8930    0.1940 C.3   500  HEM500      0.0000
     12  CAA       -2.0540    4.8560   -0.3900 C.3   500  HEM500      0.0000
     13  CBA       -2.6720    5.1690    0.9720 C.3   500  HEM500      0.0000
     14  CGA       -4.0950    5.7310    0.9030 C.2   500  HEM500      0.0000
     15  O1A       -4.6850    5.7900   -0.1940 O.co2 500  HEM500      0.0000
     16  O2A       -4.6290    6.1090    1.9660 O.co2 500  HEM500      0.0000
     17  NB         4.1970    3.5900    0.7840 N.ar  500  HEM500      0.0000
     18  C1B        3.4820    2.4350    1.0230 C.ar  500  HEM500      0.0000
     19  C2B        4.3600    1.3420    1.3590 C.ar  500  HEM500      0.0000
     20  C3B        5.6270    1.8090    1.1460 C.ar  500  HEM500      0.0000
     21  C4B        5.5250    3.2050    0.9530 C.ar  500  HEM500      0.0000
     22  CMB        3.9080   -0.0200    1.8680 C.3   500  HEM500      0.0000
     23  CAB        6.8190    1.1200    0.8400 C.3   500  HEM500      0.0000
     24  CBB        7.0200   -0.3700    0.6240 C.3   500  HEM500      0.0000
     25  NC         5.3670    6.0890    0.5290 N.2   500  HEM500      0.0000
     26  C1C        6.5520    5.4050    0.7360 C.2   500  HEM500      0.0000
     27  C2C        7.6910    6.2990    0.7270 C.2   500  HEM500      0.0000
     28  C3C        7.2070    7.5030    0.3800 C.2   500  HEM500      0.0000
     29  C4C        5.7620    7.4040    0.4270 C.2   500  HEM500      0.0000
     30  CMC        9.1370    5.9340    1.0690 C.3   500  HEM500      0.0000
     31  CAC        7.8830    8.6320   -0.1340 C.3   500  HEM500      0.0000
     32  CBC        9.3770    8.9090   -0.2630 C.3   500  HEM500      0.0000
     33  ND         2.8480    7.2110    0.1140 N.ar  500  HEM500      0.0000
     34  C1D        3.5430    8.4080    0.1620 C.ar  500  HEM500      0.0000
     35  C2D        2.6960    9.5410   -0.1280 C.ar  500  HEM500      0.0000
     36  C3D        1.4500    9.0420   -0.3860 C.ar  500  HEM500      0.0000
     37  C4D        1.5540    7.5880   -0.2230 C.ar  500  HEM500      0.0000
     38  CMD        3.1170   11.0110   -0.2090 C.3   500  HEM500      0.0000
     39  CAD        0.2330    9.8390   -0.8650 C.3   500  HEM500      0.0000
     40  CBD        0.2520    9.7940   -2.3970 C.3   500  HEM500      0.0000
     41  CGD       -0.8110   10.6550   -3.0490 C.2   500  HEM500      0.0000
     42  O1D       -0.8330   10.7040   -4.2980 O.co2 500  HEM500      0.0000
     43  O2D       -1.6240   11.2790   -2.3320 O.co2 500  HEM500      0.0000
@<TRIPOS>BOND
     1    42    41   ar
     2    41    40    1
     3    41    43   ar
     4    40    39    1
     5    39    36    1
     6    12     8    1
     7    12    13    1
     8    36    37   ar
     9    36    35   ar
    10     2    37    2
    11     2     7    1
    12    32    31    1
    13    37    33   ar
    14    38    35    1
    15    15    14   ar
    16     8     7    1
    17     8     9    2
    18    31    28    1
    19    35    34   ar
    20     7     6    2
    21    33    34   ar
    22    33     1    1
    23    34     5    2
    24     9    11    1
    25     9    10    1
    26     5    29    1
    27     6     1    1
    28     6    10    1
    29    28    29    1
    30    28    27    2
    31     1    25    1
    32     1    17    1
    33    29    25    2
    34    10     3    2
    35    25    26    1
    36    24    23    1
    37    27    26    1
    38    27    30    1
    39    26     4    2
    40    17    21   ar
    41    17    18   ar
    42    23    20    1
    43     3    18    1
    44    14    13    1
    45    14    16   ar
    46     4    21    1
    47    21    20   ar
    48    18    19   ar
    49    20    19   ar
    50    19    22    1
