@<TRIPOS>MOLECULE
1jdn_BMA_A_1.pdb
 11 11 0 0 0
SMALL
GASTEIGER

@<TRIPOS>ATOM
      1  C1        27.6410   65.9580   30.1170 C.3   444  BMA444      0.1777
      2  C2        29.0690   65.3770   30.0860 C.3   444  BMA444      0.2141
      3  C3        29.5700   65.1690   28.6410 C.3   444  BMA444      0.2173
      4  C4        28.9770   66.2080   27.6710 C.3   444  BMA444      0.2142
      5  C5        27.4240   66.2510   27.7410 C.3   444  BMA444      0.1810
      6  C6        26.7320   65.6090   26.5400 C.3   444  BMA444      0.2141
      7  O2        29.1040   64.1380   30.7830 O.3   444  BMA444     -0.2176
      8  O3        29.2420   63.8600   28.1950 O.3   444  BMA444     -0.2175
      9  O4        29.5150   67.4990   27.9500 O.3   444  BMA444     -0.2176
     10  O5        26.9250   65.5800   28.9310 O.3   444  BMA444     -0.3481
     11  O6        27.6590   64.9680   25.6690 O.3   444  BMA444     -0.2176
@<TRIPOS>BOND
     1    11     6    1
     2     6     5    1
     3     4     5    1
     4     4     9    1
     5     4     3    1
     6     5    10    1
     7     8     3    1
     8     3     2    1
     9    10     1    1
    10     2     1    1
    11     2     7    1
