@<TRIPOS>MOLECULE
1jdn_FUC_A_1.pdb
 10 10 0 0 0
SMALL
GASTEIGER

@<TRIPOS>ATOM
      1  C1        41.4150   96.6060   20.5470 C.3   446  FUC446      0.1776
      2  C2        39.9640   96.2210   20.0880 C.3   446  FUC446      0.2141
      3  C3        39.6560   94.7490   19.7190 C.3   446  FUC446      0.2172
      4  C4        40.7360   93.7650   20.1140 C.3   446  FUC446      0.2116
      5  C5        42.1010   94.3810   19.7890 C.3   446  FUC446      0.1483
      6  C6        43.2520   93.4060   19.9710 C.3   446  FUC446      0.0349
      7  O2        39.6270   97.0050   18.9590 O.3   446  FUC446     -0.2176
      8  O3        38.4320   94.3620   20.3340 O.3   446  FUC446     -0.2175
      9  O4        40.6220   93.4540   21.5010 O.3   446  FUC446     -0.2177
     10  O5        42.3410   95.5100   20.6530 O.3   446  FUC446     -0.3508
@<TRIPOS>BOND
     1     7     2    1
     2     3     2    1
     3     3     4    1
     4     3     8    1
     5     5     6    1
     6     5     4    1
     7     5    10    1
     8     2     1    1
     9     4     9    1
    10     1    10    1
