@<TRIPOS>MOLECULE
1jdo_HEM_A_1.pdb
 43 50 0 0 0
SMALL
GASTEIGER

@<TRIPOS>ATOM
      1 FE         35.1820    4.3990   10.2310 Fe    160  HEM160      0.0000
      2  CHA       37.8140    2.5060   11.3630 C.2   160  HEM160      0.0000
      3  CHB       37.1090    5.4560    7.5880 C.2   160  HEM160      0.0000
      4  CHC       32.5520    6.2250    9.0250 C.2   160  HEM160      0.0000
      5  CHD       33.2560    3.2730   12.8040 C.2   160  HEM160      0.0000
      6  NA        37.0410    4.0850    9.6340 N.ar  160  HEM160      0.0000
      7  C1A       37.9870    3.2800   10.2360 C.ar  160  HEM160      0.0000
      8  C2A       39.2290    3.3160    9.4920 C.ar  160  HEM160      0.0000
      9  C3A       39.0220    4.1170    8.4170 C.ar  160  HEM160      0.0000
     10  C4A       37.6580    4.6030    8.5160 C.ar  160  HEM160      0.0000
     11  CMA       39.9660    4.4090    7.2550 C.3   160  HEM160      0.0000
     12  CAA       40.4680    2.4810    9.8180 C.3   160  HEM160      0.0000
     13  CBA       40.6490    1.1610    9.0500 C.3   160  HEM160      0.0000
     14  CGA       39.4040    0.2880    8.9860 C.2   160  HEM160      0.0000
     15  O1A       39.0730   -0.2980   10.0410 O.co2 160  HEM160      0.0000
     16  O2A       38.8130    0.2280    7.8870 O.co2 160  HEM160      0.0000
     17  NB        34.8650    5.4950    8.6020 N.2   160  HEM160      0.0000
     18  C1B       35.7980    5.8680    7.6600 C.2   160  HEM160      0.0000
     19  C2B       35.2190    6.8010    6.7170 C.2   160  HEM160      0.0000
     20  C3B       33.9390    7.0360    7.1260 C.2   160  HEM160      0.0000
     21  C4B       33.7320    6.2240    8.3120 C.2   160  HEM160      0.0000
     22  CMB       35.9580    7.4100    5.5250 C.3   160  HEM160      0.0000
     23  CAB       32.8940    7.8810    6.6560 C.3   160  HEM160      0.0000
     24  CBB       33.2010    9.1500    6.0220 C.3   160  HEM160      0.0000
     25  NC        33.3260    4.6550   10.7640 N.ar  160  HEM160      0.0000
     26  C1C       32.4180    5.5280   10.2070 C.ar  160  HEM160      0.0000
     27  C2C       31.2470    5.6440   11.0550 C.ar  160  HEM160      0.0000
     28  C3C       31.4350    4.8080   12.1150 C.ar  160  HEM160      0.0000
     29  C4C       32.7370    4.1880   11.9150 C.ar  160  HEM160      0.0000
     30  CMC       30.0640    6.5550   10.7580 C.3   160  HEM160      0.0000
     31  CAC       30.6940    4.4420   13.2790 C.3   160  HEM160      0.0000
     32  CBC       29.5550    5.2050   13.7230 C.3   160  HEM160      0.0000
     33  ND        35.4370    3.0800   11.6760 N.2   160  HEM160      0.0000
     34  C1D       34.5450    2.8080   12.6910 C.2   160  HEM160      0.0000
     35  C2D       35.1520    1.9210   13.6670 C.2   160  HEM160      0.0000
     36  C3D       36.4520    1.7880   13.3100 C.2   160  HEM160      0.0000
     37  C4D       36.6170    2.4810   12.0470 C.2   160  HEM160      0.0000
     38  CMD       34.4220    1.3170   14.8630 C.3   160  HEM160      0.0000
     39  CAD       37.6090    1.1770   14.1100 C.3   160  HEM160      0.0000
     40  CBD       38.3450    2.1510   15.0580 C.3   160  HEM160      0.0000
     41  CGD       39.4170    1.4890   15.9130 C.2   160  HEM160      0.0000
     42  O1D       39.0200    0.8590   16.9150 O.co2 160  HEM160      0.0000
     43  O2D       40.5950    1.6300   15.5240 O.co2 160  HEM160      0.0000
@<TRIPOS>BOND
     1    22    19    1
     2    24    23    1
     3    23    20    1
     4    19    20    2
     5    19    18    1
     6    20    21    1
     7    11     9    1
     8     3    18    1
     9     3    10    2
    10    18    17    2
    11    16    14   ar
    12    21    17    1
    13    21     4    2
    14     9    10   ar
    15     9     8   ar
    16    10     6   ar
    17    17     1    1
    18    14    13    1
    19    14    15   ar
    20     4    26    1
    21    13    12    1
    22     8    12    1
    23     8     7   ar
    24     6     1    1
    25     6     7   ar
    26    26    25   ar
    27    26    27   ar
    28     1    25    1
    29     1    33    1
    30     7     2    2
    31    30    27    1
    32    25    29   ar
    33    27    28   ar
    34     2    37    1
    35    33    37    2
    36    33    34    1
    37    29    28   ar
    38    29     5    1
    39    37    36    1
    40    28    31    1
    41    34     5    2
    42    34    35    1
    43    31    32    1
    44    36    35    2
    45    36    39    1
    46    35    38    1
    47    39    40    1
    48    40    41    1
    49    43    41   ar
    50    41    42   ar
