@<TRIPOS>MOLECULE
1jdr_HEM_A_1.pdb
 47 54 0 0 0
SMALL
GASTEIGER

@<TRIPOS>ATOM
      1  CHA       27.7060   93.9780   49.8100 C.2   296  HEM296      0.0000
      2  CHB       30.5190   93.7860   53.7730 C.2   296  HEM296      0.0000
      3  CHC       28.2740   89.7090   55.1550 C.2   296  HEM296      0.0000
      4  CHD       25.3240   90.0290   51.2960 C.2   296  HEM296      0.0000
      5  C1A       28.6640   94.2930   50.7770 C.2   296  HEM296      0.0000
      6  C2A       29.4860   95.4840   50.7760 C.2   296  HEM296      0.0000
      7  C3A       30.2650   95.4360   51.8850 C.2   296  HEM296      0.0000
      8  C4A       29.9480   94.2050   52.5710 C.2   296  HEM296      0.0000
      9  CMA       31.2880   96.4820   52.3480 C.3   296  HEM296      0.0000
     10  CAA       29.4590   96.5760   49.7250 C.3   296  HEM296      0.0000
     11  CBA       28.2520   97.4900   49.8520 C.3   296  HEM296      0.0000
     12  CGA       28.2180   98.5450   48.7770 C.2   296  HEM296      0.0000
     13  O1A       29.2350   99.2360   48.5820 O.co2 296  HEM296      0.0000
     14  O2A       27.1780   98.6850   48.1030 O.co2 296  HEM296      0.0000
     15  C1B       30.1800   92.6390   54.4880 C.ar  296  HEM296      0.0000
     16  C2B       30.7970   92.2170   55.7210 C.ar  296  HEM296      0.0000
     17  C3B       30.2160   91.0410   56.0740 C.ar  296  HEM296      0.0000
     18  C4B       29.1840   90.7680   55.0970 C.ar  296  HEM296      0.0000
     19  CMB       31.9050   92.9960   56.4390 C.3   296  HEM296      0.0000
     20  CAB       30.5030   90.1950   57.1590 C.3   296  HEM296      0.0000
     21  CBB       31.7070   90.1300   57.9750 C.3   296  HEM296      0.0000
     22  C1C       27.2540   89.4460   54.2380 C.2   296  HEM296      0.0000
     23  C2C       26.2030   88.4710   54.4240 C.2   296  HEM296      0.0000
     24  C3C       25.3390   88.6080   53.3810 C.2   296  HEM296      0.0000
     25  C4C       25.8830   89.6300   52.5110 C.2   296  HEM296      0.0000
     26  CMC       26.0760   87.5730   55.6460 C.3   296  HEM296      0.0000
     27  CAC       24.0880   87.9890   53.1920 C.3   296  HEM296      0.0000
     28  CBC       23.7600   86.6020   53.4520 C.3   296  HEM296      0.0000
     29  C1D       25.7790   91.0740   50.4980 C.ar  296  HEM296      0.0000
     30  C2D       25.3420   91.3460   49.1490 C.ar  296  HEM296      0.0000
     31  C3D       26.0030   92.4500   48.7340 C.ar  296  HEM296      0.0000
     32  C4D       26.8680   92.8640   49.8200 C.ar  296  HEM296      0.0000
     33  CMD       24.3630   90.5280   48.3150 C.3   296  HEM296      0.0000
     34  CAD       25.8760   93.0900   47.3540 C.3   296  HEM296      0.0000
     35  CBD       25.0310   94.3620   47.3890 C.3   296  HEM296      0.0000
     36  CGD       24.9650   95.0950   46.0560 C.2   296  HEM296      0.0000
     37  O1D       24.2800   96.1340   46.0050 O.co2 296  HEM296      0.0000
     38  O2D       25.5830   94.6620   45.0610 O.co2 296  HEM296      0.0000
     39  NA        28.9570   93.5310   51.8910 N.2   296  HEM296      0.0000
     40  NB        29.2130   91.7320   54.1120 N.ar  296  HEM296      0.0000
     41  NC        27.0110   90.1840   53.0920 N.2   296  HEM296      0.0000
     42  ND        26.8220   91.9180   50.8190 N.ar  296  HEM296      0.0000
     43 FE         28.0430   91.8140   52.4510 Fe    296  HEM296      0.0000
     44  HHB       31.2500   94.4590   54.2190 H     296  HEM296      0.0000
     45  HHC       28.3600   89.0440   56.0090 H     296  HEM296      0.0000
     46  HHD       24.4820   89.4550   50.9180 H     296  HEM296      0.0000
     47  HHA       27.6810   94.5930   48.9160 H     296  HEM296      0.0000
@<TRIPOS>BOND
     1    38    36   ar
     2    37    36   ar
     3    36    35    1
     4    34    35    1
     5    34    31    1
     6    14    12   ar
     7    33    30    1
     8    13    12   ar
     9    31    30   ar
    10    31    32   ar
    11    12    11    1
    12    47     1    1
    13    30    29   ar
    14    10    11    1
    15    10     6    1
    16     1    32    2
    17     1     5    1
    18    32    42   ar
    19    29    42   ar
    20    29     4    2
    21     6     5    1
    22     6     7    2
    23     5    39    2
    24    42    43    1
    25    46     4    1
    26     4    25    1
    27     7     9    1
    28     7     8    1
    29    39    43    1
    30    39     8    1
    31    43    41    1
    32    43    40    1
    33    25    41    2
    34    25    24    1
    35     8     2    2
    36    41    22    1
    37    27    24    1
    38    27    28    1
    39    24    23    2
    40     2    44    1
    41     2    15    1
    42    40    15   ar
    43    40    18   ar
    44    22    23    1
    45    22     3    2
    46    23    26    1
    47    15    16   ar
    48    18     3    1
    49    18    17   ar
    50     3    45    1
    51    16    17   ar
    52    16    19    1
    53    17    20    1
    54    20    21    1
