@<TRIPOS>MOLECULE
1jdt_MTA_A_1.pdb
 20 22 0 0 0
SMALL
GASTEIGER

@<TRIPOS>ATOM
      1  CS        54.9240  155.9790   34.5730 C.3   1260  MTA1260     0.0693
      2  S5'       55.6210  156.5560   33.0010 S.3   1260  MTA1260    -0.1367
      3  C5'       55.1510  155.1840   31.8890 C.3   1260  MTA1260     0.0899
      4  C4'       56.1110  155.1980   30.6740 C.3   1260  MTA1260     0.1630
      5  O4'       57.4940  155.0300   31.1390 O.3   1260  MTA1260    -0.3153
      6  C2'       57.0080  153.0330   30.0420 C.3   1260  MTA1260     0.2569
      7  O2'       57.8300  152.6700   28.9170 O.3   1260  MTA1260    -0.2130
      8  C3'       55.8500  154.0830   29.6780 C.3   1260  MTA1260     0.2168
      9  O3'       55.9730  154.6310   28.2810 O.3   1260  MTA1260    -0.2175
     10  C1'       57.8910  153.6390   31.1950 C.3   1260  MTA1260     0.3185
     11  N9        57.5890  153.1050   32.6900 N.pl3 1260  MTA1260    -0.1439
     12  C8        57.9730  153.7660   33.8650 C.3   1260  MTA1260     0.3377
     13  N7        57.6120  153.1520   34.9850 N.2   1260  MTA1260    -0.2095
     14  C5        56.9520  152.0230   34.5480 C.2   1260  MTA1260     0.2526
     15  C6        56.2920  150.9130   35.2150 C.2   1260  MTA1260     0.4393
     16  N6        56.2230  150.8230   36.5420 N.pl3 1260  MTA1260     0.2180
     17  N1        55.7090  149.9080   34.4060 N.2   1260  MTA1260     0.0021
     18  C2        55.7700  149.9860   33.0420 C.3   1260  MTA1260     0.5254
     19  N3        56.3590  150.9860   32.3290 N.2   1260  MTA1260    -0.0055
     20  C4        56.9300  151.9710   33.1340 C.2   1260  MTA1260     0.3518
@<TRIPOS>BOND
     1     9     8    1
     2     7     6    1
     3     8     6    1
     4     8     4    1
     5     6    10    1
     6     4     5    1
     7     4     3    1
     8     5    10    1
     9    10    11    1
    10     3     2    1
    11    19    18    1
    12    19    20    2
    13    11    20    1
    14    11    12    1
    15     2     1    1
    16    18    17    1
    17    20    14    1
    18    12    13    1
    19    17    15    2
    20    14    13    2
    21    14    15    1
    22    15    16    1
