@<TRIPOS>MOLECULE
1jdv_ADN_A_1.pdb
 19 21 0 0 0
SMALL
GASTEIGER

@<TRIPOS>ATOM
      1  O5'       -5.6630  -31.0440  125.4170 O.3   1260  ADN1260    -0.2176
      2  C5'       -4.8330  -29.9920  124.9450 C.3   1260  ADN1260     0.2143
      3  C4'       -4.4870  -29.0680  126.1120 C.3   1260  ADN1260     0.1851
      4  O4'       -3.9520  -29.8790  127.2040 O.3   1260  ADN1260    -0.3134
      5  C3'       -3.4460  -28.0270  125.7640 C.3   1260  ADN1260     0.2186
      6  O3'       -3.7150  -26.7630  126.4930 O.3   1260  ADN1260    -0.2174
      7  C2'       -2.1150  -28.7210  126.2550 C.3   1260  ADN1260     0.2570
      8  O2'       -1.2740  -27.7710  126.9560 O.3   1260  ADN1260    -0.2130
      9  C1'       -2.5040  -29.9350  127.1800 C.3   1260  ADN1260     0.3186
     10  N9        -2.1260  -31.3830  126.6640 N.pl3 1260  ADN1260    -0.1439
     11  C8        -2.5010  -32.5510  127.3100 C.3   1260  ADN1260     0.3377
     12  N7        -2.0980  -33.6590  126.7160 N.2   1260  ADN1260    -0.2095
     13  C5        -1.4160  -33.2130  125.6110 C.2   1260  ADN1260     0.2526
     14  C6        -0.7370  -33.8840  124.5460 C.2   1260  ADN1260     0.4393
     15  N6        -0.6740  -35.2130  124.4850 N.pl3 1260  ADN1260     0.2180
     16  N1        -0.1420  -33.0930  123.5670 N.2   1260  ADN1260     0.0021
     17  C2        -0.2150  -31.7420  123.6380 C.3   1260  ADN1260     0.5254
     18  N3        -0.8360  -31.0100  124.6010 N.2   1260  ADN1260    -0.0055
     19  C4        -1.4160  -31.8120  125.5570 C.2   1260  ADN1260     0.3518
@<TRIPOS>BOND
     1    16    17    1
     2    16    14    2
     3    17    18    1
     4    15    14    1
     5    14    13    1
     6    18    19    2
     7     2     1    1
     8     2     3    1
     9    19    13    1
    10    19    10    1
    11    13    12    2
    12     5     3    1
    13     5     7    1
    14     5     6    1
    15     3     4    1
    16     7     8    1
    17     7     9    1
    18    10     9    1
    19    10    11    1
    20    12    11    1
    21     9     4    1
