@<TRIPOS>MOLECULE
1jdx_NVA_A_1.pdb
 11 10 0 0 0
SMALL
GASTEIGER

@<TRIPOS>ATOM
      1  N         45.3880   73.1300   15.0460 N.4   500  NVA500      0.3888
      2  CA        44.2920   72.8560   16.0130 C.3   500  NVA500      0.0403
      3  CB        44.4210   71.4520   16.6430 C.3   500  NVA500     -0.0109
      4  CG        45.7040   71.1420   17.3780 C.3   500  NVA500     -0.0016
      5  CD        45.7490   69.6700   17.7530 C.3   500  NVA500     -0.0001
      6  C         44.1020   73.9720   17.0580 C.2   500  NVA500      0.3448
      7  O         43.0950   73.9150   17.7950 O.co2 500  NVA500     -0.2480
      8  OXT       44.9410   74.9010   17.1050 O.co2 500  NVA500     -0.2480
      9  H2        45.1890   74.0620   14.6400 H     500  NVA500     -0.0885
     10  H         46.2910   73.1600   15.5630 H     500  NVA500     -0.0885
     11  HN3       45.4040   72.3960   14.3130 H     500  NVA500     -0.0885
@<TRIPOS>BOND
     1    11     1    1
     2     9     1    1
     3     1    10    1
     4     1     2    1
     5     2     3    1
     6     2     6    1
     7     3     4    1
     8     6     8   ar
     9     6     7   ar
    10     4     5    1
