@<TRIPOS>MOLECULE
1jdz_FMB_A_1.pdb
 19 21 0 0 0
SMALL
GASTEIGER

@<TRIPOS>ATOM
      1  N1        58.3000  153.9540   36.2880 N.2   270  FMB270     -0.1739
      2  C2        58.8010  155.0970   35.6590 C.3   270  FMB270      0.2626
      3  N3        58.7760  155.2680   34.3180 N.2   270  FMB270     -0.2399
      4  C4        58.2060  154.2050   33.6580 C.2   270  FMB270      0.1264
      5  C5        57.6790  153.0230   34.1980 C.2   270  FMB270      0.2032
      6  C6        57.7100  152.8470   35.6150 C.1   270  FMB270      0.1734
      7  O6        57.2960  151.8800   36.2670 O.2   270  FMB270     -0.2205
      8  N7        57.1930  152.1890   33.2030 N.2   270  FMB270     -0.1347
      9  N8        57.4250  152.8650   32.0920 N.2   270  FMB270     -0.1475
     10  C9        58.0410  154.1030   32.3030 C.2   270  FMB270      0.1295
     11  C1'       58.2630  154.8130   31.0000 C.3   270  FMB270      0.1910
     12  C2'       57.7060  154.1250   29.7560 C.3   270  FMB270      0.2173
     13  O2'       58.7390  154.0660   28.8050 O.3   270  FMB270     -0.2173
     14  C3'       56.4810  154.9710   29.3490 C.3   270  FMB270      0.2144
     15  O3'       56.4380  155.2760   27.9430 O.3   270  FMB270     -0.2176
     16  C4'       56.5560  156.2570   30.1700 C.3   270  FMB270      0.1814
     17  O4'       57.6780  156.1150   31.0780 O.3   270  FMB270     -0.3446
     18  C5'       55.2870  156.5420   30.9910 C.3   270  FMB270      0.2141
     19  O5'       54.7570  157.8760   30.8020 O.3   270  FMB270     -0.2176
@<TRIPOS>BOND
     1    15    14    1
     2    13    12    1
     3    14    12    1
     4    14    16    1
     5    12    11    1
     6    16    18    1
     7    16    17    1
     8    19    18    1
     9    11    17    1
    10    11    10    1
    11     9    10    2
    12     9     8    1
    13    10     4    1
    14     8     5    2
    15     4     5    1
    16     4     3    2
    17     5     6    1
    18     3     2    1
    19     6     7    2
    20     6     1    2
    21     2     1    1
