@<TRIPOS>MOLECULE
1je1_GMP_A_1.pdb
 20 22 0 0 0
SMALL
GASTEIGER

@<TRIPOS>ATOM
      1  O5'      110.7530   30.5410  145.7510 O.3   1260  GMP1260    -0.2176
      2  C5'      110.0550   29.4350  146.2890 C.3   1260  GMP1260     0.2142
      3  C4'      111.0450   28.5460  147.0490 C.3   1260  GMP1260     0.1828
      4  O4'      111.8960   29.3480  147.9060 O.3   1260  GMP1260    -0.3325
      5  C3'      110.3620   27.5220  147.9650 C.3   1260  GMP1260     0.2159
      6  O3'      111.1860   26.3520  147.9880 O.3   1260  GMP1260    -0.2175
      7  C2'      110.3450   28.2330  149.3390 C.3   1260  GMP1260     0.2310
      8  O2'      110.6910   27.3790  150.4250 O.3   1260  GMP1260    -0.2158
      9  C1'      111.3840   29.3670  149.2710 C.3   1260  GMP1260     0.2293
     10  N9       110.8760   30.7370  149.4400 N.pl3 1260  GMP1260    -0.2354
     11  C8       111.7140   31.8570  149.5560 C.3   1260  GMP1260     0.2246
     12  N7       111.0860   33.0230  149.6990 N.2   1260  GMP1260    -0.2322
     13  C5       109.7440   32.6830  149.6800 C.2   1260  GMP1260     0.2182
     14  C6       108.5080   33.4480  149.7840 C.1   1260  GMP1260     0.2372
     15  O6       108.4640   34.7720  149.9360 O.2   1260  GMP1260    -0.2069
     16  N1       107.2850   32.7490  149.7210 N.2   1260  GMP1260    -0.2485
     17  C2       107.2750   31.3910  149.5660 C.1   1260  GMP1260     0.2531
     18  N2       105.9750   30.7850  149.5120 N.pl3 1260  GMP1260    -0.0226
     19  N3       108.3800   30.5750  149.4570 N.2   1260  GMP1260    -0.3074
     20  C4       109.5800   31.2850  149.5220 C.2   1260  GMP1260     0.2300
@<TRIPOS>BOND
     1     1     2    1
     2     2     3    1
     3     3     4    1
     4     3     5    1
     5     4     9    1
     6     5     6    1
     7     5     7    1
     8     9     7    1
     9     9    10    1
    10     7     8    1
    11    10    20    1
    12    10    11    1
    13    19    20    2
    14    19    17    2
    15    18    17    1
    16    20    13    1
    17    11    12    1
    18    17    16    2
    19    13    12    2
    20    13    14    1
    21    16    14    2
    22    14    15    2
