@<TRIPOS>MOLECULE
1jeb_HEM_A_1.pdb
 43 50 0 0 0
SMALL
GASTEIGER

@<TRIPOS>ATOM
      1 FE         13.9250   37.3730   -5.3310 Fe    142  HEM142      0.0000
      2  CHA       17.2350   37.1290   -4.9640 C.2   142  HEM142      0.0000
      3  CHB       14.2810   37.6540   -8.7120 C.2   142  HEM142      0.0000
      4  CHC       10.5340   37.6520   -5.6680 C.2   142  HEM142      0.0000
      5  CHD       13.5500   37.3180   -1.9020 C.2   142  HEM142      0.0000
      6  NA        15.4220   37.3810   -6.5810 N.ar  142  HEM142      0.0000
      7  C1A       16.7610   37.2610   -6.2690 C.ar  142  HEM142      0.0000
      8  C2A       17.6030   37.3130   -7.4620 C.ar  142  HEM142      0.0000
      9  C3A       16.7760   37.4800   -8.5310 C.ar  142  HEM142      0.0000
     10  C4A       15.4320   37.5100   -7.9720 C.ar  142  HEM142      0.0000
     11  CMA       17.1950   37.6140  -10.0190 C.3   142  HEM142      0.0000
     12  CAA       19.1370   37.2190   -7.5070 C.3   142  HEM142      0.0000
     13  CBA       19.7100   35.8590   -7.9240 C.3   142  HEM142      0.0000
     14  CGA       21.2240   35.7640   -7.8880 C.2   142  HEM142      0.0000
     15  O1A       21.9290   36.8070   -7.7850 O.co2 142  HEM142      0.0000
     16  O2A       21.7210   34.6220   -7.9720 O.co2 142  HEM142      0.0000
     17  NB        12.6720   37.5840   -6.8430 N.2   142  HEM142      0.0000
     18  C1B       12.9820   37.6760   -8.1950 C.2   142  HEM142      0.0000
     19  C2B       11.8410   37.8060   -9.0270 C.2   142  HEM142      0.0000
     20  C3B       10.7660   37.8110   -8.1720 C.2   142  HEM142      0.0000
     21  C4B       11.3030   37.6780   -6.8310 C.2   142  HEM142      0.0000
     22  CMB       11.9070   37.9000  -10.5850 C.3   142  HEM142      0.0000
     23  CAB        9.2410   37.9160   -8.4560 C.3   142  HEM142      0.0000
     24  CBB        8.6280   38.6140   -9.6660 C.3   142  HEM142      0.0000
     25  NC        12.3880   37.4510   -4.0730 N.ar  142  HEM142      0.0000
     26  C1C       11.0260   37.5590   -4.3770 C.ar  142  HEM142      0.0000
     27  C2C       10.1870   37.5930   -3.1920 C.ar  142  HEM142      0.0000
     28  C3C       11.0610   37.5260   -2.1370 C.ar  142  HEM142      0.0000
     29  C4C       12.3980   37.4220   -2.6810 C.ar  142  HEM142      0.0000
     30  CMC        8.6290   37.7120   -3.1500 C.3   142  HEM142      0.0000
     31  CAC       10.7450   37.5510   -0.6490 C.3   142  HEM142      0.0000
     32  CBC       10.1460   38.7470    0.0290 C.3   142  HEM142      0.0000
     33  ND        15.1370   37.2280   -3.7520 N.2   142  HEM142      0.0000
     34  C1D       14.8410   37.2200   -2.3740 C.2   142  HEM142      0.0000
     35  C2D       16.0220   37.1210   -1.5300 C.2   142  HEM142      0.0000
     36  C3D       17.0720   37.0550   -2.3980 C.2   142  HEM142      0.0000
     37  C4D       16.5070   37.1280   -3.7630 C.2   142  HEM142      0.0000
     38  CMD       16.0910   37.1090    0.0060 C.3   142  HEM142      0.0000
     39  CAD       18.5760   36.9450   -2.0220 C.3   142  HEM142      0.0000
     40  CBD       19.3410   38.2250   -2.4150 C.3   142  HEM142      0.0000
     41  CGD       20.7130   38.4510   -1.7920 C.2   142  HEM142      0.0000
     42  O1D       21.3220   39.4630   -2.1750 O.co2 142  HEM142      0.0000
     43  O2D       21.2070   37.6580   -0.9660 O.co2 142  HEM142      0.0000
@<TRIPOS>BOND
     1    22    19    1
     2    11     9    1
     3    24    23    1
     4    19    18    1
     5    19    20    2
     6     3    18    1
     7     3    10    2
     8     9    10   ar
     9     9     8   ar
    10    23    20    1
    11    18    17    2
    12    20    21    1
    13    10     6   ar
    14    16    14   ar
    15    13    14    1
    16    13    12    1
    17    14    15   ar
    18    12     8    1
    19     8     7   ar
    20    17    21    1
    21    17     1    1
    22    21     4    2
    23     6     7   ar
    24     6     1    1
    25     7     2    2
    26     4    26    1
    27     1    25    1
    28     1    33    1
    29     2    37    1
    30    26    25   ar
    31    26    27   ar
    32    25    29   ar
    33    37    33    2
    34    37    36    1
    35    33    34    1
    36    27    30    1
    37    27    28   ar
    38    29    28   ar
    39    29     5    1
    40    40    39    1
    41    40    41    1
    42    36    39    1
    43    36    35    2
    44    34     5    2
    45    34    35    1
    46    42    41   ar
    47    28    31    1
    48    41    43   ar
    49    35    38    1
    50    31    32    1
