@<TRIPOS>MOLECULE
1jed_ADP_A_1.pdb
 27 29 0 0 0
SMALL
GASTEIGER

@<TRIPOS>ATOM
      1  PB        98.8650  193.3580  145.6500 P.3   635  ADP635      0.5373
      2  O1B       99.9080  193.5100  144.6130 O.2   635  ADP635     -0.2221
      3  O2B       97.4600  194.0720  145.2700 O.3   635  ADP635     -0.1143
      4  O3B       99.3300  193.8560  146.9650 O.3   635  ADP635     -0.1143
      5  PA        98.6830  190.7190  146.7510 P.3   635  ADP635      0.2231
      6  O1A       98.4210  191.3020  148.0750 O.3   635  ADP635     -0.4370
      7  O2A       97.7350  189.6430  146.4150 O.2   635  ADP635     -0.5169
      8  O3A       98.5170  191.8620  145.6960 O.3   635  ADP635     -0.2261
      9  O5'      100.2060  190.2280  146.5870 O.3   635  ADP635     -0.3111
     10  C5'      101.3080  191.1120  146.8880 C.3   635  ADP635      0.1813
     11  C4'      102.5070  190.8490  145.9340 C.3   635  ADP635      0.1821
     12  O4'      102.6840  189.4420  145.7020 O.3   635  ADP635     -0.3135
     13  C3'      102.3430  191.4710  144.5570 C.3   635  ADP635      0.2184
     14  O3'      103.5760  191.9980  144.0650 O.3   635  ADP635     -0.2174
     15  C2'      101.8930  190.3250  143.6570 C.3   635  ADP635      0.2570
     16  O2'      102.1320  190.5320  142.2480 O.3   635  ADP635     -0.2130
     17  C1'      102.6640  189.1840  144.2710 C.3   635  ADP635      0.3186
     18  N9       102.0840  187.8210  144.0280 N.pl3 635  ADP635     -0.1439
     19  C8       100.9970  187.3120  144.6320 C.3   635  ADP635      0.3377
     20  N7       100.7880  186.0670  144.1940 N.2   635  ADP635     -0.2095
     21  C5       101.7230  185.7730  143.3210 C.2   635  ADP635      0.2526
     22  C6       102.0480  184.6590  142.5390 C.2   635  ADP635      0.4393
     23  N6       101.3050  183.5480  142.6050 N.pl3 635  ADP635      0.2180
     24  N1       103.1350  184.7040  141.7020 N.2   635  ADP635      0.0021
     25  C2       103.9200  185.8090  141.6060 C.3   635  ADP635      0.5254
     26  N3       103.6200  186.8830  142.3580 N.2   635  ADP635     -0.0055
     27  C4       102.5600  186.9120  143.2070 C.2   635  ADP635      0.3518
@<TRIPOS>BOND
     1    25    24    1
     2    25    26    1
     3    24    22    2
     4    16    15    1
     5    26    27    2
     6    22    23    1
     7    22    21    1
     8    27    21    1
     9    27    18    1
    10    21    20    2
    11    15    17    1
    12    15    13    1
    13    18    17    1
    14    18    19    1
    15    14    13    1
    16    20    19    1
    17    17    12    1
    18    13    11    1
    19     2     1    2
    20     3     1    1
    21     1     8    1
    22     1     4    1
    23     8     5    1
    24    12    11    1
    25    11    10    1
    26     7     5    2
    27     9     5    1
    28     9    10    1
    29     5     6    1
