@<TRIPOS>MOLECULE
1jee_ADX_B_1.pdb
 27 29 0 0 0
SMALL
GASTEIGER

@<TRIPOS>ATOM
      1  SB        98.6650  193.3380  145.8510 S.3   635  ADX635      0.0049
      2  O1B       99.6220  193.2170  144.7240 O.2   635  ADX635     -0.3449
      3  O2B       97.4010  194.2710  145.4810 O.2   635  ADX635     -0.3449
      4  O3B       99.3040  193.8670  147.0850 O.3   635  ADX635     -0.2679
      5  PA        98.5450  190.6890  146.8580 P.3   635  ADX635      0.2383
      6  O1A       98.3950  190.9790  148.2870 O.3   635  ADX635     -0.4361
      7  O2A       97.6870  189.5840  146.3670 O.2   635  ADX635     -0.5161
      8  O3A       98.0890  191.9610  146.0860 O.3   635  ADX635     -0.1945
      9  O5'      100.0810  190.3970  146.4990 O.3   635  ADX635     -0.3102
     10  C5'      101.1370  191.2830  146.9100 C.3   635  ADX635      0.1814
     11  C4'      102.4110  190.9940  146.0820 C.3   635  ADX635      0.1821
     12  O4'      102.5600  189.5830  145.8560 O.3   635  ADX635     -0.3135
     13  C3'      102.3790  191.6140  144.6950 C.3   635  ADX635      0.2184
     14  O3'      103.6740  192.0060  144.2430 O.3   635  ADX635     -0.2174
     15  C2'      101.9050  190.5090  143.8080 C.3   635  ADX635      0.2570
     16  O2'      102.1590  190.7230  142.4130 O.3   635  ADX635     -0.2130
     17  C1'      102.6370  189.3580  144.4380 C.3   635  ADX635      0.3186
     18  N9       102.0790  188.0240  144.1450 N.pl3 635  ADX635     -0.1439
     19  C8       101.0430  187.4800  144.7650 C.3   635  ADX635      0.3377
     20  N7       100.8310  186.2680  144.2720 N.2   635  ADX635     -0.2095
     21  C5       101.7160  186.0260  143.3430 C.2   635  ADX635      0.2526
     22  C6       102.0120  184.9550  142.4880 C.2   635  ADX635      0.4393
     23  N6       101.2870  183.8210  142.5240 N.pl3 635  ADX635      0.2180
     24  N1       103.0490  185.0610  141.6120 N.2   635  ADX635      0.0021
     25  C2       103.8080  186.1720  141.5390 C.3   635  ADX635      0.5254
     26  N3       103.5340  187.1950  142.3580 N.2   635  ADX635     -0.0055
     27  C4       102.5240  187.1690  143.2530 C.2   635  ADX635      0.3518
@<TRIPOS>BOND
     1    25    24    1
     2    25    26    1
     3    24    22    2
     4    26    27    2
     5    16    15    1
     6    22    23    1
     7    22    21    1
     8    27    21    1
     9    27    18    1
    10    21    20    2
    11    15    17    1
    12    15    13    1
    13    18    17    1
    14    18    19    1
    15    14    13    1
    16    20    19    1
    17    17    12    1
    18    13    11    1
    19     2     1    2
    20     3     1    2
    21     1     8    1
    22     1     4    1
    23    12    11    1
    24    11    10    1
    25     8     5    1
    26     7     5    2
    27     9     5    1
    28     9    10    1
    29     5     6    1
