@<TRIPOS>MOLECULE
1jef_NAG_A_1.pdb
 15 15 0 0 0
SMALL
GASTEIGER

@<TRIPOS>ATOM
      1  C1        -4.4980   15.2680   24.2540 C.3   132  NAG132      0.2917
      2  C2        -4.8950   14.6340   25.5860 C.3   132  NAG132      0.1871
      3  C3        -5.9530   13.5710   25.3080 C.3   132  NAG132      0.2095
      4  C4        -7.1370   14.1650   24.5210 C.3   132  NAG132      0.2136
      5  C5        -6.6650   14.9500   23.2710 C.3   132  NAG132      0.1835
      6  C6        -7.6790   15.7470   22.3750 C.3   132  NAG132      0.2142
      7  C7        -3.1490   14.4940   27.3350 C.2   132  NAG132      0.2421
      8  C8        -1.9270   13.8060   27.9040 C.3   132  NAG132      0.0964
      9  N2        -3.7020   14.0430   26.2100 N.am  132  NAG132     -0.1991
     10  O1        -3.5590   16.2930   24.4850 O.3   132  NAG132     -0.1879
     11  O3        -6.4070   13.0090   26.5170 O.3   132  NAG132     -0.2183
     12  O4        -7.8920   13.0300   24.0920 O.3   132  NAG132     -0.2176
     13  O5        -5.6610   15.8630   23.7070 O.3   132  NAG132     -0.3242
     14  O6        -8.4810   16.6800   23.1060 O.3   132  NAG132     -0.2176
     15  O7        -3.6350   15.4710   27.8920 O.2   132  NAG132     -0.2733
@<TRIPOS>BOND
     1     6    14    1
     2     6     5    1
     3     5    13    1
     4     5     4    1
     5    13     1    1
     6    12     4    1
     7     1    10    1
     8     1     2    1
     9     4     3    1
    10     3     2    1
    11     3    11    1
    12     2     9    1
    13     9     7   am
    14     7    15    2
    15     7     8    1
