@<TRIPOS>MOLECULE
1jep_DFL_A_1.pdb
 18 20 0 0 0
SMALL
GASTEIGER

@<TRIPOS>ATOM
      1  C1        27.5340   20.6640   37.7110 C.ar  501  DFL501      0.0031
      2  C2        26.2960   20.0670   37.7370 C.ar  501  DFL501      0.0003
      3  C3        25.2890   20.2100   36.5770 C.ar  501  DFL501      0.0059
      4  C4        25.6760   20.9800   35.4840 C.ar  501  DFL501      0.0688
      5  C5        27.0900   21.6760   35.4170 C.ar  501  DFL501      0.1415
      6  C6        27.9380   21.5060   36.4870 C.ar  501  DFL501      0.0370
      7  C7        24.7280   21.2090   34.2350 C.2   501  DFL501      0.1800
      8  C8        25.3130   22.1070   33.1260 C.3   501  DFL501      0.1173
      9  C9        26.8280   22.0920   33.0890 C.3   501  DFL501      0.1958
     10  O1        27.4450   22.4240   34.3220 O.3   501  DFL501     -0.4742
     11  C10       27.3480   23.0060   31.9990 C.ar  501  DFL501      0.0178
     12  C11       27.2750   24.4070   32.0730 C.ar  501  DFL501      0.0025
     13  C12       27.8410   25.2600   30.9170 C.ar  501  DFL501      0.0418
     14  C13       28.4160   24.6660   29.8140 C.ar  501  DFL501      0.1957
     15  C14       28.4860   23.1360   29.7460 C.ar  501  DFL501      0.0418
     16  C15       27.9900   22.3590   30.7610 C.ar  501  DFL501      0.0025
     17  O2        23.6200   20.7360   34.1490 O.2   501  DFL501     -0.2911
     18  O4        28.9100   25.3990   28.8140 O.3   501  DFL501     -0.2866
@<TRIPOS>BOND
     1    18    14    1
     2    15    14   ar
     3    15    16   ar
     4    14    13   ar
     5    16    11   ar
     6    13    12   ar
     7    11    12   ar
     8    11     9    1
     9     9     8    1
    10     9    10    1
    11     8     7    1
    12    17     7    2
    13     7     4    1
    14    10     5    1
    15     5     4   ar
    16     5     6   ar
    17     4     3   ar
    18     6     1   ar
    19     3     2   ar
    20     1     2   ar
