@<TRIPOS>MOLECULE
1jet_III_B_1.pdb
 24 23 0 0 0
SMALL
GASTEIGER

@<TRIPOS>ATOM
      1  N          6.7290   16.4500   14.9920 N.3     1  LYS1       -0.1231
      2  CA         6.2530   17.7560   14.4370 C.3     1  LYS1        0.1693
      3  C          5.0450   18.2510   15.2150 C.2     1  LYS1        0.2592
      4  O          4.2800   17.4480   15.7620 O.2     1  LYS1       -0.2718
      5  CB         5.9680   17.6540   12.9460 C.3     1  LYS1        0.0285
      6  CG         5.1180   16.4580   12.5480 C.3     1  LYS1        0.0035
      7  CD         4.9780   16.3570   11.0330 C.3     1  LYS1        0.0206
      8  CE         6.2490   15.7930   10.4040 C.3     1  LYS1        0.1093
      9  NZ         6.4830   14.3920   10.8750 N.3     1  LYS1       -0.1314
     10  N          4.9230   19.5660   15.3190 N.am    2  ALA2       -0.1966
     11  CA         3.8390   20.1950   16.0660 C.3     2  ALA2        0.1728
     12  C          2.5280   20.1380   15.3050 C.2     2  ALA2        0.2617
     13  O          2.4620   20.4270   14.1110 O.2     2  ALA2       -0.2715
     14  CB         4.2130   21.6510   16.3500 C.3     2  ALA2        0.0334
     15  N          1.4530   19.7490   16.0220 N.am    3  LYS3       -0.1942
     16  CA         0.1430   19.6800   15.4080 C.3     3  LYS3        0.1978
     17  C         -0.8750   20.5130   16.1950 C.2     3  LYS3        0.3842
     18  O         -1.9550   20.7840   15.6090 O.co2   3  LYS3       -0.2437
     19  CB        -0.3480   18.2320   15.2750 C.3     3  LYS3        0.0333
     20  CG        -1.6030   18.1240   14.4160 C.3     3  LYS3        0.0039
     21  CD        -1.5520   17.0510   13.3670 C.3     3  LYS3        0.0206
     22  CE        -2.5720   17.3320   12.2680 C.3     3  LYS3        0.1093
     23  NZ        -3.8410   17.8600   12.8360 N.3     3  LYS3       -0.1314
     24  OXT       -0.5530   20.9080   17.3330 O.co2   3  LYS3       -0.2437
@<TRIPOS>BOND
     1     8     9    1
     2     8     7    1
     3     7     6    1
     4    22    23    1
     5    22    21    1
     6     6     5    1
     7     5     2    1
     8    21    20    1
     9    13    12    2
    10    20    19    1
    11     2     1    1
    12     2     3    1
    13     3    10   am
    14     3     4    2
    15    19    16    1
    16    12    15   am
    17    12    11    1
    18    10    11    1
    19    16    15    1
    20    16    17    1
    21    18    17   ar
    22    11    14    1
    23    17    24   ar
