@<TRIPOS>MOLECULE
1jeu_III_B_1.pdb
 28 27 0 0 0
SMALL
GASTEIGER

@<TRIPOS>ATOM
      1  N          6.9710   16.6310   15.1610 N.3     1  LYS1       -0.1231
      2  CA         6.4570   17.9140   14.5770 C.3     1  LYS1        0.1693
      3  C          5.2300   18.4070   15.3260 C.2     1  LYS1        0.2592
      4  O          4.4710   17.5920   15.8650 O.2     1  LYS1       -0.2718
      5  CB         6.2050   17.7380   13.0900 C.3     1  LYS1        0.0285
      6  CG         5.3260   16.5730   12.6920 C.3     1  LYS1        0.0035
      7  CD         5.1880   16.4730   11.1790 C.3     1  LYS1        0.0206
      8  CE         6.4370   15.9090   10.5280 C.3     1  LYS1        0.1093
      9  NZ         6.6940   14.5080   10.9900 N.3     1  LYS1       -0.1314
     10  N          5.0250   19.7160   15.4110 N.am    2  GLU2       -0.1966
     11  CA         3.9020   20.3030   16.1320 C.3     2  GLU2        0.1733
     12  C          2.5820   20.1570   15.3830 C.2     2  GLU2        0.2617
     13  O          2.5260   20.3750   14.1830 O.2     2  GLU2       -0.2715
     14  CB         4.1800   21.7860   16.4140 C.3     2  GLU2        0.0429
     15  CG         5.4870   22.0530   17.1320 C.3     2  GLU2        0.1163
     16  CD         5.5070   21.7130   18.5990 C.2     2  GLU2        0.3649
     17  OE1        4.4800   21.2770   19.1650 O.co2   2  GLU2       -0.2457
     18  OE2        6.5720   21.8810   19.2410 O.co2   2  GLU2       -0.2457
     19  N          1.5160   19.7930   16.1120 N.am    3  LYS3       -0.1942
     20  CA         0.1920   19.6270   15.5440 C.3     3  LYS3        0.1978
     21  C         -0.8350   20.5300   16.2310 C.2     3  LYS3        0.3842
     22  O         -1.8260   20.8750   15.5450 O.co2   3  LYS3       -0.2437
     23  CB        -0.3440   18.1940   15.4970 C.3     3  LYS3        0.0333
     24  CG        -1.1830   18.0360   14.2050 C.3     3  LYS3        0.0039
     25  CD        -2.1660   16.9100   14.2770 C.3     3  LYS3        0.0206
     26  CE        -3.3420   17.1560   13.3350 C.3     3  LYS3        0.1093
     27  NZ        -2.9680   16.9360   11.9100 N.3     3  LYS3       -0.1314
     28  OXT       -0.6330   20.8920   17.4010 O.co2   3  LYS3       -0.2437
@<TRIPOS>BOND
     1     8     9    1
     2     8     7    1
     3     7     6    1
     4    27    26    1
     5     6     5    1
     6     5     2    1
     7    26    25    1
     8    13    12    2
     9    24    25    1
    10    24    23    1
    11     2     1    1
    12     2     3    1
    13     3    10   am
    14     3     4    2
    15    12    19   am
    16    12    11    1
    17    10    11    1
    18    23    20    1
    19    20    19    1
    20    20    21    1
    21    22    21   ar
    22    11    14    1
    23    21    28   ar
    24    14    15    1
    25    15    16    1
    26    16    17   ar
    27    16    18   ar
