@<TRIPOS>MOLECULE
1jev_III_B_1.pdb
 33 34 0 0 0
SMALL
GASTEIGER

@<TRIPOS>ATOM
      1  N          6.8620   16.6290   15.1970 N.3     1  LYS1       -0.1231
      2  CA         6.3920   17.9340   14.6200 C.3     1  LYS1        0.1693
      3  C          5.1030   18.3620   15.3010 C.2     1  LYS1        0.2592
      4  O          4.3370   17.5010   15.7230 O.2     1  LYS1       -0.2718
      5  CB         6.2400   17.8330   13.1120 C.3     1  LYS1        0.0285
      6  CG         5.3540   16.6850   12.6460 C.3     1  LYS1        0.0035
      7  CD         5.3180   16.6000   11.1250 C.3     1  LYS1        0.0206
      8  CE         6.6030   15.9860   10.5700 C.3     1  LYS1        0.1093
      9  NZ         6.7150   14.5550   10.9660 N.3     1  LYS1       -0.1314
     10  N          4.8910   19.6600   15.4540 N.am    2  TRP2       -0.1962
     11  CA         3.6920   20.1550   16.1270 C.3     2  TRP2        0.1768
     12  C          2.4620   20.0900   15.2250 C.2     2  TRP2        0.2620
     13  O          2.5160   20.3800   14.0430 O.2     2  TRP2       -0.2715
     14  CB         3.8860   21.6000   16.6060 C.3     2  TRP2        0.0553
     15  CG         4.9530   21.7050   17.6590 C.2     2  TRP2       -0.0136
     16  CD1        6.1460   22.3450   17.5650 C.2     2  TRP2        0.0907
     17  CD2        4.9170   21.1080   18.9620 C.3     2  TRP2        0.0819
     18  NE1        6.8600   22.1910   18.7300 N.2     2  TRP2       -0.2482
     19  CE2        6.1270   21.4330   19.6020 C.2     2  TRP2        0.0665
     20  CE3        3.9680   20.3360   19.6490 C.2     2  TRP2       -0.0164
     21  CZ2        6.4170   21.0100   20.9010 C.2     2  TRP2        0.0153
     22  CZ3        4.2640   19.9040   20.9250 C.2     2  TRP2       -0.0038
     23  CH2        5.4830   20.2430   21.5420 C.2     2  TRP2        0.0009
     24  N          1.3330   19.6990   15.8410 N.am    3  LYS3       -0.1941
     25  CA         0.0750   19.6230   15.1390 C.3     3  LYS3        0.1978
     26  C         -1.0010   20.4270   15.8820 C.2     3  LYS3        0.3842
     27  O         -1.9790   20.8010   15.1960 O.co2   3  LYS3       -0.2437
     28  CB        -0.4160   18.1660   15.0560 C.3     3  LYS3        0.0333
     29  CG        -1.4650   18.0070   13.9580 C.3     3  LYS3        0.0039
     30  CD        -2.3620   16.8230   14.1800 C.3     3  LYS3        0.0206
     31  CE        -3.4910   16.8170   13.1640 C.3     3  LYS3        0.1093
     32  NZ        -2.9740   16.8470   11.7710 N.3     3  LYS3       -0.1314
     33  OXT       -0.8210   20.6520   17.0920 O.co2   3  LYS3       -0.2437
@<TRIPOS>BOND
     1     8     9    1
     2     8     7    1
     3     7     6    1
     4    32    31    1
     5     6     5    1
     6     5     2    1
     7    31    30    1
     8    29    30    1
     9    29    28    1
    10    13    12    2
    11     2     1    1
    12     2     3    1
    13    28    25    1
    14    25    24    1
    15    25    26    1
    16    27    26   ar
    17    12    24   am
    18    12    11    1
    19     3    10   am
    20     3     4    2
    21    10    11    1
    22    26    33   ar
    23    11    14    1
    24    14    15    1
    25    16    15    2
    26    16    18    1
    27    15    17    1
    28    18    19    2
    29    17    19    1
    30    17    20    1
    31    19    21    1
    32    20    22    2
    33    21    23    2
    34    22    23    1
