@<TRIPOS>MOLECULE
1jf0_CZH_A_1.pdb
 34 38 0 0 0
SMALL
GASTEIGER

@<TRIPOS>ATOM
      1  N1        24.0750   -5.8820   49.0970 N.2   197  CZH197     -0.0275
      2  C2        23.9270   -7.2960   48.9420 C.3   197  CZH197      0.3915
      3  C3        23.8120   -7.7740   50.4470 C.2   197  CZH197      0.3887
      4  N4        23.8980   -6.7250   51.2100 N.am  197  CZH197     -0.1262
      5  C5        23.8420   -6.6950   52.6970 C.3   197  CZH197      0.2691
      6  C6        23.9640   -5.4600   53.2950 C.2   197  CZH197      0.1563
      7  N7        24.1460   -4.2580   52.4160 N.2   197  CZH197     -0.3986
      8  C8        24.1910   -4.3150   51.0700 C.2   197  CZH197      0.1948
      9  C9        24.0540   -5.6470   50.3970 C.2   197  CZH197      0.3543
     10  C10       22.6460   -7.6250   48.0880 C.3   197  CZH197      0.1200
     11  C11       22.4560   -9.1090   47.8490 C.ar  197  CZH197     -0.0145
     12  C12       23.2400   -9.8100   46.8210 C.ar  197  CZH197     -0.0007
     13  C13       23.0610  -11.2190   46.6020 C.ar  197  CZH197      0.0417
     14  C14       22.1050  -11.9490   47.4010 C.ar  197  CZH197      0.1957
     15  C15       21.3170  -11.2750   48.4270 C.ar  197  CZH197      0.0417
     16  C16       21.4980   -9.8520   48.6440 C.ar  197  CZH197     -0.0007
     17  O17       21.9650  -13.2690   47.1670 O.3   197  CZH197     -0.2866
     18  O18       23.6740   -8.9340   50.8070 O.2   197  CZH197     -0.2391
     19  C19       23.9360   -5.2340   54.7440 C.ar  197  CZH197      0.0297
     20  C20       23.5270   -3.9370   55.2480 C.ar  197  CZH197      0.0056
     21  C21       23.5060   -3.7020   56.6740 C.ar  197  CZH197      0.0421
     22  C22       23.8910   -4.7550   57.5870 C.ar  197  CZH197      0.1957
     23  C23       24.2950   -6.0370   57.0920 C.ar  197  CZH197      0.0421
     24  C24       24.3190   -6.2760   55.6940 C.ar  197  CZH197      0.0056
     25  O25       23.8720   -4.5210   58.9170 O.3   197  CZH197     -0.2866
     26  C26       24.3790   -3.0230   50.3150 C.3   197  CZH197      0.0931
     27  C27       23.1110   -2.2390   50.1540 C.ar  197  CZH197     -0.0149
     28  C28       22.5390   -2.0810   48.8320 C.ar  197  CZH197     -0.0038
     29  C29       21.3100   -1.3170   48.6480 C.ar  197  CZH197     -0.0003
     30  C30       20.6550   -0.7140   49.7840 C.ar  197  CZH197     -0.0000
     31  C31       21.2180   -0.8710   51.1130 C.ar  197  CZH197     -0.0003
     32  C32       22.4420   -1.6290   51.3030 C.ar  197  CZH197     -0.0038
     33  O33       25.1300   -7.6380   48.2150 O.3   197  CZH197     -0.1337
     34  O34       26.0970   -8.3380   48.9580 O.3   197  CZH197     -0.0302
@<TRIPOS>BOND
     1    13    12   ar
     2    13    14   ar
     3    12    11   ar
     4    17    14    1
     5    14    15   ar
     6    11    10    1
     7    11    16   ar
     8    10     2    1
     9    33     2    1
    10    33    34    1
    11    15    16   ar
    12    29    28   ar
    13    29    30   ar
    14    28    27   ar
    15     2     1    1
    16     2     3    1
    17     1     9    2
    18    30    31   ar
    19    27    26    1
    20    27    32   ar
    21    26     8    1
    22     9     8    1
    23     9     4    1
    24     3    18    2
    25     3     4   am
    26     8     7    2
    27    31    32   ar
    28     4     5    1
    29     7     6    2
    30     5     6    1
    31     6    19    1
    32    19    20   ar
    33    19    24   ar
    34    20    21   ar
    35    24    23   ar
    36    21    22   ar
    37    23    22   ar
    38    22    25    1
