@<TRIPOS>MOLECULE
1jf2_CZH_A_1.pdb
 34 38 0 0 0
SMALL
GASTEIGER

@<TRIPOS>ATOM
      1  N1        52.9800   27.8310  -61.2300 N.2   196  CZH196     -0.0275
      2  C2        53.8420   28.8590  -60.7550 C.3   196  CZH196      0.3915
      3  C3        54.8380   28.0340  -59.8260 C.2   196  CZH196      0.3887
      4  N4        54.4710   26.7760  -59.8640 N.am  196  CZH196     -0.1262
      5  C5        55.1000   25.6250  -59.1450 C.3   196  CZH196      0.2691
      6  C6        54.5190   24.3830  -59.3350 C.2   196  CZH196      0.1563
      7  N7        53.3140   24.2870  -60.2380 N.2   196  CZH196     -0.3986
      8  C8        52.7700   25.3500  -60.8800 C.2   196  CZH196      0.1948
      9  C9        53.3870   26.7030  -60.6860 C.2   196  CZH196      0.3543
     10  C10       54.5670   29.5840  -61.9580 C.3   196  CZH196      0.1200
     11  C11       55.4480   30.7380  -61.5130 C.ar  196  CZH196     -0.0145
     12  C12       54.8490   32.0420  -61.1840 C.ar  196  CZH196     -0.0007
     13  C13       55.6720   33.1400  -60.7570 C.ar  196  CZH196      0.0417
     14  C14       57.0980   32.9550  -60.6510 C.ar  196  CZH196      0.1957
     15  C15       57.7130   31.6690  -60.9730 C.ar  196  CZH196      0.0417
     16  C16       56.8800   30.5630  -61.4060 C.ar  196  CZH196     -0.0007
     17  O17       57.8370   33.9980  -60.2530 O.3   196  CZH196     -0.2866
     18  O18       55.7700   28.5090  -59.1900 O.2   196  CZH196     -0.2391
     19  C19       54.9640   23.1400  -58.6900 C.ar  196  CZH196      0.0297
     20  C20       54.5680   21.8620  -59.2520 C.ar  196  CZH196      0.0056
     21  C21       54.9800   20.6390  -58.5910 C.ar  196  CZH196      0.0421
     22  C22       55.7780   20.6930  -57.3790 C.ar  196  CZH196      0.1957
     23  C23       56.1730   21.9550  -56.8260 C.ar  196  CZH196      0.0421
     24  C24       55.7740   23.1580  -57.4660 C.ar  196  CZH196      0.0056
     25  O25       56.1440   19.5450  -56.7730 O.3   196  CZH196     -0.2866
     26  C26       51.5570   25.1120  -61.7470 C.3   196  CZH196      0.0931
     27  C27       51.8610   24.5460  -63.0930 C.ar  196  CZH196     -0.0149
     28  C28       51.7470   25.3970  -64.2620 C.ar  196  CZH196     -0.0038
     29  C29       52.0360   24.8610  -65.5900 C.ar  196  CZH196     -0.0003
     30  C30       52.4370   23.4810  -65.7450 C.ar  196  CZH196     -0.0000
     31  C31       52.5520   22.6260  -64.5720 C.ar  196  CZH196     -0.0003
     32  C32       52.2670   23.1490  -63.2530 C.ar  196  CZH196     -0.0038
     33  O33       52.9190   29.7780  -60.1150 O.3   196  CZH196     -0.1337
     34  O34       52.4240   29.0410  -59.0280 O.3   196  CZH196     -0.0302
@<TRIPOS>BOND
     1    30    29   ar
     2    30    31   ar
     3    29    28   ar
     4    31    32   ar
     5    28    27   ar
     6    32    27   ar
     7    27    26    1
     8    10    11    1
     9    10     2    1
    10    26     8    1
    11    11    16   ar
    12    11    12   ar
    13    16    15   ar
    14     1     2    1
    15     1     9    2
    16    12    13   ar
    17    15    14   ar
    18     8     9    1
    19     8     7    2
    20    13    14   ar
    21     2    33    1
    22     2     3    1
    23     9     4    1
    24    14    17    1
    25     7     6    2
    26    33    34    1
    27     4     3   am
    28     4     5    1
    29     3    18    2
    30     6     5    1
    31     6    19    1
    32    20    19   ar
    33    20    21   ar
    34    19    24   ar
    35    21    22   ar
    36    24    23   ar
    37    22    23   ar
    38    22    25    1
