@<TRIPOS>MOLECULE
1jf3_HEM_A_1.pdb
 43 50 0 0 0
SMALL
GASTEIGER

@<TRIPOS>ATOM
      1 FE        -24.2640   -6.7820   18.7150 Fe    148  HEM148      0.0000
      2  CHA      -25.9520   -8.4080   16.2560 C.2   148  HEM148      0.0000
      3  CHB      -25.5700   -3.8240   17.6260 C.2   148  HEM148      0.0000
      4  CHC      -23.1030   -5.2100   21.4990 C.2   148  HEM148      0.0000
      5  CHD      -23.3550   -9.7700   20.0440 C.2   148  HEM148      0.0000
      6  NA       -25.5110   -6.2340   17.2690 N.ar  148  HEM148      0.0000
      7  C1A      -26.1280   -7.0430   16.3370 C.ar  148  HEM148      0.0000
      8  C2A      -27.0250   -6.2850   15.4950 C.ar  148  HEM148      0.0000
      9  C3A      -26.8870   -4.9850   15.8440 C.ar  148  HEM148      0.0000
     10  C4A      -25.9470   -4.9620   16.9480 C.ar  148  HEM148      0.0000
     11  CMA      -27.5840   -3.7880   15.2130 C.3   148  HEM148      0.0000
     12  CAA      -28.0460   -6.8720   14.5370 C.3   148  HEM148      0.0000
     13  CBA      -27.5330   -6.9930   13.1330 C.3   148  HEM148      0.0000
     14  CGA      -28.5650   -7.5670   12.1840 C.2   148  HEM148      0.0000
     15  O1A      -29.3130   -6.7850   11.5900 O.co2 148  HEM148      0.0000
     16  O2A      -28.6090   -8.7930   12.0470 O.co2 148  HEM148      0.0000
     17  NB       -24.2810   -4.9220   19.3870 N.2   148  HEM148      0.0000
     18  C1B      -24.7810   -3.7950   18.7570 C.2   148  HEM148      0.0000
     19  C2B      -24.4380   -2.5870   19.4710 C.2   148  HEM148      0.0000
     20  C3B      -23.7320   -2.9690   20.5690 C.2   148  HEM148      0.0000
     21  C4B      -23.6790   -4.4210   20.5250 C.2   148  HEM148      0.0000
     22  CMB      -24.7900   -1.1720   19.0340 C.3   148  HEM148      0.0000
     23  CAB      -23.0620   -2.1530   21.4780 C.3   148  HEM148      0.0000
     24  CBB      -23.7060   -1.2630   22.4250 C.3   148  HEM148      0.0000
     25  NC       -23.4370   -7.3730   20.4280 N.ar  148  HEM148      0.0000
     26  C1C      -23.0050   -6.5850   21.4760 C.ar  148  HEM148      0.0000
     27  C2C      -22.3770   -7.3790   22.5260 C.ar  148  HEM148      0.0000
     28  C3C      -22.3740   -8.6630   22.1040 C.ar  148  HEM148      0.0000
     29  C4C      -23.0670   -8.6540   20.8020 C.ar  148  HEM148      0.0000
     30  CMC      -21.8570   -6.8850   23.8780 C.3   148  HEM148      0.0000
     31  CAC      -21.6850   -9.6850   22.7530 C.3   148  HEM148      0.0000
     32  CBC      -22.1460  -11.0480   22.9250 C.3   148  HEM148      0.0000
     33  ND       -24.5410   -8.6640   18.2250 N.2   148  HEM148      0.0000
     34  C1D      -24.0410   -9.7850   18.8510 C.2   148  HEM148      0.0000
     35  C2D      -24.3910  -10.9880   18.1420 C.2   148  HEM148      0.0000
     36  C3D      -25.1350  -10.6040   17.0870 C.2   148  HEM148      0.0000
     37  C4D      -25.2170   -9.1700   17.1360 C.2   148  HEM148      0.0000
     38  CMD      -23.9820  -12.4090   18.4900 C.3   148  HEM148      0.0000
     39  CAD      -25.7680  -11.5170   16.0470 C.3   148  HEM148      0.0000
     40  CBD      -25.0590  -11.4890   14.6920 C.3   148  HEM148      0.0000
     41  CGD      -23.5790  -11.8390   14.7490 C.2   148  HEM148      0.0000
     42  O1D      -22.7820  -11.0370   14.2810 O.co2 148  HEM148      0.0000
     43  O2D      -23.2210  -12.8970   15.2660 O.co2 148  HEM148      0.0000
@<TRIPOS>BOND
     1    15    14   ar
     2    16    14   ar
     3    14    13    1
     4    13    12    1
     5    42    41   ar
     6    12     8    1
     7    40    41    1
     8    40    39    1
     9    41    43   ar
    10    11     9    1
    11     8     9   ar
    12     8     7   ar
    13     9    10   ar
    14    39    36    1
    15     2     7    2
    16     2    37    1
    17     7     6   ar
    18    10     6   ar
    19    10     3    2
    20    36    37    1
    21    36    35    2
    22    37    33    2
    23     6     1    1
    24     3    18    1
    25    35    38    1
    26    35    34    1
    27    33     1    1
    28    33    34    1
    29     1    17    1
    30     1    25    1
    31    18    17    2
    32    18    19    1
    33    34     5    2
    34    22    19    1
    35    17    21    1
    36    19    20    2
    37     5    29    1
    38    25    29   ar
    39    25    26   ar
    40    21    20    1
    41    21     4    2
    42    20    23    1
    43    29    28   ar
    44    26     4    1
    45    26    27   ar
    46    23    24    1
    47    28    27   ar
    48    28    31    1
    49    27    30    1
    50    31    32    1
