@<TRIPOS>MOLECULE
1jf4_HEM_A_1.pdb
 43 50 0 0 0
SMALL
GASTEIGER

@<TRIPOS>ATOM
      1 FE        -24.2170   -6.6730   18.8470 Fe    148  HEM148      0.0000
      2  CHA      -25.9920   -8.3070   16.4780 C.2   148  HEM148      0.0000
      3  CHB      -25.4700   -3.7120   17.7600 C.2   148  HEM148      0.0000
      4  CHC      -23.1460   -5.1370   21.6900 C.2   148  HEM148      0.0000
      5  CHD      -23.2330   -9.6630   20.1350 C.2   148  HEM148      0.0000
      6  NA       -25.4730   -6.1360   17.4450 N.ar  148  HEM148      0.0000
      7  C1A      -26.1420   -6.9380   16.5480 C.ar  148  HEM148      0.0000
      8  C2A      -27.0690   -6.1680   15.7390 C.ar  148  HEM148      0.0000
      9  C3A      -26.8810   -4.8740   16.0920 C.ar  148  HEM148      0.0000
     10  C4A      -25.8960   -4.8600   17.1310 C.ar  148  HEM148      0.0000
     11  CMA      -27.5710   -3.6490   15.5140 C.3   148  HEM148      0.0000
     12  CAA      -28.1300   -6.7010   14.7740 C.3   148  HEM148      0.0000
     13  CBA      -27.5400   -7.1340   13.4450 C.3   148  HEM148      0.0000
     14  CGA      -28.5140   -7.3520   12.2890 C.2   148  HEM148      0.0000
     15  O1A      -29.3220   -6.4640   12.0020 O.co2 148  HEM148      0.0000
     16  O2A      -28.4390   -8.4090   11.6570 O.co2 148  HEM148      0.0000
     17  NB       -24.2070   -4.8140   19.5180 N.2   148  HEM148      0.0000
     18  C1B      -24.6650   -3.6830   18.8760 C.2   148  HEM148      0.0000
     19  C2B      -24.3400   -2.4770   19.6040 C.2   148  HEM148      0.0000
     20  C3B      -23.6970   -2.8770   20.7430 C.2   148  HEM148      0.0000
     21  C4B      -23.6560   -4.3310   20.6870 C.2   148  HEM148      0.0000
     22  CMB      -24.6650   -1.0560   19.1390 C.3   148  HEM148      0.0000
     23  CAB      -23.1090   -2.0890   21.7330 C.3   148  HEM148      0.0000
     24  CBB      -23.8300   -1.1480   22.5720 C.3   148  HEM148      0.0000
     25  NC       -23.3860   -7.2780   20.5590 N.ar  148  HEM148      0.0000
     26  C1C      -23.0220   -6.5100   21.6420 C.ar  148  HEM148      0.0000
     27  C2C      -22.3720   -7.3060   22.6660 C.ar  148  HEM148      0.0000
     28  C3C      -22.2830   -8.5740   22.2000 C.ar  148  HEM148      0.0000
     29  C4C      -22.9540   -8.5520   20.8950 C.ar  148  HEM148      0.0000
     30  CMC      -21.8730   -6.8300   24.0310 C.3   148  HEM148      0.0000
     31  CAC      -21.5590   -9.5910   22.8360 C.3   148  HEM148      0.0000
     32  CBC      -21.8440  -11.0180   22.8020 C.3   148  HEM148      0.0000
     33  ND       -24.5270   -8.5650   18.3940 N.2   148  HEM148      0.0000
     34  C1D      -23.9850   -9.6820   18.9890 C.2   148  HEM148      0.0000
     35  C2D      -24.3550  -10.8860   18.3000 C.2   148  HEM148      0.0000
     36  C3D      -25.1390  -10.5060   17.2740 C.2   148  HEM148      0.0000
     37  C4D      -25.2410   -9.0720   17.3390 C.2   148  HEM148      0.0000
     38  CMD      -23.9420  -12.3060   18.6620 C.3   148  HEM148      0.0000
     39  CAD      -25.8080  -11.4270   16.2680 C.3   148  HEM148      0.0000
     40  CBD      -25.1650  -11.4050   14.8790 C.3   148  HEM148      0.0000
     41  CGD      -23.6930  -11.7690   14.8640 C.2   148  HEM148      0.0000
     42  O1D      -23.3390  -12.8270   15.3670 O.co2 148  HEM148      0.0000
     43  O2D      -22.8930  -10.9800   14.3730 O.co2 148  HEM148      0.0000
@<TRIPOS>BOND
     1    16    14   ar
     2    15    14   ar
     3    14    13    1
     4    13    12    1
     5    43    41   ar
     6    12     8    1
     7    41    40    1
     8    41    42   ar
     9    40    39    1
    10    11     9    1
    11     8     9   ar
    12     8     7   ar
    13     9    10   ar
    14    39    36    1
    15     2     7    2
    16     2    37    1
    17     7     6   ar
    18    10     6   ar
    19    10     3    2
    20    36    37    1
    21    36    35    2
    22    37    33    2
    23     6     1    1
    24     3    18    1
    25    35    38    1
    26    35    34    1
    27    33     1    1
    28    33    34    1
    29     1    17    1
    30     1    25    1
    31    18    17    2
    32    18    19    1
    33    34     5    2
    34    22    19    1
    35    17    21    1
    36    19    20    2
    37     5    29    1
    38    25    29   ar
    39    25    26   ar
    40    21    20    1
    41    21     4    2
    42    20    23    1
    43    29    28   ar
    44    26     4    1
    45    26    27   ar
    46    23    24    1
    47    28    27   ar
    48    28    31    1
    49    27    30    1
    50    32    31    1
