@<TRIPOS>MOLECULE
1jf7_TBH_B_1.pdb
 43 44 0 0 0
SMALL
GASTEIGER

@<TRIPOS>ATOM
      1  O43       23.3020   14.4050   44.0370 O.co2 800  TBH800     -0.2404
      2  C27       23.2690   13.9450   45.1700 C.2   800  TBH800      0.3907
      3  O42       23.8360   14.4490   46.1420 O.co2 800  TBH800     -0.2404
      4  C6        22.4590   12.7170   45.3240 C.ar  800  TBH800      0.1133
      5  C5        21.4000   12.6000   44.4830 C.ar  800  TBH800      0.0054
      6  C1        22.7880   11.6630   46.3020 C.ar  800  TBH800      0.1457
      7  O9        23.8660   11.7990   47.1260 O.3   800  TBH800     -0.4635
      8  C23       24.8360   10.7550   47.1210 C.3   800  TBH800      0.3186
      9  C24       25.8750   10.9380   48.1800 C.2   800  TBH800      0.4084
     10  O25       26.8780   10.2680   48.1160 O.co2 800  TBH800     -0.2415
     11  O26       25.7140   11.6920   49.1230 O.co2 800  TBH800     -0.2415
     12  C2        21.9480   10.5640   46.3550 C.ar  800  TBH800      0.0368
     13  C3        20.8600   10.4970   45.4730 C.ar  800  TBH800     -0.0011
     14  C4        20.5910   11.4990   44.5410 C.ar  800  TBH800     -0.0195
     15  C7        19.4170   11.4580   43.6430 C.3   800  TBH800      0.0574
     16  C8        19.4090   11.8840   42.2190 C.3   800  TBH800      0.1771
     17  C11       20.3390   10.8830   41.5530 C.2   800  TBH800      0.2616
     18  N13       19.9210    9.5460   41.8550 N.am  800  TBH800     -0.2040
     19  C15       20.5280    8.4390   41.5070 C.3   800  TBH800      0.1152
     20  C16       20.7990    7.6240   42.5460 C.3   800  TBH800      0.0234
     21  C17       19.7170    6.7000   43.0660 C.3   800  TBH800      0.0018
     22  C18       20.1560    5.2480   42.8900 C.3   800  TBH800      0.0001
     23  C19       19.3920    4.3300   41.9730 C.3   800  TBH800      0.0000
     24  O14       21.6390   11.2310   41.0770 O.2   800  TBH800     -0.2715
     25  N10       18.1220   11.5710   41.6320 N.am  800  TBH800     -0.1960
     26  C12       17.8160   12.2550   40.4020 C.2   800  TBH800      0.2621
     27  O20       18.8630   12.9510   39.7310 O.2   800  TBH800     -0.2715
     28  C21       16.5710   11.9550   39.5880 C.3   800  TBH800      0.1804
     29  N22       16.3100   13.2140   38.9320 N.am  800  TBH800     -0.1607
     30  C35       15.5610   14.2570   39.5950 C.2   800  TBH800      0.4213
     31  O36       15.3040   14.1770   40.9950 O.2   800  TBH800     -0.2246
     32  O37       15.4540   15.4670   38.8700 O.3   800  TBH800     -0.4408
     33  C38       14.8620   16.5920   39.5150 C.3   800  TBH800      0.1379
     34  C40       13.4790   16.2450   40.0710 C.3   800  TBH800      0.0437
     35  C39       15.7750   17.1140   40.6150 C.3   800  TBH800      0.0437
     36  C41       14.7590   17.6360   38.4070 C.3   800  TBH800      0.0437
     37  C28       16.8650   10.9320   38.5130 C.3   800  TBH800      0.0575
     38  C29       15.5970   10.3690   37.9250 C.ar  800  TBH800     -0.0200
     39  C30       14.8080    9.5090   38.6740 C.ar  800  TBH800     -0.0042
     40  C31       13.6690    8.9820   38.1070 C.ar  800  TBH800     -0.0003
     41  C32       13.2820    9.2970   36.8220 C.ar  800  TBH800     -0.0000
     42  C33       14.0640   10.1560   36.0810 C.ar  800  TBH800     -0.0003
     43  C34       15.2350   10.6720   36.6270 C.ar  800  TBH800     -0.0042
@<TRIPOS>BOND
     1    42    43   ar
     2    42    41   ar
     3    43    38   ar
     4    41    40   ar
     5    38    37    1
     6    38    39   ar
     7    40    39   ar
     8    36    33    1
     9    37    28    1
    10    32    33    1
    11    32    30    1
    12    29    28    1
    13    29    30   am
    14    33    34    1
    15    33    35    1
    16    28    26    1
    17    30    31    2
    18    27    26    2
    19    26    25   am
    20    24    17    2
    21    19    18    1
    22    19    20    1
    23    17    18   am
    24    17    16    1
    25    25    16    1
    26    23    22    1
    27    16    15    1
    28    20    21    1
    29    22    21    1
    30    15    14    1
    31     1     2   ar
    32     5    14   ar
    33     5     4   ar
    34    14    13   ar
    35     2     4    1
    36     2     3   ar
    37     4     6   ar
    38    13    12   ar
    39     6    12   ar
    40     6     7    1
    41     8     7    1
    42     8     9    1
    43    10     9   ar
    44     9    11   ar
