@<TRIPOS>MOLECULE
1jf9_PLP_A_1.pdb
 15 15 0 0 0
SMALL
GASTEIGER

@<TRIPOS>ATOM
      1  N1        26.1890   45.9940    7.7640 N.ar  500  PLP500     -0.2452
      2  C2        26.2050   47.3110    8.1080 C.ar  500  PLP500      0.0978
      3  C2A       25.3880   47.8840    9.2600 C.3   500  PLP500      0.0555
      4  C3        27.0060   48.1090    7.3230 C.ar  500  PLP500      0.2049
      5  O3        27.0930   49.4290    7.5540 O.3   500  PLP500     -0.2857
      6  C4        27.7360   47.4940    6.2900 C.ar  500  PLP500      0.0182
      7  C4A       28.6180   48.4070    5.4170 C.3   500  PLP500      0.0342
      8  C5        27.6730   46.1090    5.9800 C.ar  500  PLP500      0.0261
      9  C6        26.8730   45.3590    6.7780 C.ar  500  PLP500      0.0965
     10  C5A       28.4820   45.5170    4.8400 C.3   500  PLP500      0.1815
     11  O4P       29.9160   45.6270    4.9730 O.3   500  PLP500     -0.2653
     12  P         30.8210   45.2060    3.7560 P.3   500  PLP500      0.5329
     13  O1P       30.7800   43.7350    3.6720 O.3   500  PLP500     -0.1145
     14  O2P       32.1620   45.7550    4.3380 O.3   500  PLP500     -0.1145
     15  O3P       30.4150   45.9110    2.5260 O.2   500  PLP500     -0.2224
@<TRIPOS>BOND
     1    15    12    2
     2    13    12    1
     3    12    14    1
     4    12    11    1
     5    10    11    1
     6    10     8    1
     7     7     6    1
     8     8     6   ar
     9     8     9   ar
    10     6     4   ar
    11     9     1   ar
    12     4     5    1
    13     4     2   ar
    14     1     2   ar
    15     2     3    1
