@<TRIPOS>MOLECULE
1jff_GDP_B_1.pdb
 28 30 0 0 0
SMALL
GASTEIGER

@<TRIPOS>ATOM
      1  PB       -16.8050    2.6820    5.3850 P.3   600  GDP600      0.5373
      2  O1B      -15.6370    3.5810    5.3250 O.3   600  GDP600     -0.1143
      3  O2B      -16.9920    1.9960    6.5890 O.3   600  GDP600     -0.1143
      4  O3B      -18.1200    3.5140    4.8840 O.2   600  GDP600     -0.2221
      5  O3A      -16.5370    1.5500    4.3230 O.3   600  GDP600     -0.2261
      6  PA       -16.4590   -0.1090    4.5160 P.3   600  GDP600      0.2231
      7  O1A      -15.2770   -0.4450    5.3580 O.3   600  GDP600     -0.4370
      8  O2A      -17.8050   -0.5340    5.0790 O.2   600  GDP600     -0.5169
      9  O5'      -16.1730   -0.5640    3.0570 O.3   600  GDP600     -0.3111
     10  C5'      -16.5210   -1.9060    2.6000 C.3   600  GDP600      0.1813
     11  C4'      -15.4080   -2.6850    2.0860 C.3   600  GDP600      0.1799
     12  O4'      -14.4470   -2.9200    3.1900 O.3   600  GDP600     -0.3326
     13  C3'      -15.7570   -4.1580    1.6640 C.3   600  GDP600      0.2158
     14  O3'      -14.9460   -4.4360    0.4650 O.3   600  GDP600     -0.2175
     15  C2'      -15.3130   -5.1280    2.7850 C.3   600  GDP600      0.2310
     16  O2'      -14.8600   -6.4460    2.4320 O.3   600  GDP600     -0.2158
     17  C1'      -14.1820   -4.3630    3.4690 C.3   600  GDP600      0.2293
     18  N9       -14.1230   -4.5330    4.9210 N.pl3 600  GDP600     -0.2354
     19  C8       -15.1890   -3.9070    5.7750 C.3   600  GDP600      0.2246
     20  N7       -14.6200   -4.3710    6.9740 N.2   600  GDP600     -0.2322
     21  C5       -13.5090   -5.1000    6.9600 C.2   600  GDP600      0.2182
     22  C6       -12.5580   -5.7960    7.7360 C.1   600  GDP600      0.2372
     23  O6       -12.7430   -5.7630    9.0670 O.2   600  GDP600     -0.2069
     24  N1       -11.4850   -6.4480    7.2360 N.2   600  GDP600     -0.2485
     25  C2       -11.2930   -6.4580    5.7610 C.1   600  GDP600      0.2531
     26  N2       -10.2110   -7.1600    5.5010 N.pl3 600  GDP600     -0.0226
     27  N3       -12.1220   -5.8680    5.0050 N.2   600  GDP600     -0.3074
     28  C4       -13.1560   -5.2020    5.5520 C.2   600  GDP600      0.2300
@<TRIPOS>BOND
     1    14    13    1
     2    13    11    1
     3    13    15    1
     4    11    10    1
     5    11    12    1
     6    16    15    1
     7    10     9    1
     8    15    17    1
     9     9     6    1
    10    12    17    1
    11    17    18    1
    12     5     6    1
    13     5     1    1
    14     6     8    2
    15     6     7    1
    16     4     1    2
    17    18    28    1
    18    18    19    1
    19    27    28    2
    20    27    25    2
    21     2     1    1
    22     1     3    1
    23    26    25    1
    24    28    21    1
    25    25    24    2
    26    19    20    1
    27    21    20    2
    28    21    22    1
    29    24    22    2
    30    22    23    2
