@<TRIPOS>MOLECULE
1jff_GTP_A_1.pdb
 32 34 0 0 0
SMALL
GASTEIGER

@<TRIPOS>ATOM
      1  PG        22.7530    3.6240    5.0970 P.3   500  GTP500      0.5373
      2  O1G       22.0360    2.8000    6.1470 O.3   500  GTP500     -0.1143
      3  O2G       22.4410    5.1220    5.2100 O.3   500  GTP500     -0.1143
      4  O3G       22.3170    3.2650    3.6800 O.2   500  GTP500     -0.2221
      5  O3B       24.3510    3.2600    5.3490 O.3   500  GTP500     -0.2258
      6  PB        25.0240    1.7550    5.3180 P.3   500  GTP500      0.2277
      7  O1B       25.3020    1.2880    6.6690 O.3   500  GTP500     -0.4368
      8  O2B       26.1770    1.8520    4.3320 O.2   500  GTP500     -0.5168
      9  O3A       24.0010    0.8900    4.5810 O.3   500  GTP500     -0.2700
     10  PA        23.7760   -0.6060    4.3830 P.3   500  GTP500      0.2189
     11  O1A       22.5350   -0.7680    3.5730 O.2   500  GTP500     -0.5170
     12  O2A       23.8100   -1.3410    5.6620 O.3   500  GTP500     -0.4371
     13  O5'       25.0290   -1.0510    3.4140 O.3   500  GTP500     -0.3112
     14  C5'       25.0170   -2.4320    3.0990 C.3   500  GTP500      0.1813
     15  C4'       26.1210   -2.9150    2.2140 C.3   500  GTP500      0.1799
     16  O4'       27.2790   -3.2910    3.0030 O.3   500  GTP500     -0.3326
     17  C3'       25.6610   -4.1800    1.5260 C.3   500  GTP500      0.2158
     18  O3'       26.3600   -4.3460    0.3130 O.3   500  GTP500     -0.2175
     19  C2'       25.9920   -5.2410    2.5640 C.3   500  GTP500      0.2310
     20  O2'       26.2000   -6.4970    1.9120 O.3   500  GTP500     -0.2158
     21  C1'       27.2710   -4.7090    3.2290 C.3   500  GTP500      0.2293
     22  N9        27.3770   -4.9400    4.6800 N.pl3 500  GTP500     -0.2354
     23  C8        26.4960   -4.5280    5.6500 C.3   500  GTP500      0.2246
     24  N7        26.8490   -4.8770    6.8570 N.2   500  GTP500     -0.2322
     25  C5        28.0210   -5.5720    6.6830 C.2   500  GTP500      0.2182
     26  C6        28.8510   -6.1940    7.6140 C.1   500  GTP500      0.2372
     27  O6        28.6880   -6.2280    8.8310 O.2   500  GTP500     -0.2069
     28  N1        29.9830   -6.8080    7.0330 N.2   500  GTP500     -0.2485
     29  C2        30.2630   -6.8190    5.6840 C.1   500  GTP500      0.2531
     30  N2        31.3450   -7.4430    5.3170 N.pl3 500  GTP500     -0.0226
     31  N3        29.4760   -6.2380    4.7790 N.2   500  GTP500     -0.3074
     32  C4        28.3780   -5.6260    5.3310 C.2   500  GTP500      0.2300
@<TRIPOS>BOND
     1    18    17    1
     2    17    15    1
     3    17    19    1
     4    20    19    1
     5    15    16    1
     6    15    14    1
     7    19    21    1
     8    16    21    1
     9    14    13    1
    10    21    22    1
    11    13    10    1
    12    11    10    2
    13     4     1    2
    14     8     6    2
    15    10     9    1
    16    10    12    1
    17     9     6    1
    18    22    32    1
    19    22    23    1
    20    31    32    2
    21    31    29    2
    22     1     3    1
    23     1     5    1
    24     1     2    1
    25    30    29    1
    26     6     5    1
    27     6     7    1
    28    32    25    1
    29    23    24    1
    30    29    28    2
    31    25    24    2
    32    25    26    1
    33    28    26    2
    34    26    27    2
