@<TRIPOS>MOLECULE
1jfh_GLC_A_1.pdb
 11 11 0 0 0
SMALL
GASTEIGER

@<TRIPOS>ATOM
      1  C1        -2.7620   45.3090   11.5240 C.3   993  GLC993      0.1777
      2  C2        -1.8510   46.4600   11.9450 C.3   993  GLC993      0.2141
      3  C3        -0.8410   45.9700   12.9740 C.3   993  GLC993      0.2173
      4  C4        -1.6070   45.3880   14.1600 C.3   993  GLC993      0.2142
      5  C5        -2.4950   44.2480   13.6690 C.3   993  GLC993      0.1810
      6  C6        -3.3350   43.6260   14.7680 C.3   993  GLC993      0.2141
      7  O2        -1.1660   46.9810   10.8130 O.3   993  GLC993     -0.2176
      8  O3        -0.0190   47.0530   13.3920 O.3   993  GLC993     -0.2175
      9  O4        -0.7100   44.9160   15.1510 O.3   993  GLC993     -0.2176
     10  O5        -3.4040   44.7390   12.6600 O.3   993  GLC993     -0.3481
     11  O6        -4.2920   42.7240   14.2320 O.3   993  GLC993     -0.2176
@<TRIPOS>BOND
     1     7     2    1
     2     1     2    1
     3     1    10    1
     4     2     3    1
     5    10     5    1
     6     3     8    1
     7     3     4    1
     8     5     4    1
     9     5     6    1
    10     4     9    1
    11    11     6    1
