@<TRIPOS>MOLECULE
1jfh_MA3_A_1.pdb
 13 13 0 0 0
SMALL
GASTEIGER

@<TRIPOS>ATOM
      1  C1        -2.5600   43.0970   18.8850 C.3   992  MA3992      0.2694
      2  C2        -3.0190   41.6780   18.5080 C.3   992  MA3992      0.2389
      3  C3        -4.5380   41.6070   18.3430 C.3   992  MA3992      0.2003
      4  C4        -5.2450   42.1520   19.5860 C.3   992  MA3992      0.1208
      5  C5        -4.7040   43.5570   19.8750 C.3   992  MA3992      0.1639
      6  C6        -5.2770   44.2090   21.1200 C.3   992  MA3992      0.2125
      7  C7        -2.5540   45.3920   18.0990 C.3   992  MA3992      0.1769
      8  O1        -2.8460   43.9980   17.8150 O.3   992  MA3992     -0.3259
      9  O2        -2.3920   41.2530   17.3060 O.3   992  MA3992     -0.2149
     10  O3        -4.9340   40.2600   18.1230 O.3   992  MA3992     -0.2192
     11  S4        -7.0590   42.1610   19.3180 S.3   992  MA3992     -0.0776
     12  O5        -3.2750   43.5090   20.0410 O.3   992  MA3992     -0.3274
     13  O6        -4.9180   43.4960   22.2900 O.3   992  MA3992     -0.2177
@<TRIPOS>BOND
     1     9     2    1
     2     8     7    1
     3     8     1    1
     4    10     3    1
     5     3     2    1
     6     3     4    1
     7     2     1    1
     8     1    12    1
     9    11     4    1
    10     4     5    1
    11     5    12    1
    12     5     6    1
    13     6    13    1
