@<TRIPOS>MOLECULE
1jfh_MA2_A_1.pdb
 12 12 0 0 0
SMALL
GASTEIGER

@<TRIPOS>ATOM
      1  C1        -7.7630   41.7280   20.9390 C.3   991  MA2991      0.1776
      2  C2        -8.7000   40.5230   20.8400 C.3   991  MA2991      0.2124
      3  C3        -9.9900   40.9060   20.1030 C.3   991  MA2991      0.1969
      4  C4       -10.6350   42.1250   20.7640 C.3   991  MA2991      0.1104
      5  C5        -9.6030   43.2570   20.8020 C.3   991  MA2991      0.1606
      6  C6       -10.1120   44.5210   21.4700 C.3   991  MA2991      0.2123
      7  C7       -11.7110   42.8030   18.2010 C.3   991  MA2991      0.0693
      8  O2        -8.0500   39.4700   20.1440 O.3   991  MA2991     -0.2177
      9  O3       -10.8980   39.8140   20.1240 O.3   991  MA2991     -0.2193
     10  S4       -12.2020   42.6460   19.9550 S.3   991  MA2991     -0.1350
     11  O5        -8.4440   42.8240   21.5340 O.3   991  MA2991     -0.3498
     12  O6       -10.5330   44.2630   22.8010 O.3   991  MA2991     -0.2177
@<TRIPOS>BOND
     1     7    10    1
     2    10     4    1
     3     3     9    1
     4     3     4    1
     5     3     2    1
     6     8     2    1
     7     4     5    1
     8     5     6    1
     9     5    11    1
    10     2     1    1
    11     1    11    1
    12     6    12    1
