@<TRIPOS>MOLECULE
1jfh_MA1_A_1.pdb
 12 12 0 0 0
SMALL
GASTEIGER

@<TRIPOS>ATOM
      1  C1        -2.7530   43.5760    6.0470 C.3   994  MA1994      0.2050
      2  C2        -2.1600   44.9290    6.4930 C.3   994  MA1994      0.2210
      3  C3        -1.5610   44.8430    7.9000 C.3   994  MA1994      0.1986
      4  C4        -2.5670   44.2600    8.8850 C.3   994  MA1994      0.1206
      5  C5        -3.0540   42.9200    8.3300 C.3   994  MA1994      0.1625
      6  C6        -4.0730   42.2310    9.2200 C.3   994  MA1994      0.2124
      7  S1        -1.4630   42.3130    5.9410 S.3   994  MA1994     -0.0481
      8  O2        -1.1510   45.3450    5.5840 O.3   994  MA1994     -0.2168
      9  O3        -1.1660   46.1390    8.3320 O.3   994  MA1994     -0.2193
     10  S4        -1.8370   44.0720   10.5590 S.3   994  MA1994     -0.0777
     11  O5        -3.6760   43.1190    7.0450 O.3   994  MA1994     -0.3407
     12  O6        -5.1980   43.0620    9.4530 O.3   994  MA1994     -0.2177
@<TRIPOS>BOND
     1     8     2    1
     2     7     1    1
     3     1     2    1
     4     1    11    1
     5     2     3    1
     6    11     5    1
     7     3     9    1
     8     3     4    1
     9     5     4    1
    10     5     6    1
    11     4    10    1
    12     6    12    1
