@<TRIPOS>MOLECULE
1jfp_RET_A_1.pdb
 48 48 0 0 0
SMALL
GASTEIGER

@<TRIPOS>ATOM
      1  C1         9.3410   -7.8840    0.4930 C.3   400  RET400     -0.0099
      2  C2         9.3850   -9.0830   -0.4900 C.3   400  RET400     -0.0436
      3  C3        10.7860   -9.3020   -1.0380 C.3   400  RET400     -0.0486
      4  C4        11.2300   -8.0800   -1.8310 C.3   400  RET400     -0.0314
      5  C5        10.9280   -6.7640   -1.1490 C.2   400  RET400     -0.0689
      6  C6        10.1090   -6.6710   -0.0720 C.2   400  RET400     -0.0427
      7  C7         9.9280   -5.3910    0.6070 C.2   400  RET400     -0.0579
      8  C8         9.0260   -4.4740    0.2230 C.2   400  RET400     -0.0586
      9  C9         8.8240   -3.1390    0.7830 C.2   400  RET400     -0.0504
     10  C10        7.6520   -2.5210    0.5320 C.2   400  RET400     -0.0588
     11  C11        7.2700   -1.1750    0.8980 C.2   400  RET400     -0.0613
     12  C12        6.0330   -0.6660    1.0470 C.2   400  RET400     -0.0591
     13  C13        4.7150   -1.3110    1.0460 C.2   400  RET400     -0.0541
     14  C14        3.6240   -0.5220    0.9830 C.2   400  RET400     -0.0769
     15  C15        2.2390   -1.0300    1.0780 C.3   400  RET400     -0.0087
     16  C16        9.9660   -8.3270    1.8250 C.3   400  RET400     -0.0558
     17  C17        7.8500   -7.5550    0.7300 C.3   400  RET400     -0.0558
     18  C18       11.6490   -5.6020   -1.7760 C.3   400  RET400     -0.0432
     19  C19        9.9590   -2.5340    1.5670 C.3   400  RET400     -0.0397
     20  C20        4.6320   -2.7970    1.2540 C.3   400  RET400     -0.0400
     21  H21        8.6960   -8.9050   -1.3280 H     400  RET400      0.0274
     22  H22        9.0370   -9.9990    0.0040 H     400  RET400      0.0274
     23  H31       10.8100  -10.1920   -1.6710 H     400  RET400      0.0269
     24  H32       11.4940   -9.4940   -0.2250 H     400  RET400      0.0269
     25  H41       12.3050   -8.1690   -2.0190 H     400  RET400      0.0310
     26  H42       10.7430   -8.0660   -2.8110 H     400  RET400      0.0310
     27  H7        10.5960   -5.2180    1.4480 H     400  RET400      0.0621
     28  H8         8.3600   -4.7340   -0.5970 H     400  RET400      0.0620
     29  H10        6.9070   -3.0600   -0.0480 H     400  RET400      0.0620
     30  H11        8.0980   -0.4790    1.0110 H     400  RET400      0.0618
     31  H12        6.0050    0.4080    1.2470 H     400  RET400      0.0620
     32  H14        3.7380    0.5550    0.8780 H     400  RET400      0.0578
     33  H15        2.0650   -2.1100    0.9840 H     400  RET400      0.0355
     34 H161        9.8640   -7.5500    2.5780 H     400  RET400      0.0238
     35 H162        9.4720   -9.2230    2.2160 H     400  RET400      0.0238
     36 H163       11.0360   -8.5400    1.7340 H     400  RET400      0.0238
     37 H171        7.3860   -7.1300   -0.1670 H     400  RET400      0.0238
     38 H172        7.7090   -6.8440    1.5530 H     400  RET400      0.0238
     39 H173        7.2870   -8.4580    0.9860 H     400  RET400      0.0238
     40 H181       11.2030   -5.3800   -2.7520 H     400  RET400      0.0275
     41 H182       12.7050   -5.8410   -1.9320 H     400  RET400      0.0275
     42 H183       11.6190   -4.6920   -1.1730 H     400  RET400      0.0275
     43 H191       10.8170   -2.3610    0.9090 H     400  RET400      0.0278
     44 H192       10.2790   -3.1910    2.3760 H     400  RET400      0.0278
     45 H193        9.6950   -1.5850    2.0380 H     400  RET400      0.0278
     46 H201        3.7450   -3.0890    1.8220 H     400  RET400      0.0277
     47 H202        5.4760   -3.1610    1.8420 H     400  RET400      0.0277
     48 H203        4.6170   -3.3240    0.2960 H     400  RET400      0.0277
@<TRIPOS>BOND
     1    26     4    1
     2    40    18    1
     3    25     4    1
     4    41    18    1
     5     4     5    1
     6     4     3    1
     7    18    42    1
     8    18     5    1
     9    23     3    1
    10    21     2    1
    11     5     6    2
    12     3     2    1
    13     3    24    1
    14    28     8    1
    15     2    22    1
    16     2     1    1
    17    37    17    1
    18     6     1    1
    19     6     7    1
    20    29    10    1
    21     8     7    2
    22     8     9    1
    23    48    20    1
    24     1    17    1
    25     1    16    1
    26    10     9    2
    27    10    11    1
    28     7    27    1
    29    17    39    1
    30    17    38    1
    31     9    19    1
    32    32    14    1
    33    11    30    1
    34    11    12    2
    35    43    19    1
    36    14    13    2
    37    14    15    1
    38    33    15    1
    39    13    12    1
    40    13    20    1
    41    12    31    1
    42    20    46    1
    43    20    47    1
    44    19    45    1
    45    19    44    1
    46    36    16    1
    47    16    35    1
    48    16    34    1
