@<TRIPOS>MOLECULE
1jfs_HPA_A_1.pdb
 10 11 0 0 0
SMALL
GASTEIGER

@<TRIPOS>ATOM
      1  N1        56.6290    2.4290  -11.3040 N.2   599  HPA599     -0.1726
      2  C2        57.3790    2.3110  -10.1560 C.3   599  HPA599      0.2725
      3  N3        58.1120    3.2850   -9.6280 N.2   599  HPA599     -0.1902
      4  C4        58.0390    4.4220  -10.3590 C.1   599  HPA599      0.0598
      5  C5        57.3200    4.6430  -11.5120 C.2   599  HPA599      0.2226
      6  C6        56.5360    3.5930  -12.0580 C.1   599  HPA599      0.1796
      7  O6        55.8340    3.6000  -13.0800 O.2   599  HPA599     -0.2200
      8  N7        57.5180    5.9440  -11.9570 N.2   599  HPA599     -0.2230
      9  C8        58.3180    6.4730  -11.0740 C.3   599  HPA599      0.2622
     10  N9        58.6610    5.6150  -10.0610 N.2   599  HPA599     -0.1910
@<TRIPOS>BOND
     1     7     6    2
     2     6     5    1
     3     6     1    2
     4     8     5    2
     5     8     9    1
     6     5     4    1
     7     1     2    1
     8     9    10    1
     9     4    10    2
    10     4     3    2
    11     2     3    1
