@<TRIPOS>MOLECULE
1jft_HPA_A_1.pdb
 10 11 0 0 0
SMALL
GASTEIGER

@<TRIPOS>ATOM
      1  N1        57.0600    2.6010  -11.0250 N.2   599  HPA599     -0.1726
      2  C2        57.8230    2.6570   -9.8780 C.3   599  HPA599      0.2725
      3  N3        58.4040    3.7580   -9.4220 N.2   599  HPA599     -0.1902
      4  C4        58.1980    4.7940  -10.2660 C.1   599  HPA599      0.0598
      5  C5        57.4640    4.8380  -11.4340 C.2   599  HPA599      0.2226
      6  C6        56.8050    3.6680  -11.8800 C.1   599  HPA599      0.1796
      7  O6        56.0850    3.4990  -12.8790 O.2   599  HPA599     -0.2200
      8  N7        57.4970    6.1160  -11.9870 N.2   599  HPA599     -0.2230
      9  C8        58.2340    6.8020  -11.1580 C.3   599  HPA599      0.2622
     10  N9        58.6900    6.0640  -10.0920 N.2   599  HPA599     -0.1910
@<TRIPOS>BOND
     1     7     6    2
     2     8     5    2
     3     8     9    1
     4     6     5    1
     5     6     1    2
     6     5     4    1
     7     9    10    1
     8     1     2    1
     9     4    10    2
    10     4     3    2
    11     2     3    1
