@<TRIPOS>MOLECULE
1jg0_UMP_A_1.pdb
 20 21 0 0 0
SMALL
GASTEIGER

@<TRIPOS>ATOM
      1  N1        15.0790   37.7470   23.1850 N.am  303  UMP303     -0.1790
      2  C2        13.7460   38.0510   23.1100 C.1   303  UMP303      0.2844
      3  N3        13.3970   39.4070   23.2760 N.2   303  UMP303     -0.2452
      4  C4        14.3390   40.3790   23.5380 C.1   303  UMP303      0.2182
      5  C5        15.8310   40.1570   23.6720 C.2   303  UMP303      0.1242
      6  C6        16.1900   38.7000   23.4560 C.2   303  UMP303      0.0928
      7  O2        12.8870   37.1700   22.9410 O.2   303  UMP303     -0.1918
      8  O4        14.0130   41.6790   23.8290 O.2   303  UMP303     -0.2085
      9  C1'       15.4740   36.3270   23.3870 C.3   303  UMP303      0.2090
     10  C2'       15.7050   35.6730   22.0000 C.3   303  UMP303      0.0874
     11  C3'       16.7470   34.6160   22.3290 C.3   303  UMP303      0.1857
     12  C4'       17.6150   35.3800   23.3290 C.3   303  UMP303      0.1774
     13  O3'       16.1140   33.5400   23.0010 O.3   303  UMP303     -0.2203
     14  O4'       16.7550   36.3180   24.0040 O.3   303  UMP303     -0.3339
     15  C5'       18.6770   36.1480   22.5260 C.3   303  UMP303      0.1858
     16  O5'       19.5020   35.1420   21.9530 O.3   303  UMP303     -0.2675
     17  P         20.1620   35.1320   20.4460 P.3   303  UMP303      0.5327
     18  OP1       21.0050   33.9040   20.3650 O.3   303  UMP303     -0.1145
     19  OP2       19.0200   35.0250   19.4690 O.2   303  UMP303     -0.2224
     20  OP3       20.9750   36.3600   20.3170 O.3   303  UMP303     -0.1145
@<TRIPOS>BOND
     1    19    17    2
     2    20    17    1
     3    18    17    1
     4    17    16    1
     5    16    15    1
     6    10    11    1
     7    10     9    1
     8    11    13    1
     9    11    12    1
    10    15    12    1
    11     7     2    2
    12     2     1   am
    13     2     3    2
    14     1     9    1
    15     1     6    1
    16     3     4    2
    17    12    14    1
    18     9    14    1
    19     6     5    2
    20     4     5    1
    21     4     8    2
