@<TRIPOS>MOLECULE
1jg0_DDT_A_1.pdb
 45 49 0 0 0
SMALL
GASTEIGER

@<TRIPOS>ATOM
      1  C1        13.9830   41.8330   29.3520 C.ar  304  DDT304      0.0479
      2  C2        15.2560   41.3150   29.6180 C.ar  304  DDT304      0.0145
      3  C3        15.7020   41.0970   30.9530 C.ar  304  DDT304      0.0013
      4  C4        14.8590   41.3660   32.0220 C.ar  304  DDT304      0.0014
      5  C4A       13.5370   41.8970   31.8090 C.ar  304  DDT304      0.0199
      6  C5        12.6520   42.2210   32.9210 C.ar  304  DDT304      0.1236
      7  C6        11.4210   42.8180   32.6860 C.ar  304  DDT304      0.0200
      8  C7        10.9990   43.1270   31.3620 C.ar  304  DDT304      0.0014
      9  C8        11.8240   42.8190   30.2930 C.ar  304  DDT304      0.0013
     10  C8A       13.1040   42.1850   30.4630 C.ar  304  DDT304      0.0146
     11  C9        12.3400   41.3470   27.5670 C.3   304  DDT304      0.1122
     12  C10       14.5990   42.0310   26.8960 C.3   304  DDT304      0.1122
     13  N1        13.5710   42.0360   27.9850 N.pl3 304  DDT304     -0.3041
     14  C11       12.4110   39.0360   34.4540 C.3   304  DDT304      0.2045
     15  C12       11.8110   38.8200   35.8260 C.2   304  DDT304      0.3825
     16  C13       12.9860   37.6870   33.9070 C.3   304  DDT304      0.0572
     17  C14       13.4480   37.8350   32.4740 C.ar  304  DDT304     -0.0200
     18  C15       12.4970   38.2230   31.4990 C.ar  304  DDT304     -0.0010
     19  C16       12.8660   38.3630   30.1530 C.ar  304  DDT304      0.0395
     20  C17       14.2070   38.1020   29.7920 C.ar  304  DDT304      0.1717
     21  C18       15.1770   37.7430   30.7560 C.ar  304  DDT304      0.0395
     22  C19       14.7910   37.6050   32.1040 C.ar  304  DDT304     -0.0010
     23  S         13.0250   41.8010   34.6140 S.O2  304  DDT304      0.0773
     24  O1        11.7650   42.0190   35.3520 O.2   304  DDT304     -0.1516
     25  O2        14.2220   42.5620   35.0670 O.2   304  DDT304     -0.1516
     26  N         13.4440   40.1390   34.5380 N.3   304  DDT304     -0.0674
     27  OC1       12.5550   38.2550   36.6640 O.co2 304  DDT304     -0.2440
     28  OC2       10.6790   39.3120   36.0330 O.co2 304  DDT304     -0.2440
     29  O         14.6470   38.3550   28.4840 O.3   304  DDT304     -0.3572
     30  S'        14.2990   37.4700   27.1650 S.3   304  DDT304      0.0506
     31  O1'       14.2870   38.2930   25.9810 O.3   304  DDT304     -0.0570
     32  O2'       13.0950   36.6140   27.3590 O.3   304  DDT304     -0.0570
     33  C1'       19.4390   36.7070   26.5210 C.ar  304  DDT304      0.0479
     34  C2'       19.5460   38.0970   26.3910 C.ar  304  DDT304      0.0145
     35  C3'       18.4210   38.9440   26.4750 C.ar  304  DDT304      0.0013
     36  C4'       17.1830   38.3920   26.7250 C.ar  304  DDT304      0.0014
     37  C4X       17.0280   36.9720   26.8920 C.ar  304  DDT304      0.0197
     38  C5'       15.7260   36.4010   27.1220 C.ar  304  DDT304      0.1203
     39  C6'       15.5680   35.0360   27.1630 C.ar  304  DDT304      0.0198
     40  C7'       16.6820   34.1710   26.9670 C.ar  304  DDT304      0.0014
     41  C8'       17.9410   34.6830   26.7490 C.ar  304  DDT304      0.0013
     42  C8X       18.1540   36.1010   26.7380 C.ar  304  DDT304      0.0146
     43  C9'       21.7970   36.4240   25.6360 C.3   304  DDT304      0.1122
     44  CA'       20.9820   34.7810   27.3410 C.3   304  DDT304      0.1122
     45  N1'       20.6620   35.9490   26.4710 N.pl3 304  DDT304     -0.3041
@<TRIPOS>BOND
     1    43    45    1
     2    31    30    1
     3    34    35   ar
     4    34    33   ar
     5    45    33    1
     6    45    44    1
     7    35    36   ar
     8    33    42   ar
     9    36    37   ar
    10    42    41   ar
    11    42    37   ar
    12    41    40   ar
    13    37    38   ar
    14    12    13    1
    15    40    39   ar
    16    38    39   ar
    17    38    30    1
    18    30    32    1
    19    30    29    1
    20    11    13    1
    21    13     1    1
    22    29    20    1
    23     1     2   ar
    24     1    10   ar
    25     2     3   ar
    26    20    19   ar
    27    20    21   ar
    28    19    18   ar
    29     9    10   ar
    30     9     8   ar
    31    10     5   ar
    32    21    22   ar
    33     3     4   ar
    34     8     7   ar
    35    18    17   ar
    36     5     4   ar
    37     5     6   ar
    38    22    17   ar
    39    17    16    1
    40     7     6   ar
    41     6    23    1
    42    16    14    1
    43    14    26    1
    44    14    15    1
    45    26    23    1
    46    23    25    2
    47    23    24    2
    48    15    28   ar
    49    15    27   ar
