@<TRIPOS>MOLECULE
1jg1_SAH_A_1.pdb
 26 28 0 0 0
SMALL
GASTEIGER

@<TRIPOS>ATOM
      1  N         33.4970   48.1890   12.9790 N.3   500  SAH500     -0.1208
      2  CA        32.4040   49.2220   13.2430 C.3   500  SAH500      0.1952
      3  CB        32.3830   49.9520   14.5450 C.3   500  SAH500      0.0422
      4  CG        32.0790   49.2170   15.8330 C.3   500  SAH500      0.0597
      5  SD        30.2890   48.7930   15.7710 S.3   500  SAH500     -0.1375
      6  C         32.5030   50.2700   12.0710 C.2   500  SAH500      0.3819
      7  O         33.4440   50.1910   11.2590 O.co2 500  SAH500     -0.2441
      8  OXT       31.6550   51.2390   12.1320 O.co2 500  SAH500     -0.2441
      9  C5'       30.2720   47.2030   16.4780 C.3   500  SAH500      0.0899
     10  C4'       28.9280   46.4970   16.0300 C.3   500  SAH500      0.1630
     11  O4'       28.9520   45.1790   16.5680 O.3   500  SAH500     -0.3153
     12  C3'       27.6400   47.1180   16.4590 C.3   500  SAH500      0.2168
     13  O3'       27.0000   47.7230   15.3430 O.3   500  SAH500     -0.2175
     14  C2'       26.8380   45.8730   17.0050 C.3   500  SAH500      0.2569
     15  O2'       25.4700   45.9090   16.6270 O.3   500  SAH500     -0.2130
     16  C1'       27.5850   44.6670   16.4280 C.3   500  SAH500      0.3185
     17  N9        27.3850   43.5360   17.0630 N.pl3 500  SAH500     -0.1439
     18  C8        27.1720   43.1810   18.3720 C.3   500  SAH500      0.3377
     19  N7        27.1190   41.9000   18.5790 N.2   500  SAH500     -0.2095
     20  C5        27.3150   41.3230   17.2870 C.2   500  SAH500      0.2526
     21  C6        27.1610   39.9790   16.8290 C.2   500  SAH500      0.4393
     22  N6        26.9890   38.9220   17.6330 N.pl3 500  SAH500      0.2180
     23  N1        27.4150   39.8220   15.5090 N.2   500  SAH500      0.0021
     24  C2        27.5710   40.8550   14.6620 C.3   500  SAH500      0.5254
     25  N3        27.5840   42.1580   15.0380 N.2   500  SAH500     -0.0055
     26  C4        27.4460   42.3100   16.3630 C.2   500  SAH500      0.3518
@<TRIPOS>BOND
     1     7     6   ar
     2     6     8   ar
     3     6     2    1
     4     1     2    1
     5     2     3    1
     6     3     4    1
     7    24    25    1
     8    24    23    1
     9    25    26    2
    10    13    12    1
    11    23    21    2
    12     5     4    1
    13     5     9    1
    14    10    12    1
    15    10     9    1
    16    10    11    1
    17    26    17    1
    18    26    20    1
    19    16    11    1
    20    16    14    1
    21    16    17    1
    22    12    14    1
    23    15    14    1
    24    21    20    1
    25    21    22    1
    26    17    18    1
    27    20    19    2
    28    18    19    1
