@<TRIPOS>MOLECULE
1jg2_ADN_A_1.pdb
 19 21 0 0 0
SMALL
GASTEIGER

@<TRIPOS>ATOM
      1  O5'       29.9540   47.8820   15.5170 O.3   500  ADN500     -0.2176
      2  C5'       29.1730   47.3390   16.5640 C.3   500  ADN500      0.2143
      3  C4'       27.8530   46.6430   16.0480 C.3   500  ADN500      0.1851
      4  O4'       27.9280   45.3760   16.7290 O.3   500  ADN500     -0.3134
      5  C3'       26.5280   47.1890   16.4990 C.3   500  ADN500      0.2186
      6  O3'       25.9080   47.7980   15.4260 O.3   500  ADN500     -0.2174
      7  C2'       25.8070   45.9250   17.0750 C.3   500  ADN500      0.2570
      8  O2'       24.4320   45.8980   16.7490 O.3   500  ADN500     -0.2130
      9  C1'       26.5810   44.8220   16.5220 C.3   500  ADN500      0.3186
     10  N9        26.4500   43.6030   17.1620 N.pl3 500  ADN500     -0.1439
     11  C8        26.2580   43.2410   18.4390 C.3   500  ADN500      0.3377
     12  N7        26.1760   41.9440   18.6570 N.2   500  ADN500     -0.2095
     13  C5        26.3310   41.3820   17.3840 C.2   500  ADN500      0.2526
     14  C6        26.3430   40.0300   16.9080 C.2   500  ADN500      0.4393
     15  N6        26.1830   38.9620   17.7120 N.pl3 500  ADN500      0.2180
     16  N1        26.5260   39.8300   15.5560 N.2   500  ADN500      0.0021
     17  C2        26.6880   40.8880   14.7140 C.3   500  ADN500      0.5254
     18  N3        26.6930   42.2140   15.0430 N.2   500  ADN500     -0.0055
     19  C4        26.5100   42.3910   16.4040 C.2   500  ADN500      0.3518
@<TRIPOS>BOND
     1    17    18    1
     2    17    16    1
     3    18    19    2
     4     6     5    1
     5     1     2    1
     6    16    14    2
     7     3     5    1
     8     3     2    1
     9     3     4    1
    10    19    10    1
    11    19    13    1
    12     5     7    1
    13     9     4    1
    14     9     7    1
    15     9    10    1
    16     8     7    1
    17    14    13    1
    18    14    15    1
    19    10    11    1
    20    13    12    2
    21    11    12    1
