@<TRIPOS>MOLECULE
1jg3_ADN_A_1.pdb
 19 21 0 0 0
SMALL
GASTEIGER

@<TRIPOS>ATOM
      1  O5'       44.3300   54.5660   12.8990 O.3   500  ADN500     -0.2176
      2  C5'       45.1360   55.2510   11.9630 C.3   500  ADN500      0.2143
      3  C4'       45.8010   56.5380   12.5710 C.3   500  ADN500      0.1851
      4  O4'       46.4810   57.0710   11.4220 O.3   500  ADN500     -0.3134
      5  C3'       44.9240   57.6730   13.0090 C.3   500  ADN500      0.2186
      6  O3'       44.9220   57.7100   14.3880 O.3   500  ADN500     -0.2174
      7  C2'       45.5680   58.9040   12.2720 C.3   500  ADN500      0.2570
      8  O2'       45.5680   59.9360   12.9550 O.3   500  ADN500     -0.2130
      9  C1'       46.8890   58.4000   11.8970 C.3   500  ADN500      0.3186
     10  N9        47.5480   59.0770   10.8980 N.pl3 500  ADN500     -0.1439
     11  C8        47.1710   59.6670    9.7540 C.3   500  ADN500      0.3377
     12  N7        48.1410   60.2260    9.0570 N.2   500  ADN500     -0.2095
     13  C5        49.2870   59.9750    9.8310 C.2   500  ADN500      0.2526
     14  C6        50.6720   60.3030    9.6650 C.2   500  ADN500      0.4393
     15  N6        51.1340   60.9840    8.6180 N.pl3 500  ADN500      0.2180
     16  N1        51.5530   59.8920   10.6360 N.2   500  ADN500      0.0021
     17  C2        51.1110   59.1950   11.7230 C.3   500  ADN500      0.5254
     18  N3        49.8270   58.8270   11.9950 N.2   500  ADN500     -0.0055
     19  C4        48.9610   59.2510   11.0010 C.2   500  ADN500      0.3518
@<TRIPOS>BOND
     1    15    14    1
     2    12    11    1
     3    12    13    2
     4    14    13    1
     5    14    16    2
     6    11    10    1
     7    13    19    1
     8    16    17    1
     9    10    19    1
    10    10     9    1
    11    19    18    2
    12     4     9    1
    13     4     3    1
    14    17    18    1
    15     9     7    1
    16     2     3    1
    17     2     1    1
    18     7     8    1
    19     7     5    1
    20     3     5    1
    21     5     6    1
