@<TRIPOS>MOLECULE
1jg3_III_C_1.pdb
 50 52 0 0 0
SMALL
GASTEIGER

@<TRIPOS>ATOM
      1  N         28.7370   52.0550    8.3620 N.3     1  VAL1       -0.1231
      2  CA        30.0570   51.4440    8.6970 C.3     1  VAL1        0.1692
      3  C         31.1830   52.4610    8.5500 C.2     1  VAL1        0.2592
      4  O         31.3230   53.0930    7.5020 O.2     1  VAL1       -0.2718
      5  CB        30.3620   50.2460    7.7810 C.3     1  VAL1        0.0266
      6  CG1       31.7210   49.6550    8.1350 C.3     1  VAL1        0.0020
      7  CG2       29.2680   49.1970    7.9210 C.3     1  VAL1        0.0020
      8  N         31.9800   52.6170    9.6030 N.am    2  TYR2       -0.1963
      9  CA        33.0980   53.5590    9.5860 C.3     2  TYR2        0.1756
     10  C         34.2600   53.0470    8.7370 C.2     2  TYR2        0.2461
     11  O         34.4060   51.8430    8.5250 O.2     2  TYR2       -0.2730
     12  CB        33.6130   53.8150   11.0070 C.3     2  TYR2        0.0574
     13  CG        32.6870   54.6240   11.8830 C.ar    2  TYR2       -0.0198
     14  CD1       31.6200   54.0250   12.5470 C.ar    2  TYR2       -0.0009
     15  CD2       32.8720   55.9980   12.0350 C.ar    2  TYR2       -0.0009
     16  CE1       30.7550   54.7740   13.3440 C.ar    2  TYR2        0.0417
     17  CE2       32.0120   56.7570   12.8270 C.ar    2  TYR2        0.0417
     18  CZ        30.9570   56.1380   13.4770 C.ar    2  TYR2        0.1957
     19  OH        30.1070   56.8840   14.2590 O.3     2  TYR2       -0.2866
     20  N         35.0980   53.9620    8.2280 N.am    3  PRO3       -0.2716
     21  CA        36.2420   53.5440    7.4120 C.3     3  PRO3        0.1536
     22  C         37.3420   52.9730    8.3030 C.2     3  PRO3        0.2599
     23  O         37.2140   52.9590    9.5290 O.2     3  PRO3       -0.2715
     24  CB        36.6650   54.8390    6.7210 C.3     3  PRO3        0.0310
     25  CG        36.3150   55.8800    7.7370 C.3     3  PRO3        0.0237
     26  CD        34.9510   55.4280    8.2130 C.3     3  PRO3        0.0939
     27  N         38.2610   51.8880    7.9670 N.am    4  IAS4       -0.1937
     28  CA        39.2590   51.2160    8.8060 C.3     4  IAS4        0.2069
     29  C         40.3010   52.2490    9.2640 C.2     4  IAS4        0.3847
     30  O         40.3160   53.4290    8.6360 O.co2   4  IAS4       -0.2437
     31  CB        39.9530   50.0580    7.9980 C.3     4  IAS4        0.1200
     32  CG        39.0580   48.8370    7.8540 C.2     4  IAS4        0.2441
     33  OD1       38.8530   48.0990    8.8590 O.2     4  IAS4       -0.2733
     34  OXT       41.0780   51.9810   10.1730 O.co2   4  IAS4       -0.2437
     35  N         38.4570   48.7510    6.5240 N.am    5  HIS5       -0.1973
     36  CA        37.8050   47.4620    6.3110 C.3     5  HIS5        0.1783
     37  C         37.8620   47.0820    4.8360 C.2     5  HIS5        0.2621
     38  O         38.2030   47.9060    3.9900 O.2     5  HIS5       -0.2715
     39  CB        36.3370   47.5190    6.7570 C.3     5  HIS5        0.0745
     40  CG        35.4940   48.4450    5.9350 C.2     5  HIS5        0.0653
     41  ND1       35.2360   49.7480    6.3060 N.2     5  HIS5       -0.2310
     42  CD2       34.8760   48.2650    4.7420 C.3     5  HIS5        0.1683
     43  CE1       34.4940   50.3300    5.3790 C.2     5  HIS5        0.1939
     44  NE2       34.2630   49.4520    4.4190 N.2     5  HIS5       -0.2440
     45  N         37.5270   45.8280    4.5410 N.am    6  ALA6       -0.1941
     46  CA        37.5240   45.3210    3.1720 C.3     6  ALA6        0.1979
     47  C         36.1070   45.3270    2.6120 C.2     6  ALA6        0.3842
     48  O         35.8810   46.0120    1.5920 O.co2   6  ALA6       -0.2437
     49  CB        38.0870   43.9110    3.1380 C.3     6  ALA6        0.0356
     50  OXT       35.2400   44.6470    3.2000 O.co2   6  ALA6       -0.2437
@<TRIPOS>BOND
     1    48    47   ar
     2    47    46    1
     3    47    50   ar
     4    49    46    1
     5    46    45    1
     6    38    37    2
     7    44    42    1
     8    44    43    2
     9    45    37   am
    10    42    40    1
    11    37    36    1
    12    43    41    1
    13    40    41    2
    14    40    39    1
    15    36    35    1
    16    36    39    1
    17    35    32   am
    18    24    21    1
    19    24    25    1
    20    21    20    1
    21    21    22    1
    22     4     3    2
    23    25    26    1
    24     5     7    1
    25     5     6    1
    26     5     2    1
    27    32    31    1
    28    32    33    2
    29    27    22   am
    30    27    28    1
    31    31    28    1
    32    26    20    1
    33    20    10   am
    34    22    23    2
    35     1     2    1
    36    11    10    2
    37     3     2    1
    38     3     8   am
    39    30    29   ar
    40    10     9    1
    41    28    29    1
    42    29    34   ar
    43     9     8    1
    44     9    12    1
    45    12    13    1
    46    13    15   ar
    47    13    14   ar
    48    15    17   ar
    49    14    16   ar
    50    17    18   ar
    51    16    18   ar
    52    18    19    1
