@<TRIPOS>MOLECULE
1jg4_SAM_A_1.pdb
 27 29 0 0 0
SMALL
GASTEIGER

@<TRIPOS>ATOM
      1  N         33.5890   48.1470   13.1550 N.3   500  SAM500     -0.1208
      2  CA        32.5780   49.1150   13.3880 C.3   500  SAM500      0.1952
      3  C         32.7100   50.2320   12.3730 C.2   500  SAM500      0.3819
      4  O         33.6140   50.2460   11.4780 O.co2 500  SAM500     -0.2441
      5  OXT       31.8850   51.1610   12.4440 O.co2 500  SAM500     -0.2441
      6  CB        32.7930   49.4160   14.8220 C.3   500  SAM500      0.0418
      7  CG        32.2430   48.8370   16.0660 C.3   500  SAM500      0.0545
      8  SD        30.4520   48.8580   16.4520 S.3   500  SAM500     -0.1532
      9  CE        30.2340   49.6900   17.9730 C.3   500  SAM500      0.0636
     10  C5'       30.2900   47.1140   16.4470 C.2   500  SAM500      0.0569
     11  C4'       29.0440   46.3180   16.4890 C.2   500  SAM500      0.1587
     12  O4'       28.9230   44.9890   16.4950 O.2   500  SAM500     -0.4406
     13  C3'       27.7290   47.0980   16.5430 C.3   500  SAM500      0.2466
     14  O3'       27.3610   47.8130   15.4110 O.3   500  SAM500     -0.2118
     15  C2'       26.8280   45.8880   17.0490 C.3   500  SAM500      0.2756
     16  O2'       25.4960   45.8570   16.7250 O.3   500  SAM500     -0.2112
     17  C1'       27.5730   44.7070   16.5380 C.3   500  SAM500      0.3698
     18  N9        27.9310   43.4360   17.1050 N.pl3 500  SAM500     -0.1327
     19  C8        27.6270   42.9480   18.3430 C.3   500  SAM500      0.3386
     20  N7        27.2920   41.6970   18.5830 N.2   500  SAM500     -0.2095
     21  C5        27.3640   41.2530   17.3600 C.2   500  SAM500      0.2526
     22  C6        27.1300   39.9050   16.8240 C.2   500  SAM500      0.4393
     23  N6        26.7850   38.8480   17.5720 N.pl3 500  SAM500      0.2180
     24  N1        27.2620   39.6530   15.4830 N.2   500  SAM500      0.0021
     25  C2        27.6150   40.7150   14.6840 C.3   500  SAM500      0.5254
     26  N3        27.8590   41.9940   15.0530 N.2   500  SAM500     -0.0054
     27  C4        27.7380   42.2760   16.4080 C.2   500  SAM500      0.3527
@<TRIPOS>BOND
     1     4     3   ar
     2     3     5   ar
     3     3     2    1
     4     1     2    1
     5     2     6    1
     6    25    26    1
     7    25    24    1
     8     6     7    1
     9    26    27    2
    10    14    13    1
    11    24    22    2
    12     7     8    1
    13    27    18    1
    14    27    21    1
    15    10     8    1
    16    10    11    2
    17     8     9    1
    18    11    12    1
    19    11    13    1
    20    12    17    1
    21    17    15    1
    22    17    18    1
    23    13    15    1
    24    16    15    1
    25    22    21    1
    26    22    23    1
    27    18    19    1
    28    21    20    2
    29    19    20    1
