@<TRIPOS>MOLECULE
1jg6_UDP_A_1.pdb
 25 26 0 0 0
SMALL
GASTEIGER

@<TRIPOS>ATOM
      1  N1         1.8710   -2.9120    9.7430 N.am  400  UDP400     -0.1766
      2  C2         1.4120   -4.2090    9.8950 C.1   400  UDP400      0.2845
      3  N3         0.0490   -4.3370    9.9680 N.2   400  UDP400     -0.2452
      4  C4        -0.8880   -3.3250    9.9060 C.1   400  UDP400      0.2182
      5  C5        -0.3380   -2.0130    9.7330 C.2   400  UDP400      0.1242
      6  C6         0.9910   -1.8550    9.6590 C.2   400  UDP400      0.0929
      7  O2         2.1540   -5.1720    9.9610 O.2   400  UDP400     -0.1918
      8  O4        -2.0820   -3.6000   10.0390 O.2   400  UDP400     -0.2085
      9  C1'        3.3270   -2.7060    9.6840 C.3   400  UDP400      0.2401
     10  C2'        3.9070   -2.6350    8.2670 C.3   400  UDP400      0.2319
     11  O2'        5.1200   -3.3600    8.2080 O.3   400  UDP400     -0.2157
     12  C3'        4.0830   -1.1300    8.0750 C.3   400  UDP400      0.2158
     13  C4'        4.4540   -0.6630    9.4710 C.3   400  UDP400      0.1799
     14  O4'        3.6370   -1.4890   10.3410 O.3   400  UDP400     -0.3320
     15  O3'        5.1130   -0.8010    7.1470 O.3   400  UDP400     -0.2175
     16  C5'        4.1600    0.7890    9.7370 C.3   400  UDP400      0.1813
     17  O5'        4.7280    1.1910   10.9760 O.3   400  UDP400     -0.3111
     18  PA         4.4270    2.6370   11.5680 P.3   400  UDP400      0.2231
     19  O1A        2.9540    2.7660   11.7310 O.2   400  UDP400     -0.5169
     20  O2A        5.3180    2.8700   12.7360 O.3   400  UDP400     -0.4370
     21  O3A        4.8370    3.6180   10.3770 O.3   400  UDP400     -0.2261
     22  PB         6.2610    3.9120    9.7100 P.3   400  UDP400      0.5373
     23  O1B        6.8640    4.8370   10.7040 O.3   400  UDP400     -0.1143
     24  O2B        5.8230    4.5260    8.4280 O.2   400  UDP400     -0.2221
     25  O3B        6.8630    2.5550    9.6180 O.3   400  UDP400     -0.1143
@<TRIPOS>BOND
     1    15    12    1
     2    12    10    1
     3    12    13    1
     4    11    10    1
     5    10     9    1
     6    24    22    2
     7    13    16    1
     8    13    14    1
     9    25    22    1
    10     6     5    2
    11     6     1    1
    12     9     1    1
    13     9    14    1
    14    22    21    1
    15    22    23    1
    16     5     4    1
    17    16    17    1
    18     1     2   am
    19     2     7    2
    20     2     3    2
    21     4     3    2
    22     4     8    2
    23    21    18    1
    24    17    18    1
    25    18    19    2
    26    18    20    1
