@<TRIPOS>MOLECULE
1jg7_UDP_A_1.pdb
 25 26 0 0 0
SMALL
GASTEIGER

@<TRIPOS>ATOM
      1  N1        12.1430   17.6700    5.6280 N.am  400  UDP400     -0.1766
      2  C2        13.4380   17.2660    5.3420 C.1   400  UDP400      0.2845
      3  N3        13.5990   16.6710    4.1150 N.2   400  UDP400     -0.2452
      4  C4        12.6190   16.4520    3.1620 C.1   400  UDP400      0.2182
      5  C5        11.3190   16.9270    3.5240 C.2   400  UDP400      0.1242
      6  C6        11.1300   17.5040    4.7140 C.2   400  UDP400      0.0929
      7  O2        14.3680   17.4260    6.1170 O.2   400  UDP400     -0.1918
      8  O4        12.8940   15.8310    2.1340 O.2   400  UDP400     -0.2085
      9  C1'       11.8820   18.2680    6.9460 C.3   400  UDP400      0.2401
     10  C2'       11.7740   19.7980    6.9420 C.3   400  UDP400      0.2319
     11  O2'       12.5830   20.3410    7.9640 O.3   400  UDP400     -0.2157
     12  C3'       10.2780   20.0270    7.1640 C.3   400  UDP400      0.2158
     13  C4'        9.8670   18.8240    7.9860 C.3   400  UDP400      0.1799
     14  O4'       10.6610   17.7430    7.4410 O.3   400  UDP400     -0.3320
     15  O3'       10.0000   21.2120    7.8960 O.3   400  UDP400     -0.2175
     16  C5'        8.4050   18.4960    7.8570 C.3   400  UDP400      0.1813
     17  O5'        8.0350   17.4930    8.7930 O.3   400  UDP400     -0.3111
     18  PA         6.5760   16.8650    8.7430 P.3   400  UDP400      0.2231
     19  O1A        6.4050   16.2060    7.4280 O.2   400  UDP400     -0.5169
     20  O2A        6.3710   16.0800    9.9920 O.3   400  UDP400     -0.4370
     21  O3A        5.6300   18.1570    8.7160 O.3   400  UDP400     -0.2261
     22  PB         5.2180   19.1860    9.8700 P.3   400  UDP400      0.5373
     23  O1B        4.2090   18.3860   10.6180 O.3   400  UDP400     -0.1143
     24  O2B        4.6810   20.3090    9.0520 O.2   400  UDP400     -0.2221
     25  O3B        6.4980   19.4500   10.5710 O.3   400  UDP400     -0.1143
@<TRIPOS>BOND
     1     8     4    2
     2     4     5    1
     3     4     3    2
     4     5     6    2
     5     3     2    2
     6     6     1    1
     7     2     1   am
     8     2     7    2
     9     1     9    1
    10    10     9    1
    11    10    12    1
    12    10    11    1
    13     9    14    1
    14    12    15    1
    15    12    13    1
    16    19    18    2
    17    14    13    1
    18    16    13    1
    19    16    17    1
    20    21    18    1
    21    21    22    1
    22    18    17    1
    23    18    20    1
    24    24    22    2
    25    22    25    1
    26    22    23    1
