@<TRIPOS>MOLECULE
1jg9_GLC_A_1.pdb
 12 12 0 0 0
SMALL
GASTEIGER

@<TRIPOS>ATOM
      1  C1        68.4090   25.5510   16.3590 C.3   2000  GLC2000     0.3024
      2  C2        68.3410   24.9790   17.7780 C.3   2000  GLC2000     0.2434
      3  C3        66.8840   24.8990   18.2460 C.3   2000  GLC2000     0.2199
      4  C4        66.2110   26.2680   18.0900 C.3   2000  GLC2000     0.2144
      5  C5        66.3780   26.7800   16.6570 C.3   2000  GLC2000     0.1836
      6  C6        65.8330   28.1730   16.4940 C.3   2000  GLC2000     0.2142
      7  O1        69.7340   25.7200   15.9870 O.3   2000  GLC2000    -0.1869
      8  O2        68.9230   23.6840   17.7990 O.3   2000  GLC2000    -0.2148
      9  O3        66.8380   24.4900   19.6080 O.3   2000  GLC2000    -0.2174
     10  O4        64.8330   26.1700   18.3920 O.3   2000  GLC2000    -0.2176
     11  O5        67.7750   26.8390   16.3170 O.3   2000  GLC2000    -0.3236
     12  O6        66.6310   29.1010   17.2090 O.3   2000  GLC2000    -0.2176
@<TRIPOS>BOND
     1     7     1    1
     2    11     1    1
     3    11     5    1
     4     1     2    1
     5     6     5    1
     6     6    12    1
     7     5     4    1
     8     2     8    1
     9     2     3    1
    10     4     3    1
    11     4    10    1
    12     3     9    1
