@<TRIPOS>MOLECULE
1jgc_HEM_A_1.pdb
 43 50 0 0 0
SMALL
GASTEIGER

@<TRIPOS>ATOM
      1  CHA      -19.4570   19.2230   27.6170 C.2   201  HEM201      0.0000
      2  CHB      -18.1390   21.4740   31.7060 C.2   201  HEM201      0.0000
      3  CHC      -22.7300   22.6980   32.3860 C.2   201  HEM201      0.0000
      4  CHD      -24.1140   19.9410   28.7000 C.2   201  HEM201      0.0000
      5  C1A      -18.6980   19.9120   28.5620 C.2   201  HEM201      0.0000
      6  C2A      -17.3410   20.4070   28.4300 C.2   201  HEM201      0.0000
      7  C3A      -16.8920   20.6610   29.7100 C.2   201  HEM201      0.0000
      8  C4A      -18.0970   20.8150   30.4940 C.2   201  HEM201      0.0000
      9  CMA      -15.4560   21.0060   30.1440 C.3   201  HEM201      0.0000
     10  CAA      -16.6250   20.9090   27.1770 C.3   201  HEM201      0.0000
     11  CBA      -16.5200   19.9890   25.9740 C.3   201  HEM201      0.0000
     12  CGA      -15.6780   18.7690   26.2440 C.2   201  HEM201      0.0000
     13  O1A      -15.5700   17.9210   25.3270 O.co2 201  HEM201      0.0000
     14  O2A      -15.1240   18.6580   27.3640 O.co2 201  HEM201      0.0000
     15  C1B      -19.2750   22.0290   32.2630 C.ar  201  HEM201      0.0000
     16  C2B      -19.2970   22.8760   33.4450 C.ar  201  HEM201      0.0000
     17  C3B      -20.6130   23.1720   33.6950 C.ar  201  HEM201      0.0000
     18  C4B      -21.3740   22.5890   32.5870 C.ar  201  HEM201      0.0000
     19  CMB      -18.0950   23.3760   34.2450 C.3   201  HEM201      0.0000
     20  CAB      -21.0370   23.9570   34.7660 C.3   201  HEM201      0.0000
     21  CBB      -22.1640   23.7390   35.5410 C.3   201  HEM201      0.0000
     22  C1C      -23.4900   22.1570   31.3740 C.2   201  HEM201      0.0000
     23  C2C      -24.8960   22.4460   31.1730 C.2   201  HEM201      0.0000
     24  C3C      -25.3140   21.6760   30.1100 C.2   201  HEM201      0.0000
     25  C4C      -24.1480   20.8840   29.7180 C.2   201  HEM201      0.0000
     26  CMC      -25.7360   23.4390   31.9940 C.3   201  HEM201      0.0000
     27  CAC      -26.5680   21.6830   29.4950 C.3   201  HEM201      0.0000
     28  CBC      -27.7800   22.0030   30.0850 C.3   201  HEM201      0.0000
     29  C1D      -22.9740   19.4350   28.1040 C.ar  201  HEM201      0.0000
     30  C2D      -22.9690   18.5740   26.9300 C.ar  201  HEM201      0.0000
     31  C3D      -21.6430   18.3540   26.6090 C.ar  201  HEM201      0.0000
     32  C4D      -20.8420   19.1290   27.5670 C.ar  201  HEM201      0.0000
     33  CMD      -24.1880   18.0070   26.1910 C.3   201  HEM201      0.0000
     34  CAD      -21.2110   17.3410   25.5440 C.3   201  HEM201      0.0000
     35  CBD      -20.5540   17.8670   24.2810 C.3   201  HEM201      0.0000
     36  CGD      -20.3730   16.7830   23.2160 C.2   201  HEM201      0.0000
     37  O1D      -19.8580   15.6870   23.5530 O.co2 201  HEM201      0.0000
     38  O2D      -20.7360   17.0350   22.0410 O.co2 201  HEM201      0.0000
     39  NA       -19.2100   20.4990   29.7080 N.2   201  HEM201      0.0000
     40  NB       -20.5510   21.9000   31.7130 N.ar  201  HEM201      0.0000
     41  NC       -23.0080   21.3230   30.3950 N.2   201  HEM201      0.0000
     42  ND       -21.6710   19.7660   28.4880 N.ar  201  HEM201      0.0000
     43 FE        -21.0980   20.9010   30.0520 Fe    201  HEM201      0.0000
@<TRIPOS>BOND
     1    38    36   ar
     2    36    37   ar
     3    36    35    1
     4    35    34    1
     5    13    12   ar
     6    34    31    1
     7    11    12    1
     8    11    10    1
     9    33    30    1
    10    12    14   ar
    11    31    30   ar
    12    31    32   ar
    13    30    29   ar
    14    10     6    1
    15    32     1    2
    16    32    42   ar
    17     1     5    1
    18    29    42   ar
    19    29     4    2
    20     6     5    1
    21     6     7    2
    22    42    43    1
    23     5    39    2
    24     4    25    1
    25    27    28    1
    26    27    24    1
    27    39    43    1
    28    39     8    1
    29     7     9    1
    30     7     8    1
    31    25    24    1
    32    25    41    2
    33    43    41    1
    34    43    40    1
    35    24    23    2
    36    41    22    1
    37     8     2    2
    38    23    22    1
    39    23    26    1
    40    22     3    2
    41     2    15    1
    42    40    15   ar
    43    40    18   ar
    44    15    16   ar
    45     3    18    1
    46    18    17   ar
    47    16    17   ar
    48    16    19    1
    49    17    20    1
    50    20    21    1
