@<TRIPOS>MOLECULE
1jgi_SUC_A_1.pdb
 23 24 0 0 0
SMALL
GASTEIGER

@<TRIPOS>ATOM
      1  C1        67.2380   24.7260   15.7280 C.3   2064  SUC2064     0.2713
      2  C2        67.5570   24.5260   17.2380 C.3   2064  SUC2064     0.2406
      3  C3        66.2200   24.6330   18.0500 C.3   2064  SUC2064     0.2198
      4  C4        65.6880   26.0090   17.8540 C.3   2064  SUC2064     0.2144
      5  C5        65.4130   26.2740   16.3800 C.3   2064  SUC2064     0.1835
      6  C6        64.9540   27.6700   16.1630 C.3   2064  SUC2064     0.2142
      7  O1        66.3440   23.6310   15.3290 O.3   2064  SUC2064    -0.3033
      8  O2        68.1700   23.2490   17.3840 O.3   2064  SUC2064    -0.2149
      9  O3        66.4750   24.4290   19.4210 O.3   2064  SUC2064    -0.2174
     10  O4        64.4430   26.1680   18.6100 O.3   2064  SUC2064    -0.2176
     11  O5        66.6290   26.0620   15.6040 O.3   2064  SUC2064    -0.3256
     12  O6        66.0800   28.5580   16.3520 O.3   2064  SUC2064    -0.2176
     13  C1'       66.0210   24.4580   12.9450 C.3   2064  SUC2064     0.2406
     14  C2'       65.4790   23.6100   14.1110 C.3   2064  SUC2064     0.2516
     15  C3'       65.2670   22.0930   13.7740 C.3   2064  SUC2064     0.2381
     16  C4'       63.7650   21.9620   13.5500 C.3   2064  SUC2064     0.2167
     17  C5'       63.2120   23.0550   14.4720 C.3   2064  SUC2064     0.1835
     18  C6'       62.8610   22.6620   15.8930 C.3   2064  SUC2064     0.2142
     19  O1'       67.3430   24.0160   12.6130 O.3   2064  SUC2064    -0.2149
     20  O2'       64.2080   24.0860   14.4850 O.3   2064  SUC2064    -0.3272
     21  O3'       65.7300   21.2360   14.8010 O.3   2064  SUC2064    -0.2150
     22  O4'       63.4480   22.1940   12.1720 O.3   2064  SUC2064    -0.2175
     23  O6'       61.8040   21.7400   15.9540 O.3   2064  SUC2064    -0.2176
@<TRIPOS>BOND
     1    22    16    1
     2    19    13    1
     3    13    14    1
     4    16    15    1
     5    16    17    1
     6    15    14    1
     7    15    21    1
     8    14    20    1
     9    14     7    1
    10    17    20    1
    11    17    18    1
    12     7     1    1
    13    11     1    1
    14    11     5    1
    15     1     2    1
    16    18    23    1
    17     6    12    1
    18     6     5    1
    19     5     4    1
    20     2     8    1
    21     2     3    1
    22     4     3    1
    23     4    10    1
    24     3     9    1
