@<TRIPOS>MOLECULE
1jgj_RET_A_1.pdb
 20 20 0 0 0
SMALL
GASTEIGER

@<TRIPOS>ATOM
      1  C1        63.2040   34.1820    6.0340 C.3   301  RET301      0.0183
      2  C2        64.1730   35.0710    6.8550 C.3   301  RET301      0.0044
      3  C3        65.0530   34.2840    7.8010 C.3   301  RET301      0.0047
      4  C4        65.9760   33.4020    6.9840 C.3   301  RET301      0.0217
      5  C5        65.1490   32.3940    6.1880 C.2   301  RET301     -0.0479
      6  C6        63.8300   32.7060    5.7210 C.2   301  RET301     -0.0307
      7  C7        63.0750   31.6360    4.9470 C.2   301  RET301     -0.0052
      8  C8        61.8060   31.6770    4.4470 C.2   301  RET301     -0.0046
      9  C9        61.1980   30.5500    3.7140 C.2   301  RET301     -0.0219
     10  C10       59.8780   30.7240    3.3360 C.2   301  RET301     -0.0043
     11  C11       59.0870   29.7070    2.6400 C.2   301  RET301     -0.0007
     12  C12       57.7790   29.9720    2.3790 C.2   301  RET301     -0.0046
     13  C13       56.8340   29.0020    1.7280 C.2   301  RET301     -0.0261
     14  C14       55.5420   29.4190    1.6000 C.2   301  RET301     -0.0300
     15  C15       54.4550   28.5850    1.0520 C.3   301  RET301      0.0304
     16  C16       61.8540   34.1290    6.8500 C.3   301  RET301      0.0043
     17  C17       62.9560   34.9480    4.7000 C.3   301  RET301      0.0043
     18  C18       65.8330   31.0610    5.9610 C.3   301  RET301      0.0260
     19  C19       61.9870   29.2660    3.4430 C.3   301  RET301      0.0310
     20  C20       57.3040   27.6030    1.2950 C.3   301  RET301      0.0307
@<TRIPOS>BOND
     1    15    14    1
     2    20    13    1
     3    14    13    2
     4    13    12    1
     5    12    11    2
     6    11    10    1
     7    10     9    2
     8    19     9    1
     9     9     8    1
    10     8     7    2
    11    17     1    1
    12     7     6    1
    13     6     1    1
    14     6     5    2
    15    18     5    1
    16     1    16    1
    17     1     2    1
    18     5     4    1
    19     2     3    1
    20     4     3    1
