@<TRIPOS>MOLECULE
1jgl_EST_L_1.pdb
 20 23 0 0 0
SMALL
GASTEIGER

@<TRIPOS>ATOM
      1  C1        43.1480   25.8150   67.9760 C.ar  911  EST911     -0.0013
      2  C2        44.5470   25.7240   68.2820 C.ar  911  EST911      0.0417
      3  C3        45.3400   24.6720   67.7000 C.ar  911  EST911      0.1954
      4  O3        46.6790   24.5930   68.0030 O.3   911  EST911     -0.2866
      5  C4        44.7490   23.7110   66.8090 C.ar  911  EST911      0.0375
      6  C5        43.3380   23.7840   66.4790 C.ar  911  EST911     -0.0230
      7  C6        42.7360   22.7450   65.5040 C.3   911  EST911      0.0261
      8  C7        41.2140   22.9120   65.1790 C.3   911  EST911      0.0050
      9  C8        40.7130   24.3810   65.2470 C.3   911  EST911      0.0044
     10  C9        40.9720   24.9410   66.7220 C.3   911  EST911      0.0220
     11  C10       42.5000   24.8610   67.0770 C.ar  911  EST911     -0.0263
     12  C11       40.4190   26.4050   66.7950 C.3   911  EST911      0.0044
     13  C12       38.9070   26.5280   66.4270 C.3   911  EST911      0.0028
     14  C13       38.6580   26.0230   64.9750 C.3   911  EST911      0.0282
     15  C14       39.1610   24.5000   64.9040 C.3   911  EST911      0.0028
     16  C15       38.6040   24.0730   63.5350 C.3   911  EST911      0.0027
     17  C16       37.1110   24.5910   63.6240 C.3   911  EST911      0.0329
     18  C17       37.1590   25.8400   64.5770 C.3   911  EST911      0.1519
     19  O17       36.5330   26.9730   63.9170 O.3   911  EST911     -0.2232
     20  C18       39.3540   27.0060   63.9250 C.3   911  EST911      0.0025
@<TRIPOS>BOND
     1    16    17    1
     2    16    15    1
     3    17    18    1
     4    19    18    1
     5    20    14    1
     6    18    14    1
     7    15    14    1
     8    15     9    1
     9    14    13    1
    10     8     9    1
    11     8     7    1
    12     9    10    1
    13     7     6    1
    14    13    12    1
    15     6     5   ar
    16     6    11   ar
    17    10    12    1
    18    10    11    1
    19     5     3   ar
    20    11     1   ar
    21     3     4    1
    22     3     2   ar
    23     1     2   ar
