@<TRIPOS>MOLECULE
1jgt_APC_A_1.pdb
 31 33 0 0 0
SMALL
GASTEIGER

@<TRIPOS>ATOM
      1  PG        -1.3760   96.0650   61.6120 P.3   801  APC801      0.5389
      2  O1G       -2.3190   94.9450   61.2050 O.3   801  APC801     -0.1143
      3  O2G       -1.5020   97.2230   60.6830 O.2   801  APC801     -0.2220
      4  O3G        0.1380   95.5260   61.6200 O.3   801  APC801     -0.1143
      5  PB        -2.7300   95.9000   64.1400 P.3   801  APC801      0.3895
      6  O1B       -2.7250   96.7250   65.4030 O.3   801  APC801     -0.1388
      7  O2B       -4.0910   95.7630   63.5830 O.2   801  APC801     -0.2544
      8  O3B       -1.7770   96.5840   63.0700 O.3   801  APC801     -0.2026
      9  PA        -3.2890   93.0390   64.4120 P.3   801  APC801      0.3820
     10  O1A       -3.7260   92.9570   62.9770 O.2   801  APC801     -0.2548
     11  O2A       -2.5860   91.7420   64.7150 O.3   801  APC801     -0.1392
     12  C3A       -2.1570   94.4450   64.6730 C.3   801  APC801      0.2357
     13  O5'       -4.6580   93.1680   65.2440 O.3   801  APC801     -0.2896
     14  C5'       -5.5060   92.8550   65.9850 C.3   801  APC801      0.1836
     15  C4'       -5.9910   93.9650   66.9200 C.3   801  APC801      0.1822
     16  O4'       -5.7650   93.5310   68.2980 O.3   801  APC801     -0.3135
     17  C3'       -5.2880   95.3240   66.7920 C.3   801  APC801      0.2184
     18  O3'       -5.9920   96.3000   66.0400 O.3   801  APC801     -0.2174
     19  C2'       -4.9660   95.7040   68.2220 C.3   801  APC801      0.2570
     20  O2'       -5.9060   96.6960   68.6780 O.3   801  APC801     -0.2130
     21  C1'       -5.0960   94.4860   69.0870 C.3   801  APC801      0.3186
     22  N9        -3.7650   93.8870   69.4690 N.pl3 801  APC801     -0.1439
     23  C8        -3.1240   92.7890   68.8840 C.3   801  APC801      0.3377
     24  N7        -1.9540   92.4710   69.4130 N.2   801  APC801     -0.2095
     25  C5        -1.7700   93.4080   70.4310 C.2   801  APC801      0.2526
     26  C6        -0.6830   93.5980   71.3850 C.2   801  APC801      0.4393
     27  N6         0.3280   92.9120   71.4550 N.pl3 801  APC801      0.2180
     28  N1        -0.9250   94.6760   72.2310 N.2   801  APC801      0.0021
     29  C2        -2.0450   95.5170   72.2330 C.3   801  APC801      0.5254
     30  N3        -3.0370   95.3590   71.3790 N.2   801  APC801     -0.0055
     31  C4        -2.8790   94.2960   70.4870 C.2   801  APC801      0.3518
@<TRIPOS>BOND
     1     3     1    2
     2     2     1    1
     3     1     4    1
     4     1     8    1
     5    10     9    2
     6     8     5    1
     7     7     5    2
     8     5    12    1
     9     5     6    1
    10     9    12    1
    11     9    11    1
    12     9    13    1
    13    13    14    1
    14    14    15    1
    15    18    17    1
    16    17    15    1
    17    17    19    1
    18    15    16    1
    19    19    20    1
    20    19    21    1
    21    16    21    1
    22    23    24    1
    23    23    22    1
    24    21    22    1
    25    24    25    2
    26    22    31    1
    27    25    31    1
    28    25    26    1
    29    31    30    2
    30    30    29    1
    31    26    27    1
    32    26    28    2
    33    28    29    1
