@<TRIPOS>MOLECULE
1jgt_CMA_A_1.pdb
 17 16 0 0 0
SMALL
GASTEIGER

@<TRIPOS>ATOM
      1  CA        -6.6230   90.0120   61.6450 C.3   803  CMA803      0.1758
      2  CB        -7.4260   88.7970   62.1640 C.3   803  CMA803      0.0326
      3  O         -7.6910   91.9680   62.4780 O.co2 803  CMA803     -0.2441
      4  C         -7.5560   91.2100   61.4940 C.2   803  CMA803      0.3803
      5  C1        -4.4740   89.3840   62.9500 C.3   803  CMA803      0.1011
      6  C2        -4.5010   88.9800   64.4310 C.3   803  CMA803      0.1328
      7  C3        -4.4680   90.1700   65.4050 C.2   803  CMA803      0.3663
      8  O1        -4.2590   89.9470   66.6210 O.co2 803  CMA803     -0.2456
      9  O2        -4.6550   91.3250   64.9510 O.co2 803  CMA803     -0.2456
     10  N         -5.5230   90.3430   62.5670 N.3   803  CMA803     -0.2078
     11  CG        -7.5040   87.6200   61.1970 C.3   803  CMA803      0.0489
     12  CD        -8.9360   87.2760   60.8400 C.3   803  CMA803      0.2205
     13  NE        -9.0690   86.7060   59.5020 N.pl3 803  CMA803     -0.0865
     14  CZ       -10.2240   86.3020   58.9500 C.cat 803  CMA803      0.5346
     15  NH1      -11.3770   86.3910   59.6160 N.pl3 803  CMA803      0.1354
     16  NH2      -10.2160   85.7990   57.7260 N.pl3 803  CMA803      0.1354
     17  OXT       -8.1370   91.3800   60.4030 O.co2 803  CMA803     -0.2441
@<TRIPOS>BOND
     1    16    14    1
     2    14    13    2
     3    14    15    1
     4    13    12    1
     5    17     4   ar
     6    12    11    1
     7    11     2    1
     8     4     1    1
     9     4     3   ar
    10     1     2    1
    11     1    10    1
    12    10     5    1
    13     5     6    1
    14     6     7    1
    15     9     7   ar
    16     7     8   ar
