@<TRIPOS>MOLECULE
1jgu_HBC_H_1.pdb
 22 25 0 0 0
SMALL
GASTEIGER

@<TRIPOS>ATOM
      1  C1        16.9250    4.4510   56.6010 C.ar  3001  HBC3001     0.0361
      2  C2        16.3870    4.7870   55.3100 C.ar  3001  HBC3001     0.0029
      3  C3        16.8410    4.1340   54.1410 C.ar  3001  HBC3001     0.0001
      4  C4        17.8380    3.1340   54.2330 C.ar  3001  HBC3001     0.0000
      5  C5        18.3860    2.7790   55.4890 C.ar  3001  HBC3001     0.0001
      6  C6        17.9340    3.4300   56.6580 C.ar  3001  HBC3001     0.0029
      7  C7        15.7610    5.4940   60.4660 C.3   3001  HBC3001     0.0236
      8  C8        15.5320    4.8790   61.9080 C.3   3001  HBC3001     0.0018
      9  C9        14.2300    4.0990   61.8090 C.3   3001  HBC3001     0.0004
     10  C10       13.8030    4.3840   60.3680 C.3   3001  HBC3001     0.0059
     11  C11       14.2630    5.8390   60.2350 C.3   3001  HBC3001     0.0022
     12  C12       14.6170    3.6580   59.2440 C.3   3001  HBC3001     0.0456
     13  C13       16.0210    4.4650   59.2420 C.3   3001  HBC3001     0.1354
     14  N1        17.1600    3.5420   59.6140 N.3   3001  HBC3001    -0.1262
     15  C14       16.3940    5.1860   57.8410 C.2   3001  HBC3001     0.1888
     16  O1        16.2000    6.4130   57.7420 O.2   3001  HBC3001    -0.2899
     17  C15       14.1820    2.2450   57.1060 C.ar  3001  HBC3001    -0.0042
     18  C16       13.8190    3.3870   57.8940 C.ar  3001  HBC3001    -0.0207
     19  C17       12.7550    4.2330   57.4110 C.ar  3001  HBC3001    -0.0042
     20  C18       12.0900    3.9380   56.1940 C.ar  3001  HBC3001    -0.0003
     21  C19       12.4730    2.7980   55.4360 C.ar  3001  HBC3001    -0.0000
     22  C20       13.5170    1.9540   55.8900 C.ar  3001  HBC3001    -0.0003
@<TRIPOS>BOND
     1     3     4   ar
     2     3     2   ar
     3     4     5   ar
     4     2     1   ar
     5    21    22   ar
     6    21    20   ar
     7     5     6   ar
     8    22    17   ar
     9    20    19   ar
    10     1     6   ar
    11     1    15    1
    12    17    18   ar
    13    19    18   ar
    14    16    15    2
    15    15    13    1
    16    18    12    1
    17    13    12    1
    18    13    14    1
    19    13     7    1
    20    12    10    1
    21    11    10    1
    22    11     7    1
    23    10     9    1
    24     7     8    1
    25     9     8    1
