@<TRIPOS>MOLECULE
1jgw_U10_M_1.pdb
 48 48 0 0 0
SMALL
GASTEIGER

@<TRIPOS>ATOM
      1  C1        21.2630   78.3050   19.0150 C.2   857  U10857      0.0198
      2  C2        22.1000   77.0710   18.9060 C.2   857  U10857      0.2282
      3  C3        22.3140   76.3650   17.5840 C.2   857  U10857      0.2140
      4  C4        21.6620   76.9130   16.3140 C.2   857  U10857      0.2140
      5  C5        20.8110   78.1540   16.4240 C.2   857  U10857      0.2285
      6  C6        20.5900   78.8900   17.7820 C.2   857  U10857      0.0235
      7  C1M       21.0980   78.9680   20.3980 C.3   857  U10857      0.0343
      8  C3M       24.5370   75.3400   17.4490 C.3   857  U10857      0.2528
      9  C4M       22.2290   75.0240   14.6890 C.3   857  U10857      0.2528
     10  C7        19.7280   80.2020   17.9860 C.3   857  U10857      0.0548
     11  C8        19.9440   81.0090   16.8080 C.2   857  U10857     -0.0298
     12  C9        20.5070   82.2420   16.5840 C.2   857  U10857     -0.0475
     13  C10       20.4920   82.6260   15.1170 C.3   857  U10857      0.0260
     14  C11       21.1100   83.2050   17.5890 C.3   857  U10857      0.0264
     15  C12       20.8030   84.6610   17.2260 C.3   857  U10857      0.0297
     16  C13       20.8490   85.6620   18.2760 C.2   857  U10857     -0.0342
     17  C14       19.8470   86.1270   19.1300 C.2   857  U10857     -0.0478
     18  C15       20.3530   87.1960   20.0760 C.3   857  U10857      0.0260
     19  C16       18.3860   85.6190   19.1150 C.3   857  U10857      0.0263
     20  C17       17.4030   86.2560   20.1350 C.3   857  U10857      0.0297
     21  C18       16.8920   87.5630   19.6970 C.2   857  U10857     -0.0342
     22  C19       15.8760   87.9020   18.7900 C.2   857  U10857     -0.0478
     23  C20       15.6350   89.3890   18.5780 C.3   857  U10857      0.0260
     24  C21       15.0090   86.9330   17.9960 C.3   857  U10857      0.0263
     25  C22       13.7530   87.5520   17.3470 C.3   857  U10857      0.0297
     26  C23       12.6300   86.8340   17.8960 C.2   857  U10857     -0.0342
     27  C24       11.3410   86.6760   17.4030 C.2   857  U10857     -0.0478
     28  C25       10.4300   85.8280   18.2870 C.3   857  U10857      0.0260
     29  C26       10.8010   87.2700   16.0910 C.3   857  U10857      0.0263
     30  C27        9.3410   86.9150   15.8290 C.3   857  U10857      0.0297
     31  C28        8.7940   87.6200   14.6810 C.2   857  U10857     -0.0342
     32  C29        7.4100   87.7000   14.4300 C.2   857  U10857     -0.0478
     33  C30        6.9170   88.4690   13.1860 C.3   857  U10857      0.0260
     34  C31        6.3840   87.0450   15.3690 C.3   857  U10857      0.0263
     35  C32        5.5780   85.9140   14.7240 C.3   857  U10857      0.0297
     36  C33        4.3060   85.8730   15.4350 C.2   857  U10857     -0.0342
     37  C34        3.6470   84.7220   15.8780 C.2   857  U10857     -0.0478
     38  C35        2.3320   84.9590   16.6000 C.3   857  U10857      0.0260
     39  C36        4.1610   83.2740   15.6870 C.3   857  U10857      0.0263
     40  C37        3.1840   82.3120   14.9880 C.3   857  U10857      0.0297
     41  C38        2.9810   82.7960   13.6240 C.2   857  U10857     -0.0342
     42  C39        1.7900   82.7170   12.8920 C.2   857  U10857     -0.0478
     43  C40        1.7680   83.2900   11.4800 C.3   857  U10857      0.0260
     44  C41        0.5090   82.0910   13.4280 C.3   857  U10857      0.0260
     45  O2        22.6290   76.6260   19.9290 O.2   857  U10857     -0.2836
     46  O3        23.1210   75.2080   17.5660 O.2   857  U10857     -0.4652
     47  O4        21.7970   76.3450   15.0120 O.2   857  U10857     -0.4652
     48  O5        20.3030   78.5490   15.3520 O.2   857  U10857     -0.2835
@<TRIPOS>BOND
     1    43    42    1
     2    42    44    1
     3    42    41    2
     4    33    32    1
     5    41    40    1
     6    32    31    2
     7    32    34    1
     8    31    30    1
     9     9    47    1
    10    35    34    1
    11    35    36    1
    12    40    39    1
    13    47     4    1
    14    13    12    1
    15    48     5    2
    16    36    37    2
    17    39    37    1
    18    30    29    1
    19    37    38    1
    20    29    27    1
    21     4     5    1
    22     4     3    2
    23     5     6    1
    24    12    11    2
    25    12    14    1
    26    11    10    1
    27    15    14    1
    28    15    16    1
    29    25    26    1
    30    25    24    1
    31    27    26    2
    32    27    28    1
    33     8    46    1
    34    46     3    1
    35     3     2    1
    36     6    10    1
    37     6     1    2
    38    24    22    1
    39    16    17    2
    40    23    22    1
    41    22    21    2
    42     2     1    1
    43     2    45    2
    44     1     7    1
    45    19    17    1
    46    19    20    1
    47    17    18    1
    48    21    20    1
