@<TRIPOS>MOLECULE
1jgw_SPO_M_1.pdb
 42 41 0 0 0
SMALL
GASTEIGER

@<TRIPOS>ATOM
      1  CM1       43.1080   85.1390   56.1080 C.3   859  SPO859      0.1739
      2  O1        44.2510   86.1880   55.9810 O.3   859  SPO859     -0.3555
      3  C1        45.3020   86.1590   54.7870 C.3   859  SPO859      0.0970
      4  C2        46.6430   86.6630   55.3290 C.3   859  SPO859      0.0300
      5  C3        45.5280   84.7340   54.2160 C.3   859  SPO859      0.0300
      6  C4        44.9370   87.1310   53.6670 C.3   859  SPO859      0.0532
      7  C5        43.6300   87.7380   53.7450 C.2   859  SPO859     -0.0240
      8  C6        43.1900   88.6130   52.6040 C.2   859  SPO859     -0.0091
      9  C7        41.9050   89.1380   52.3730 C.2   859  SPO859     -0.0261
     10  C8        40.8260   88.7510   53.4380 C.3   859  SPO859      0.0307
     11  C9        41.7550   89.9170   51.2460 C.2   859  SPO859     -0.0257
     12  C10       40.4440   90.5610   50.8270 C.3   859  SPO859      0.0513
     13  C11       40.4650   91.3920   49.5490 C.2   859  SPO859     -0.0257
     14  C12       39.3080   91.7480   48.8830 C.2   859  SPO859     -0.0261
     15  C13       37.8720   91.3010   49.4170 C.3   859  SPO859      0.0307
     16  C14       39.5350   92.5290   47.7340 C.2   859  SPO859     -0.0088
     17  C15       38.3560   93.0370   46.8620 C.2   859  SPO859     -0.0221
     18  C16       38.4620   93.9360   45.5610 C.3   859  SPO859      0.0476
     19  C17       37.2340   94.3080   44.9040 C.2   859  SPO859     -0.0438
     20  C18       35.8480   93.8570   45.4180 C.3   859  SPO859      0.0264
     21  C19       37.1950   95.1050   43.7550 C.2   859  SPO859     -0.0343
     22  C20       38.3010   95.6410   43.0910 C.3   859  SPO859      0.0254
     23  C21       38.1580   96.9120   42.3080 C.3   859  SPO859      0.0050
     24  C22       39.4120   97.3320   41.6690 C.3   859  SPO859      0.0047
     25  C23       39.5740   97.6660   40.3340 C.3   859  SPO859      0.0220
     26  C24       38.5680   98.7080   39.7710 C.3   859  SPO859      0.0047
     27  C25       40.9410   97.9740   40.2720 C.2   859  SPO859     -0.0265
     28  C26       41.6480   98.3990   39.0450 C.2   859  SPO859     -0.0052
     29  C27       43.1200   98.6610   39.1110 C.2   859  SPO859     -0.0088
     30  C28       43.8390   99.0570   37.9780 C.2   859  SPO859     -0.0436
     31  C29       43.2400   99.2770   36.5500 C.3   859  SPO859      0.0264
     32  C30       45.3590   99.3110   38.0320 C.3   859  SPO859      0.0267
     33  C31       45.6730  100.6770   38.5790 C.3   859  SPO859      0.0297
     34  C32       47.0200  101.0470   38.4380 C.2   859  SPO859     -0.0343
     35  C33       47.8020  101.9600   39.1780 C.2   859  SPO859     -0.0482
     36  C34       47.2780  102.7720   40.3640 C.3   859  SPO859      0.0260
     37  C35       49.3140  102.2700   38.8790 C.3   859  SPO859      0.0217
     38  C36       50.3060  101.0940   38.9080 C.3   859  SPO859      0.0043
     39  C37       51.5580  101.4050   38.1120 C.3   859  SPO859      0.0003
     40  C38       51.8520  101.2710   36.7390 C.3   859  SPO859      0.0000
     41  C39       52.6360  100.1040   36.0960 C.3   859  SPO859      0.0000
     42  C40       51.4270  102.2900   35.6720 C.3   859  SPO859      0.0000
@<TRIPOS>BOND
     1    42    40    1
     2    41    40    1
     3    31    30    1
     4    40    39    1
     5    30    32    1
     6    30    29    2
     7    32    33    1
     8    39    38    1
     9    34    33    1
    10    34    35    2
    11    37    38    1
    12    37    35    1
    13    28    29    1
    14    28    27    2
    15    35    36    1
    16    26    25    1
    17    27    25    1
    18    25    24    1
    19    24    23    1
    20    23    22    1
    21    22    21    1
    22    21    19    2
    23    19    20    1
    24    19    18    1
    25    18    17    1
    26    17    16    2
    27    16    14    1
    28    14    15    1
    29    14    13    2
    30    13    12    1
    31    12    11    1
    32    11     9    2
    33     9     8    1
    34     9    10    1
    35     8     7    2
    36     6     7    1
    37     6     3    1
    38     5     3    1
    39     3     4    1
    40     3     2    1
    41     2     1    1
