@<TRIPOS>MOLECULE
1jgx_U10_M_1.pdb
 48 48 0 0 0
SMALL
GASTEIGER

@<TRIPOS>ATOM
      1  C1        21.1620   78.1680   19.0460 C.2   857  U10857      0.0198
      2  C2        22.1040   77.0090   18.8970 C.2   857  U10857      0.2282
      3  C3        22.2890   76.3060   17.5710 C.2   857  U10857      0.2140
      4  C4        21.5010   76.7660   16.3470 C.2   857  U10857      0.2140
      5  C5        20.5610   77.9280   16.4910 C.2   857  U10857      0.2285
      6  C6        20.3700   78.6680   17.8500 C.2   857  U10857      0.0235
      7  C1M       21.0160   78.8450   20.4210 C.3   857  U10857      0.0343
      8  C3M       22.9420   73.9950   18.1260 C.3   857  U10857      0.2528
      9  C4M       22.2430   74.9580   14.7170 C.3   857  U10857      0.2528
     10  C7        19.4220   79.9010   18.0760 C.3   857  U10857      0.0548
     11  C8        19.6110   80.7270   16.9020 C.2   857  U10857     -0.0298
     12  C9        20.1760   81.9660   16.6760 C.2   857  U10857     -0.0475
     13  C10       20.1230   82.3780   15.2130 C.3   857  U10857      0.0260
     14  C11       20.8140   82.9210   17.6730 C.3   857  U10857      0.0264
     15  C12       20.5980   84.3820   17.2470 C.3   857  U10857      0.0297
     16  C13       20.7240   85.4210   18.2400 C.2   857  U10857     -0.0342
     17  C14       19.7930   85.9230   19.1490 C.2   857  U10857     -0.0478
     18  C15       20.3730   87.0390   20.0070 C.3   857  U10857      0.0260
     19  C16       18.3400   85.4150   19.2740 C.3   857  U10857      0.0263
     20  C17       17.4510   86.1070   20.3270 C.3   857  U10857      0.0297
     21  C18       16.9860   87.4210   19.8570 C.2   857  U10857     -0.0342
     22  C19       15.9500   87.7790   18.9860 C.2   857  U10857     -0.0478
     23  C20       15.7800   89.2640   18.7250 C.3   857  U10857      0.0260
     24  C21       14.9950   86.8330   18.2770 C.3   857  U10857      0.0263
     25  C22       13.7760   87.5160   17.6410 C.3   857  U10857      0.0297
     26  C23       12.5940   86.9290   18.2380 C.2   857  U10857     -0.0342
     27  C24       11.4250   86.5350   17.5910 C.2   857  U10857     -0.0478
     28  C25       10.3220   85.9330   18.4770 C.3   857  U10857      0.0260
     29  C26       11.2150   86.6730   16.0870 C.3   857  U10857      0.0263
     30  C27        9.8740   86.1840   15.5790 C.3   857  U10857      0.0297
     31  C28        9.1850   87.2760   14.9250 C.2   857  U10857     -0.0342
     32  C29        7.8100   87.4620   14.9930 C.2   857  U10857     -0.0478
     33  C30        7.1940   88.6640   14.2570 C.3   857  U10857      0.0260
     34  C31        6.9090   86.5020   15.7810 C.3   857  U10857      0.0263
     35  C32        6.1620   85.4900   14.9030 C.3   857  U10857      0.0297
     36  C33        4.7830   85.5330   15.3600 C.2   857  U10857     -0.0342
     37  C34        3.9150   84.4480   15.4850 C.2   857  U10857     -0.0478
     38  C35        2.5190   84.7970   16.0040 C.3   857  U10857      0.0260
     39  C36        4.2800   82.9800   15.1480 C.3   857  U10857      0.0263
     40  C37        3.1920   82.1500   14.4340 C.3   857  U10857      0.0297
     41  C38        2.8580   82.8180   13.1750 C.2   857  U10857     -0.0342
     42  C39        1.6120   82.7810   12.5300 C.2   857  U10857     -0.0478
     43  C40        1.4490   83.5570   11.2270 C.3   857  U10857      0.0260
     44  C41        0.4080   82.0130   13.0590 C.3   857  U10857      0.0260
     45  O2        22.7440   76.6270   19.8810 O.2   857  U10857     -0.2836
     46  O3        23.2050   75.2340   17.4870 O.2   857  U10857     -0.4652
     47  O4        21.5940   76.1790   15.0570 O.2   857  U10857     -0.4652
     48  O5        19.9540   78.2590   15.4470 O.2   857  U10857     -0.2835
@<TRIPOS>BOND
     1    43    42    1
     2    42    44    1
     3    42    41    2
     4    41    40    1
     5    33    32    1
     6    40    39    1
     7     9    47    1
     8    35    36    1
     9    35    34    1
    10    31    32    2
    11    31    30    1
    12    32    34    1
    13    47     4    1
    14    39    37    1
    15    13    12    1
    16    36    37    2
    17    48     5    2
    18    37    38    1
    19    30    29    1
    20    29    27    1
    21     4     5    1
    22     4     3    2
    23     5     6    1
    24    12    11    2
    25    12    14    1
    26    11    10    1
    27    15    14    1
    28    15    16    1
    29    46     3    1
    30    46     8    1
    31     3     2    1
    32    27    26    2
    33    27    28    1
    34    25    26    1
    35    25    24    1
    36     6    10    1
    37     6     1    2
    38    16    17    2
    39    24    22    1
    40    23    22    1
    41     2     1    1
    42     2    45    2
    43    22    21    2
    44     1     7    1
    45    17    19    1
    46    17    18    1
    47    19    20    1
    48    21    20    1
