@<TRIPOS>MOLECULE
1jgx_SPO_M_1.pdb
 42 41 0 0 0
SMALL
GASTEIGER

@<TRIPOS>ATOM
      1  CM1       43.6390   85.0210   56.4180 C.3   859  SPO859      0.1739
      2  O1        44.1530   86.3010   55.7100 O.3   859  SPO859     -0.3555
      3  C1        45.2550   86.2770   54.5590 C.3   859  SPO859      0.0970
      4  C2        46.6020   86.6450   55.1740 C.3   859  SPO859      0.0300
      5  C3        45.3920   84.8920   53.8770 C.3   859  SPO859      0.0300
      6  C4        44.9820   87.3450   53.5240 C.3   859  SPO859      0.0532
      7  C5        43.6340   87.8460   53.5360 C.2   859  SPO859     -0.0240
      8  C6        43.1710   88.6830   52.3840 C.2   859  SPO859     -0.0091
      9  C7        41.8570   89.0780   52.1190 C.2   859  SPO859     -0.0261
     10  C8        40.7970   88.5730   53.1500 C.3   859  SPO859      0.0307
     11  C9        41.6620   89.8490   51.0000 C.2   859  SPO859     -0.0257
     12  C10       40.3070   90.3630   50.5490 C.3   859  SPO859      0.0513
     13  C11       40.3060   91.2210   49.2960 C.2   859  SPO859     -0.0257
     14  C12       39.1560   91.5940   48.6470 C.2   859  SPO859     -0.0261
     15  C13       37.7210   91.1440   49.1580 C.3   859  SPO859      0.0307
     16  C14       39.4000   92.4060   47.5370 C.2   859  SPO859     -0.0088
     17  C15       38.2480   92.9620   46.6740 C.2   859  SPO859     -0.0221
     18  C16       38.4010   93.9020   45.4210 C.3   859  SPO859      0.0476
     19  C17       37.1960   94.3150   44.7720 C.2   859  SPO859     -0.0438
     20  C18       35.8060   93.8710   45.2500 C.3   859  SPO859      0.0264
     21  C19       37.1730   95.1520   43.6640 C.2   859  SPO859     -0.0343
     22  C20       38.2830   95.7020   43.0180 C.3   859  SPO859      0.0254
     23  C21       38.0900   96.8490   42.0710 C.3   859  SPO859      0.0050
     24  C22       39.3470   97.2770   41.4780 C.3   859  SPO859      0.0047
     25  C23       39.5640   97.5330   40.1460 C.3   859  SPO859      0.0220
     26  C24       38.5680   98.5060   39.4520 C.3   859  SPO859      0.0047
     27  C25       40.9170   97.8690   40.1510 C.2   859  SPO859     -0.0265
     28  C26       41.6670   98.2350   38.9460 C.2   859  SPO859     -0.0052
     29  C27       43.1110   98.5180   39.0840 C.2   859  SPO859     -0.0088
     30  C28       43.8680   98.8560   37.9720 C.2   859  SPO859     -0.0436
     31  C29       43.3330   98.9840   36.5100 C.3   859  SPO859      0.0264
     32  C30       45.3730   99.1260   38.0770 C.3   859  SPO859      0.0267
     33  C31       45.7060  100.3560   38.8820 C.3   859  SPO859      0.0297
     34  C32       47.0030  100.8060   38.6090 C.2   859  SPO859     -0.0342
     35  C33       47.8540  101.6840   39.2840 C.2   859  SPO859     -0.0478
     36  C34       47.5150  102.4100   40.5860 C.3   859  SPO859      0.0260
     37  C35       49.2780  102.0380   38.7650 C.3   859  SPO859      0.0263
     38  C36       50.4580  101.2350   39.3210 C.3   859  SPO859      0.0297
     39  C37       51.7730  101.9070   38.9700 C.2   859  SPO859     -0.0342
     40  C38       52.4740  102.0370   37.7470 C.2   859  SPO859     -0.0478
     41  C39       53.8670  102.7040   37.5820 C.3   859  SPO859      0.0260
     42  C40       51.9450  101.5230   36.3870 C.3   859  SPO859      0.0260
@<TRIPOS>BOND
     1    42    40    1
     2    31    30    1
     3    41    40    1
     4    40    39    2
     5    30    32    1
     6    30    29    2
     7    32    33    1
     8    34    33    1
     9    34    35    2
    10    37    35    1
    11    37    38    1
    12    28    29    1
    13    28    27    2
    14    39    38    1
    15    35    36    1
    16    26    25    1
    17    25    27    1
    18    25    24    1
    19    24    23    1
    20    23    22    1
    21    22    21    1
    22    21    19    2
    23    19    20    1
    24    19    18    1
    25    18    17    1
    26    17    16    2
    27    16    14    1
    28    14    15    1
    29    14    13    2
    30    13    12    1
    31    12    11    1
    32    11     9    2
    33     9     8    1
    34     9    10    1
    35     8     7    2
    36     6     7    1
    37     6     3    1
    38     5     3    1
    39     3     4    1
    40     3     2    1
    41     2     1    1
