@<TRIPOS>MOLECULE
1jgy_U10_M_1.pdb
 48 48 0 0 0
SMALL
GASTEIGER

@<TRIPOS>ATOM
      1  C1        21.2610   78.0560   18.8230 C.2   857  U10857      0.0198
      2  C2        22.1790   76.8850   18.7090 C.2   857  U10857      0.2282
      3  C3        22.2820   76.0730   17.4450 C.2   857  U10857      0.2140
      4  C4        21.4230   76.4360   16.2260 C.2   857  U10857      0.2140
      5  C5        20.5010   77.6190   16.3450 C.2   857  U10857      0.2285
      6  C6        20.4010   78.4650   17.6550 C.2   857  U10857      0.0235
      7  C1M       21.2080   78.8400   20.1460 C.3   857  U10857      0.0343
      8  C3M       22.8190   73.7560   18.0190 C.3   857  U10857      0.2528
      9  C4M       22.5060   74.9390   14.4790 C.3   857  U10857      0.2528
     10  C7        19.4790   79.7210   17.8660 C.3   857  U10857      0.0548
     11  C8        19.7330   80.5700   16.7240 C.2   857  U10857     -0.0298
     12  C9        20.3420   81.7890   16.5670 C.2   857  U10857     -0.0475
     13  C10       20.3530   82.2520   15.1190 C.3   857  U10857      0.0260
     14  C11       20.9690   82.6670   17.6320 C.3   857  U10857      0.0264
     15  C12       20.7160   84.1510   17.3660 C.3   857  U10857      0.0297
     16  C13       20.7640   85.0880   18.4810 C.2   857  U10857     -0.0342
     17  C14       19.7240   85.6150   19.2550 C.2   857  U10857     -0.0478
     18  C15       20.2050   86.5850   20.3130 C.3   857  U10857      0.0260
     19  C16       18.2440   85.2600   19.0530 C.3   857  U10857      0.0263
     20  C17       17.2400   85.9690   19.9760 C.3   857  U10857      0.0297
     21  C18       16.8820   87.2600   19.3760 C.2   857  U10857     -0.0342
     22  C19       15.8900   87.5830   18.4450 C.2   857  U10857     -0.0478
     23  C20       15.8160   89.0420   18.0110 C.3   857  U10857      0.0260
     24  C21       14.9020   86.6180   17.8190 C.3   857  U10857      0.0263
     25  C22       13.5760   87.2680   17.4190 C.3   857  U10857      0.0297
     26  C23       12.5170   86.3710   17.8180 C.2   857  U10857     -0.0342
     27  C24       11.3800   86.0040   17.1010 C.2   857  U10857     -0.0478
     28  C25       10.4590   85.0220   17.8290 C.3   857  U10857      0.0260
     29  C26       11.0280   86.5150   15.6810 C.3   857  U10857      0.0263
     30  C27        9.7260   85.9480   15.1000 C.3   857  U10857      0.0297
     31  C28        8.8800   86.9660   14.4980 C.2   857  U10857     -0.0342
     32  C29        7.4900   87.0300   14.7160 C.2   857  U10857     -0.0478
     33  C30        6.6880   88.1510   14.0310 C.3   857  U10857      0.0260
     34  C31        6.7590   86.0190   15.6210 C.3   857  U10857      0.0263
     35  C32        5.8220   85.0530   14.8780 C.3   857  U10857      0.0297
     36  C33        4.5490   85.1000   15.5980 C.2   857  U10857     -0.0342
     37  C34        3.6470   84.0430   15.8150 C.2   857  U10857     -0.0478
     38  C35        2.4060   84.4140   16.6050 C.3   857  U10857      0.0260
     39  C36        3.8140   82.5870   15.3280 C.3   857  U10857      0.0263
     40  C37        2.6200   82.0410   14.5230 C.3   857  U10857      0.0297
     41  C38        2.7550   82.5590   13.1600 C.2   857  U10857     -0.0342
     42  C39        1.7470   82.6500   12.1810 C.2   857  U10857     -0.0478
     43  C40        2.1180   83.2370   10.8140 C.3   857  U10857      0.0260
     44  C41        0.3060   82.2030   12.4020 C.3   857  U10857      0.0260
     45  O2        22.8710   76.5780   19.6750 O.2   857  U10857     -0.2836
     46  O3        23.1830   74.9900   17.4260 O.2   857  U10857     -0.4652
     47  O4        21.4350   75.7320   14.9780 O.2   857  U10857     -0.4652
     48  O5        19.8380   77.8700   15.3370 O.2   857  U10857     -0.2835
@<TRIPOS>BOND
     1    43    42    1
     2    42    44    1
     3    42    41    2
     4    41    40    1
     5    33    32    1
     6     9    47    1
     7    31    32    2
     8    31    30    1
     9    40    39    1
    10    32    34    1
    11    35    36    1
    12    35    34    1
    13    47     4    1
    14    30    29    1
    15    13    12    1
    16    39    37    1
    17    48     5    2
    18    36    37    2
    19    29    27    1
    20    37    38    1
    21     4     5    1
    22     4     3    2
    23     5     6    1
    24    12    11    2
    25    12    14    1
    26    11    10    1
    27    27    26    2
    28    27    28    1
    29    15    14    1
    30    15    16    1
    31    25    26    1
    32    25    24    1
    33    46     3    1
    34    46     8    1
    35     3     2    1
    36     6    10    1
    37     6     1    2
    38    24    22    1
    39    23    22    1
    40    22    21    2
    41    16    17    2
    42     2     1    1
    43     2    45    2
    44     1     7    1
    45    19    17    1
    46    19    20    1
    47    17    18    1
    48    21    20    1
