@<TRIPOS>MOLECULE
1jgy_SPO_M_1.pdb
 42 41 0 0 0
SMALL
GASTEIGER

@<TRIPOS>ATOM
      1  CM1       43.2050   85.1390   55.8280 C.3   859  SPO859      0.1743
      2  O1        44.2930   86.2280   55.6740 O.3   859  SPO859     -0.3518
      3  C1        45.3290   86.2260   54.4750 C.3   859  SPO859      0.1111
      4  C2        46.6680   86.7120   55.0270 C.3   859  SPO859      0.0342
      5  C3        45.5570   84.8220   53.8620 C.3   859  SPO859      0.0342
      6  C4        44.9440   87.2280   53.3950 C.2   859  SPO859     -0.0040
      7  C5        43.5610   87.2070   52.9840 C.2   859  SPO859     -0.0240
      8  C6        43.1280   88.1170   51.8580 C.3   859  SPO859      0.0474
      9  C7        41.9380   88.8820   51.7740 C.2   859  SPO859     -0.0435
     10  C8        40.9770   88.7530   53.0040 C.3   859  SPO859      0.0264
     11  C9        41.7590   89.6430   50.6310 C.2   859  SPO859     -0.0296
     12  C10       40.5320   90.5130   50.3790 C.3   859  SPO859      0.0510
     13  C11       40.4820   91.3000   49.0700 C.2   859  SPO859     -0.0257
     14  C12       39.2980   91.5830   48.4010 C.2   859  SPO859     -0.0261
     15  C13       37.8790   91.0940   48.9500 C.3   859  SPO859      0.0307
     16  C14       39.4950   92.3460   47.2360 C.2   859  SPO859     -0.0088
     17  C15       38.3080   92.8070   46.3450 C.2   859  SPO859     -0.0221
     18  C16       38.4410   93.6860   45.0370 C.3   859  SPO859      0.0476
     19  C17       37.2460   94.0460   44.3320 C.2   859  SPO859     -0.0438
     20  C18       35.8460   93.6060   44.8000 C.3   859  SPO859      0.0264
     21  C19       37.2550   94.8270   43.1700 C.2   859  SPO859     -0.0343
     22  C20       38.4030   95.3460   42.5490 C.3   859  SPO859      0.0254
     23  C21       38.3160   96.5950   41.7140 C.3   859  SPO859      0.0050
     24  C22       39.6030   96.9920   41.1370 C.3   859  SPO859      0.0047
     25  C23       39.8120   97.3560   39.8270 C.3   859  SPO859      0.0220
     26  C24       38.8590   98.4700   39.3060 C.3   859  SPO859      0.0047
     27  C25       41.1850   97.6200   39.8060 C.2   859  SPO859     -0.0265
     28  C26       41.9310   98.0340   38.6070 C.2   859  SPO859     -0.0052
     29  C27       43.3900   98.2760   38.7440 C.2   859  SPO859     -0.0088
     30  C28       44.1650   98.6620   37.6420 C.2   859  SPO859     -0.0436
     31  C29       43.6320   98.8760   36.1850 C.3   859  SPO859      0.0264
     32  C30       45.6830   98.9260   37.7690 C.3   859  SPO859      0.0267
     33  C31       45.9650  100.1810   38.5770 C.3   859  SPO859      0.0297
     34  C32       47.2410  100.7390   38.3640 C.2   859  SPO859     -0.0343
     35  C33       47.9890  101.6330   39.1550 C.2   859  SPO859     -0.0482
     36  C34       47.5130  102.2070   40.4960 C.3   859  SPO859      0.0260
     37  C35       49.4100  102.1670   38.7580 C.3   859  SPO859      0.0217
     38  C36       50.6290  101.3150   39.1450 C.3   859  SPO859      0.0043
     39  C37       51.8190  101.6190   38.2520 C.3   859  SPO859      0.0003
     40  C38       52.0820  101.2930   36.9000 C.3   859  SPO859      0.0000
     41  C39       53.2530  100.4090   36.4020 C.3   859  SPO859      0.0000
     42  C40       51.2240  101.7780   35.7120 C.3   859  SPO859      0.0000
@<TRIPOS>BOND
     1    42    40    1
     2    31    30    1
     3    41    40    1
     4    40    39    1
     5    30    32    1
     6    30    29    2
     7    32    33    1
     8    39    38    1
     9    34    33    1
    10    34    35    2
    11    28    29    1
    12    28    27    2
    13    37    38    1
    14    37    35    1
    15    35    36    1
    16    26    25    1
    17    27    25    1
    18    25    24    1
    19    24    23    1
    20    23    22    1
    21    22    21    1
    22    21    19    2
    23    19    20    1
    24    19    18    1
    25    18    17    1
    26    17    16    2
    27    16    14    1
    28    14    15    1
    29    14    13    2
    30    13    12    1
    31    12    11    1
    32    11     9    2
    33     9     8    1
    34     9    10    1
    35     8     7    1
    36     7     6    2
    37     6     3    1
    38     5     3    1
    39     3     4    1
    40     3     2    1
    41     2     1    1
