@<TRIPOS>MOLECULE
1jgz_SPO_M_1.pdb
 42 41 0 0 0
SMALL
GASTEIGER

@<TRIPOS>ATOM
      1  CM1       43.7500   85.5120   56.4170 C.3   859  SPO859      0.1739
      2  O1        44.5540   86.7330   55.9380 O.3   859  SPO859     -0.3555
      3  C1        45.6470   86.6090   54.7990 C.3   859  SPO859      0.0970
      4  C2        46.6190   87.7880   54.9790 C.3   859  SPO859      0.0300
      5  C3        46.4540   85.2940   54.9030 C.3   859  SPO859      0.0300
      6  C4        45.0500   86.7630   53.3890 C.3   859  SPO859      0.0532
      7  C5        43.7680   87.4270   53.3320 C.2   859  SPO859     -0.0240
      8  C6        43.4580   88.3740   52.2050 C.2   859  SPO859     -0.0091
      9  C7        42.2360   89.0680   52.0270 C.2   859  SPO859     -0.0261
     10  C8        41.1530   88.7880   53.1340 C.3   859  SPO859      0.0307
     11  C9        42.1150   89.8890   50.9140 C.2   859  SPO859     -0.0257
     12  C10       40.8400   90.6730   50.6120 C.3   859  SPO859      0.0513
     13  C11       40.7980   91.5190   49.3460 C.2   859  SPO859     -0.0257
     14  C12       39.5890   91.9080   48.7580 C.2   859  SPO859     -0.0261
     15  C13       38.1770   91.4900   49.3890 C.3   859  SPO859      0.0307
     16  C14       39.7470   92.6890   47.5810 C.2   859  SPO859     -0.0088
     17  C15       38.5260   93.2320   46.7620 C.2   859  SPO859     -0.0221
     18  C16       38.6100   94.1060   45.4440 C.3   859  SPO859      0.0476
     19  C17       37.3820   94.5270   44.8290 C.2   859  SPO859     -0.0438
     20  C18       36.0040   94.1540   45.4100 C.3   859  SPO859      0.0264
     21  C19       37.3330   95.3110   43.6570 C.2   859  SPO859     -0.0343
     22  C20       38.4490   95.7820   42.9470 C.3   859  SPO859      0.0254
     23  C21       38.3290   96.9960   42.0600 C.3   859  SPO859      0.0050
     24  C22       39.6030   97.3580   41.4080 C.3   859  SPO859      0.0047
     25  C23       39.8090   97.7500   40.0910 C.3   859  SPO859      0.0220
     26  C24       38.8960   98.8940   39.5680 C.3   859  SPO859      0.0047
     27  C25       41.1960   97.9530   40.0790 C.2   859  SPO859     -0.0265
     28  C26       41.9910   98.3900   38.9210 C.2   859  SPO859     -0.0052
     29  C27       43.4660   98.5210   39.1110 C.2   859  SPO859     -0.0088
     30  C28       44.3100   98.9290   38.0730 C.2   859  SPO859     -0.0436
     31  C29       43.8450   99.2930   36.6220 C.3   859  SPO859      0.0264
     32  C30       45.8390   99.0480   38.2720 C.3   859  SPO859      0.0267
     33  C31       46.2370  100.2520   39.1120 C.3   859  SPO859      0.0297
     34  C32       47.4410  100.8550   38.6830 C.2   859  SPO859     -0.0343
     35  C33       48.3940  101.6520   39.3590 C.2   859  SPO859     -0.0482
     36  C34       48.3110  102.0660   40.8270 C.3   859  SPO859      0.0260
     37  C35       49.6750  102.2320   38.6610 C.3   859  SPO859      0.0217
     38  C36       51.0450  101.6720   39.0760 C.3   859  SPO859      0.0043
     39  C37       52.1160  102.1310   38.1100 C.3   859  SPO859      0.0003
     40  C38       52.5160  101.6210   36.8520 C.3   859  SPO859      0.0000
     41  C39       53.8880  100.9750   36.5410 C.3   859  SPO859      0.0000
     42  C40       51.6280  101.6260   35.5880 C.3   859  SPO859      0.0000
@<TRIPOS>BOND
     1    42    40    1
     2    41    40    1
     3    31    30    1
     4    40    39    1
     5    30    32    1
     6    30    29    2
     7    39    38    1
     8    32    33    1
     9    37    38    1
    10    37    35    1
    11    34    33    1
    12    34    35    2
    13    28    29    1
    14    28    27    2
    15    35    36    1
    16    26    25    1
    17    27    25    1
    18    25    24    1
    19    24    23    1
    20    23    22    1
    21    22    21    1
    22    21    19    2
    23    19    20    1
    24    19    18    1
    25    18    17    1
    26    17    16    2
    27    16    14    1
    28    14    13    2
    29    14    15    1
    30    13    12    1
    31    12    11    1
    32    11     9    2
    33     9     8    1
    34     9    10    1
    35     8     7    2
    36     7     6    1
    37     6     3    1
    38     3     5    1
    39     3     4    1
    40     3     2    1
    41     2     1    1
