@<TRIPOS>MOLECULE
1jgz_U10_M_1.pdb
 48 48 0 0 0
SMALL
GASTEIGER

@<TRIPOS>ATOM
      1  C1        20.9670   78.4840   19.0120 C.2   857  U10857      0.0198
      2  C2        21.9250   77.3360   18.9410 C.2   857  U10857      0.2282
      3  C3        22.2650   76.6580   17.6110 C.2   857  U10857      0.2140
      4  C4        21.5950   77.1500   16.3160 C.2   857  U10857      0.2140
      5  C5        20.6310   78.3030   16.3950 C.2   857  U10857      0.2285
      6  C6        20.2990   79.0110   17.7520 C.2   857  U10857      0.0235
      7  C1M       20.6800   79.1260   20.3780 C.3   857  U10857      0.0343
      8  C3M       22.9470   74.3250   18.1820 C.3   857  U10857      0.2528
      9  C4M       21.9240   75.1750   14.7600 C.3   857  U10857      0.2528
     10  C7        19.3280   80.2360   17.9210 C.3   857  U10857      0.0548
     11  C8        19.7220   81.1590   16.8800 C.2   857  U10857     -0.0298
     12  C9        20.3650   82.3810   16.8570 C.2   857  U10857     -0.0475
     13  C10       20.5310   82.9160   15.4500 C.3   857  U10857      0.0260
     14  C11       20.8970   83.2140   18.0170 C.3   857  U10857      0.0264
     15  C12       20.8480   84.7320   17.6910 C.3   857  U10857      0.0297
     16  C13       20.7810   85.7180   18.7740 C.2   857  U10857     -0.0342
     17  C14       19.6780   86.2710   19.4490 C.2   857  U10857     -0.0478
     18  C15       20.0900   87.2730   20.5080 C.3   857  U10857      0.0260
     19  C16       18.2030   85.9180   19.1650 C.3   857  U10857      0.0263
     20  C17       17.1470   86.6590   20.0280 C.3   857  U10857      0.0297
     21  C18       16.6930   87.9310   19.4180 C.2   857  U10857     -0.0342
     22  C19       15.5410   88.2270   18.6620 C.2   857  U10857     -0.0478
     23  C20       15.3840   89.6660   18.1750 C.3   857  U10857      0.0260
     24  C21       14.4490   87.2380   18.2920 C.3   857  U10857      0.0263
     25  C22       13.2990   87.8050   17.4590 C.3   857  U10857      0.0297
     26  C23       12.0960   87.1700   17.9590 C.2   857  U10857     -0.0342
     27  C24       10.9400   86.8310   17.2580 C.2   857  U10857     -0.0478
     28  C25        9.8380   86.1600   18.0910 C.3   857  U10857      0.0260
     29  C26       10.7420   87.0920   15.7520 C.3   857  U10857      0.0263
     30  C27        9.4020   86.6380   15.1780 C.3   857  U10857      0.0297
     31  C28        8.4840   87.7590   15.0410 C.2   857  U10857     -0.0342
     32  C29        7.1230   87.6980   15.3930 C.2   857  U10857     -0.0478
     33  C30        6.2520   88.9600   15.2070 C.3   857  U10857      0.0260
     34  C31        6.4830   86.4190   15.9640 C.3   857  U10857      0.0263
     35  C32        5.6300   85.6270   14.9560 C.3   857  U10857      0.0297
     36  C33        4.4580   85.1670   15.7050 C.2   857  U10857     -0.0342
     37  C34        3.7660   83.9490   15.5530 C.2   857  U10857     -0.0478
     38  C35        2.5840   83.7540   16.4850 C.3   857  U10857      0.0260
     39  C36        4.1130   82.8370   14.5480 C.3   857  U10857      0.0263
     40  C37        2.9000   82.1050   13.9640 C.3   857  U10857      0.0297
     41  C38        2.4380   82.9010   12.8410 C.2   857  U10857     -0.0342
     42  C39        1.1260   83.3230   12.6250 C.2   857  U10857     -0.0478
     43  C40        0.8350   84.1620   11.3790 C.3   857  U10857      0.0260
     44  C41       -0.0300   82.9960   13.5640 C.3   857  U10857      0.0260
     45  O2        22.4460   76.9510   19.9870 O.2   857  U10857     -0.2836
     46  O3        23.2090   75.5780   17.5740 O.2   857  U10857     -0.4652
     47  O4        21.8420   76.5770   15.0290 O.2   857  U10857     -0.4652
     48  O5        20.1340   78.6500   15.3120 O.2   857  U10857     -0.2835
@<TRIPOS>BOND
     1    43    42    1
     2    42    41    2
     3    42    44    1
     4    41    40    1
     5    40    39    1
     6    39    37    1
     7     9    47    1
     8    35    36    1
     9    35    34    1
    10    47     4    1
    11    31    30    1
    12    31    32    2
    13    30    29    1
    14    33    32    1
    15    48     5    2
    16    32    34    1
    17    13    12    1
    18    37    36    2
    19    37    38    1
    20    29    27    1
    21     4     5    1
    22     4     3    2
    23     5     6    1
    24    12    11    2
    25    12    14    1
    26    11    10    1
    27    27    26    2
    28    27    28    1
    29    25    26    1
    30    25    24    1
    31    46     3    1
    32    46     8    1
    33     3     2    1
    34    15    14    1
    35    15    16    1
    36     6    10    1
    37     6     1    2
    38    23    22    1
    39    24    22    1
    40    22    21    2
    41    16    17    2
    42     2     1    1
    43     2    45    2
    44     1     7    1
    45    19    17    1
    46    19    20    1
    47    21    20    1
    48    17    18    1
