@<TRIPOS>MOLECULE
1jh0_U10_M_1.pdb
 48 48 0 0 0
SMALL
GASTEIGER

@<TRIPOS>ATOM
      1  C1        20.8550   78.1010   19.0050 C.2   857  U10857      0.0198
      2  C2        21.6800   76.8640   18.9240 C.2   857  U10857      0.2282
      3  C3        21.9250   76.1490   17.5980 C.2   857  U10857      0.2140
      4  C4        21.3100   76.6950   16.3050 C.2   857  U10857      0.2140
      5  C5        20.4730   77.9510   16.3960 C.2   857  U10857      0.2285
      6  C6        20.2270   78.6960   17.7510 C.2   857  U10857      0.0235
      7  C1M       20.6650   78.7520   20.3770 C.3   857  U10857      0.0343
      8  C3M       24.1330   75.1010   17.7030 C.3   857  U10857      0.2528
      9  C4M       22.2490   74.9590   14.6470 C.3   857  U10857      0.2528
     10  C7        19.3770   80.0220   17.9200 C.3   857  U10857      0.0548
     11  C8        19.6670   80.8350   16.7600 C.2   857  U10857     -0.0298
     12  C9        20.3450   82.0160   16.5940 C.2   857  U10857     -0.0475
     13  C10       20.3970   82.4800   15.1490 C.3   857  U10857      0.0260
     14  C11       21.0120   82.8570   17.6500 C.3   857  U10857      0.0264
     15  C12       20.7920   84.3380   17.3840 C.3   857  U10857      0.0297
     16  C13       20.7850   85.2580   18.4970 C.2   857  U10857     -0.0342
     17  C14       19.7290   85.6940   19.2830 C.2   857  U10857     -0.0478
     18  C15       20.1740   86.6810   20.3400 C.3   857  U10857      0.0260
     19  C16       18.2670   85.2370   19.0970 C.3   857  U10857      0.0263
     20  C17       17.2200   85.8520   20.0530 C.3   857  U10857      0.0297
     21  C18       16.8420   87.1970   19.6120 C.2   857  U10857     -0.0342
     22  C19       15.9400   87.6230   18.6350 C.2   857  U10857     -0.0478
     23  C20       15.8270   89.1160   18.4330 C.3   857  U10857      0.0260
     24  C21       15.0800   86.7440   17.7500 C.3   857  U10857      0.0263
     25  C22       13.7250   87.3610   17.3550 C.3   857  U10857      0.0297
     26  C23       12.6630   86.6460   18.0620 C.2   857  U10857     -0.0342
     27  C24       11.4020   86.2820   17.5760 C.2   857  U10857     -0.0478
     28  C25       10.4910   85.5360   18.5600 C.3   857  U10857      0.0260
     29  C26       10.9170   86.5940   16.1570 C.3   857  U10857      0.0263
     30  C27        9.5140   86.1190   15.8300 C.3   857  U10857      0.0297
     31  C28        8.9120   87.0000   14.8430 C.2   857  U10857     -0.0342
     32  C29        7.5270   87.1250   14.6640 C.2   857  U10857     -0.0478
     33  C30        6.9970   88.0970   13.5840 C.3   857  U10857      0.0260
     34  C31        6.5380   86.3210   15.5170 C.3   857  U10857      0.0263
     35  C32        5.7220   85.2740   14.7500 C.3   857  U10857      0.0297
     36  C33        4.4540   85.2180   15.4570 C.2   857  U10857     -0.0342
     37  C34        3.7050   84.0800   15.7550 C.2   857  U10857     -0.0478
     38  C35        2.4150   84.3400   16.5120 C.3   857  U10857      0.0260
     39  C36        4.0800   82.6290   15.3840 C.3   857  U10857      0.0263
     40  C37        3.0510   81.9040   14.4960 C.3   857  U10857      0.0297
     41  C38        2.9920   82.6070   13.2170 C.2   857  U10857     -0.0342
     42  C39        1.8560   82.7550   12.4160 C.2   857  U10857     -0.0478
     43  C40        1.9990   83.5400   11.1060 C.3   857  U10857      0.0260
     44  C41        0.4830   82.1820   12.7810 C.3   857  U10857      0.0260
     45  O2        22.1730   76.4230   19.9700 O.2   857  U10857     -0.2836
     46  O3        22.7160   74.9820   17.5900 O.2   857  U10857     -0.4652
     47  O4        21.4650   76.1040   14.9960 O.2   857  U10857     -0.4652
     48  O5        20.0000   78.3500   15.3160 O.2   857  U10857     -0.2835
@<TRIPOS>BOND
     1    43    42    1
     2    42    44    1
     3    42    41    2
     4    41    40    1
     5    33    32    1
     6    40    39    1
     7     9    47    1
     8    32    31    2
     9    32    34    1
    10    35    36    1
    11    35    34    1
    12    31    30    1
    13    47     4    1
    14    13    12    1
    15    48     5    2
    16    39    37    1
    17    36    37    2
    18    37    38    1
    19    30    29    1
    20    29    27    1
    21     4     5    1
    22     4     3    2
    23     5     6    1
    24    12    11    2
    25    12    14    1
    26    11    10    1
    27    25    24    1
    28    25    26    1
    29    15    14    1
    30    15    16    1
    31    27    26    2
    32    27    28    1
    33    46     3    1
    34    46     8    1
    35     3     2    1
    36    24    22    1
    37     6    10    1
    38     6     1    2
    39    23    22    1
    40    16    17    2
    41    22    21    2
    42     2     1    1
    43     2    45    2
    44     1     7    1
    45    19    17    1
    46    19    20    1
    47    17    18    1
    48    21    20    1
