@<TRIPOS>MOLECULE
1jh0_SPO_M_1.pdb
 42 41 0 0 0
SMALL
GASTEIGER

@<TRIPOS>ATOM
      1  CM1       42.8960   84.7990   55.9690 C.3   859  SPO859      0.1739
      2  O1        43.8930   86.0060   55.9490 O.3   859  SPO859     -0.3555
      3  C1        45.0790   86.1200   54.8880 C.3   859  SPO859      0.0970
      4  C2        46.2870   86.7290   55.5980 C.3   859  SPO859      0.0300
      5  C3        45.5010   84.7440   54.3200 C.3   859  SPO859      0.0300
      6  C4        44.7540   87.0940   53.7520 C.3   859  SPO859      0.0532
      7  C5        43.3450   87.3170   53.5130 C.2   859  SPO859     -0.0240
      8  C6        42.9210   88.2300   52.3930 C.2   859  SPO859     -0.0091
      9  C7        41.6600   88.8520   52.2480 C.2   859  SPO859     -0.0261
     10  C8        40.6320   88.5350   53.3860 C.3   859  SPO859      0.0307
     11  C9        41.4800   89.6520   51.1410 C.2   859  SPO859     -0.0257
     12  C10       40.1910   90.3940   50.8200 C.3   859  SPO859      0.0513
     13  C11       40.1980   91.2330   49.5500 C.2   859  SPO859     -0.0257
     14  C12       39.0460   91.5570   48.8560 C.2   859  SPO859     -0.0261
     15  C13       37.6150   91.0590   49.3450 C.3   859  SPO859      0.0307
     16  C14       39.2810   92.3650   47.7200 C.2   859  SPO859     -0.0088
     17  C15       38.1170   92.8720   46.8220 C.2   859  SPO859     -0.0221
     18  C16       38.2590   93.7890   45.5460 C.3   859  SPO859      0.0476
     19  C17       37.0600   94.1850   44.8730 C.2   859  SPO859     -0.0438
     20  C18       35.6640   93.7530   45.3490 C.3   859  SPO859      0.0264
     21  C19       37.0520   95.0000   43.7440 C.2   859  SPO859     -0.0343
     22  C20       38.1720   95.5350   43.0970 C.3   859  SPO859      0.0254
     23  C21       38.0070   96.7060   42.1620 C.3   859  SPO859      0.0050
     24  C22       39.2700   97.1230   41.5510 C.3   859  SPO859      0.0047
     25  C23       39.4690   97.4540   40.2210 C.3   859  SPO859      0.0220
     26  C24       38.5050   98.5240   39.6520 C.3   859  SPO859      0.0047
     27  C25       40.8400   97.7340   40.1960 C.2   859  SPO859     -0.0265
     28  C26       41.5910   98.1390   38.9970 C.2   859  SPO859     -0.0052
     29  C27       43.0470   98.3780   39.1440 C.2   859  SPO859     -0.0088
     30  C28       43.8400   98.7710   38.0590 C.2   859  SPO859     -0.0436
     31  C29       43.3350   99.0090   36.6000 C.3   859  SPO859      0.0264
     32  C30       45.3570   99.0200   38.2140 C.3   859  SPO859      0.0267
     33  C31       45.6510  100.3420   38.8940 C.3   859  SPO859      0.0297
     34  C32       46.9520  100.8220   38.6490 C.2   859  SPO859     -0.0343
     35  C33       47.7460  101.7520   39.3540 C.2   859  SPO859     -0.0482
     36  C34       47.2920  102.4730   40.6260 C.3   859  SPO859      0.0260
     37  C35       49.2050  102.1760   38.9170 C.3   859  SPO859      0.0217
     38  C36       50.3320  101.1310   39.0450 C.3   859  SPO859      0.0043
     39  C37       51.5350  101.4900   38.1900 C.3   859  SPO859      0.0003
     40  C38       51.7700  101.3830   36.7950 C.3   859  SPO859      0.0000
     41  C39       52.3210  100.1300   36.0580 C.3   859  SPO859      0.0000
     42  C40       51.5110  102.5280   35.7940 C.3   859  SPO859      0.0000
@<TRIPOS>BOND
     1    42    40    1
     2    41    40    1
     3    31    30    1
     4    40    39    1
     5    30    32    1
     6    30    29    2
     7    39    38    1
     8    32    33    1
     9    34    33    1
    10    34    35    2
    11    37    38    1
    12    37    35    1
    13    28    29    1
    14    28    27    2
    15    35    36    1
    16    26    25    1
    17    27    25    1
    18    25    24    1
    19    24    23    1
    20    23    22    1
    21    22    21    1
    22    21    19    2
    23    19    20    1
    24    19    18    1
    25    18    17    1
    26    17    16    2
    27    16    14    1
    28    14    15    1
    29    14    13    2
    30    13    12    1
    31    12    11    1
    32    11     9    2
    33     9     8    1
    34     9    10    1
    35     8     7    2
    36     7     6    1
    37     6     3    1
    38     5     3    1
    39     3     4    1
    40     3     2    1
    41     2     1    1
