@<TRIPOS>MOLECULE
1jh1_JST_A_1.pdb
 17 18 0 0 0
SMALL
GASTEIGER

@<TRIPOS>ATOM
      1  S1        27.0330   60.8770   55.6740 S.3   1000  JST1000    -0.0704
      2 CL1        23.7900   65.7540   61.7490 Cl    1000  JST1000    -0.0822
      3  N1        24.1810   61.0610   56.8510 N.2   1000  JST1000    -0.1497
      4  N2        24.4670   60.1020   55.8440 N.2   1000  JST1000    -0.1251
      5  N3        25.6460   59.3460   53.9770 N.pl3 1000  JST1000    -0.2088
      6  C1        25.0980   62.3230   60.0750 C.ar  1000  JST1000     0.0021
      7  C2        24.7790   63.3310   61.0260 C.ar  1000  JST1000     0.0114
      8  C3        24.1830   64.5270   60.5870 C.ar  1000  JST1000     0.0577
      9  C4        23.8950   64.7470   59.2200 C.ar  1000  JST1000     0.0114
     10  C5        24.2250   63.7200   58.2830 C.ar  1000  JST1000     0.0021
     11  C6        24.8340   62.4790   58.6800 C.ar  1000  JST1000     0.0162
     12  C7        25.1540   61.4520   57.6190 C.2   1000  JST1000     0.0918
     13  C8        26.5540   60.8940   57.4360 C.3   1000  JST1000     0.1123
     14  C9        25.6210   60.0370   55.1100 C.2   1000  JST1000     0.1966
     15  C10       26.1410   59.8650   52.6910 C.3   1000  JST1000     0.1404
     16  C11       26.4580   58.7690   51.7200 C.2   1000  JST1000    -0.0029
     17  C12       26.9230   58.9690   50.4900 C.2   1000  JST1000    -0.0031
@<TRIPOS>BOND
     1    17    16    2
     2    16    15    1
     3    15     5    1
     4     5    14    1
     5    14     1    1
     6    14     4    2
     7     1    13    1
     8     4     3    1
     9     3    12    2
    10    13    12    1
    11    12    11    1
    12    10    11   ar
    13    10     9   ar
    14    11     6   ar
    15     9     8   ar
    16     6     7   ar
    17     8     7   ar
    18     8     2    1
