@<TRIPOS>MOLECULE
1jh7_UVC_A_1.pdb
 21 23 0 0 0
SMALL
GASTEIGER

@<TRIPOS>ATOM
      1  N1        40.7180   46.0510   22.0580 N.am  201  UVC201      0.0000
      2  C2        41.8750   45.2550   22.5100 C.1   201  UVC201      0.0000
      3  N3        42.7060   45.8000   23.5610 N.2   201  UVC201      0.0000
      4  C4        42.4380   47.0930   24.1850 C.1   201  UVC201      0.0000
      5  C5        41.2490   47.8380   23.6830 C.2   201  UVC201      0.0000
      6  C6        40.4640   47.3300   22.6850 C.2   201  UVC201      0.0000
      7  O2        42.1720   44.1550   22.0450 O.2   201  UVC201      0.0000
      8  O4        43.2200   47.4520   25.0760 O.2   201  UVC201      0.0000
      9  C1'       39.7490   45.6670   20.9290 C.3   201  UVC201      0.0000
     10  C2'       40.3000   44.6500   19.8900 C.3   201  UVC201      0.0000
     11  O2'       40.3990   45.1740   18.6150 O.3   201  UVC201      0.0000
     12  C3'       39.2580   43.4920   19.8770 C.3   201  UVC201      0.0000
     13  C4'       38.1610   43.8890   20.8970 C.3   201  UVC201      0.0000
     14  O3'       38.7590   43.3530   18.5860 O.3   201  UVC201      0.0000
     15  O4'       38.5290   45.1730   21.4840 O.3   201  UVC201      0.0000
     16  C5'       37.9280   42.8130   21.9710 C.3   201  UVC201      0.0000
     17  O5'       37.1940   41.7260   21.4660 O.3   201  UVC201      0.0000
     18  V         39.3710   44.4270   17.4080 V     201  UVC201      0.0000
     19  O1V       38.3670   45.7560   17.2410 O.3   201  UVC201      0.0000
     20  O2V       38.7110   43.4500   16.2140 O.3   201  UVC201      0.0000
     21  O3V       40.6700   44.3020   16.3670 O.3   201  UVC201      0.0000
@<TRIPOS>BOND
     1    20    18    1
     2    21    18    1
     3    19    18    1
     4    18    14    1
     5    18    11    1
     6    14    12    1
     7    11    10    1
     8    12    10    1
     9    12    13    1
    10    10     9    1
    11    13    15    1
    12    13    16    1
    13     9    15    1
    14     9     1    1
    15    17    16    1
    16     7     2    2
    17     1     2   am
    18     1     6    1
    19     2     3    2
    20     6     5    2
    21     3     4    2
    22     5     4    1
    23     4     8    2
