@<TRIPOS>MOLECULE
1jh8_ADE_A_1.pdb
 10 11 0 0 0
SMALL
GASTEIGER

@<TRIPOS>ATOM
      1  N9        56.3540   41.8090   14.4070 N.2   999  ADE999     -0.1914
      2  C8        56.1190   41.0580   13.2910 C.3   999  ADE999      0.2618
      3  N7        57.0310   41.2520   12.3140 N.2   999  ADE999     -0.2267
      4  C5        57.9190   42.1720   12.8610 C.2   999  ADE999      0.2303
      5  C6        59.1040   42.7770   12.3500 C.2   999  ADE999      0.4393
      6  N6        59.6610   42.5570   11.1520 N.pl3 999  ADE999      0.2185
      7  N1        59.7150   43.6890   13.1510 N.2   999  ADE999     -0.0265
      8  C2        59.1890   43.9340   14.3920 C.3   999  ADE999      0.4008
      9  N3        58.1140   43.4420   14.9440 N.2   999  ADE999     -0.1640
     10  C4        57.5080   42.5450   14.1330 C.1   999  ADE999      0.0579
@<TRIPOS>BOND
     1     6     5    1
     2     3     4    2
     3     3     2    1
     4     5     4    1
     5     5     7    2
     6     4    10    1
     7     7     8    1
     8     2     1    1
     9    10     1    2
    10    10     9    2
    11     8     9    1
