@<TRIPOS>MOLECULE
1jh9_HPA_A_1.pdb
 10 11 0 0 0
SMALL
GASTEIGER

@<TRIPOS>ATOM
      1  N1       118.7100    2.6020   10.6830 N.2   599  HPA599     -0.1726
      2  C2       117.9110    2.7010    9.5660 C.3   599  HPA599      0.2725
      3  N3       117.2630    3.8090    9.2190 N.2   599  HPA599     -0.1902
      4  C4       117.4540    4.8150   10.1100 C.1   599  HPA599      0.0598
      5  C5       118.2360    4.8110   11.2460 C.2   599  HPA599      0.2226
      6  C6       118.9450    3.6320   11.5930 C.1   599  HPA599      0.1796
      7  O6       119.6970    3.4330   12.5610 O.2   599  HPA599     -0.2200
      8  N7       118.1710    6.0510   11.8760 N.2   599  HPA599     -0.2230
      9  C8       117.3810    6.7680   11.1260 C.3   599  HPA599      0.2622
     10  N9       116.9070    6.0800   10.0330 N.2   599  HPA599     -0.1910
@<TRIPOS>BOND
     1     3     2    1
     2     3     4    2
     3     2     1    1
     4    10     4    2
     5    10     9    1
     6     4     5    1
     7     1     6    2
     8     9     8    1
     9     5     6    1
    10     5     8    2
    11     6     7    2
