@<TRIPOS>MOLECULE
1jha_AAM_A_1.pdb
 23 25 0 0 0
SMALL
GASTEIGER

@<TRIPOS>ATOM
      1  C8A       55.9160   40.7670   12.9740 C.3   990  AAM990      0.2146
      2  N9A       56.2480   41.4700   14.0790 N.2   990  AAM990     -0.2038
      3  C4A       57.4330   42.1060   13.7830 C.1   990  AAM990      0.0350
      4  C5A       57.7740   41.7210   12.4880 C.3   990  AAM990      0.2614
      5  N7A       56.7730   40.8930   11.9410 N.3   990  AAM990     -0.2054
      6  N3A       58.1390   42.9020   14.6200 N.2   990  AAM990     -0.1680
      7  C2A       59.2640   43.3490   14.0270 C.3   990  AAM990      0.4001
      8  N1A       59.7050   43.0900   12.7530 N.2   990  AAM990     -0.0303
      9  C6A       58.9920   42.2580   11.9500 C.2   990  AAM990      0.4178
     10  N6A       59.5290   42.0310   10.6440 N.pl3 990  AAM990      0.2134
     11  P         59.4200   39.2830    6.0500 P.3   990  AAM990      0.5327
     12  O1P       59.1570   38.0420    5.2480 O.3   990  AAM990     -0.1145
     13  O2P       59.5570   40.4450    5.1260 O.2   990  AAM990     -0.2224
     14  O3P       60.6720   39.1230    6.8280 O.3   990  AAM990     -0.1145
     15  O6'       58.2460   39.5610    7.1020 O.3   990  AAM990     -0.2675
     16  C5'       57.6720   38.5180    7.8920 C.3   990  AAM990      0.1859
     17  C4'       57.9830   38.8200    9.3260 C.3   990  AAM990      0.1798
     18  O5'       57.7060   40.2060    9.6500 O.3   990  AAM990     -0.3353
     19  C3'       57.2380   38.0310   10.3560 C.3   990  AAM990      0.2155
     20  O3'       57.9180   38.0320   11.6110 O.3   990  AAM990     -0.2176
     21  C2'       56.0000   38.8780   10.4930 C.3   990  AAM990      0.2272
     22  O2'       55.4400   38.4490   11.7470 O.3   990  AAM990     -0.2161
     23  C1'       56.5720   40.3010   10.5490 C.3   990  AAM990      0.2122
@<TRIPOS>BOND
     1    13    11    2
     2    12    11    1
     3    11    14    1
     4    11    15    1
     5    15    16    1
     6    16    17    1
     7    17    18    1
     8    17    19    1
     9    18    23    1
    10    19    21    1
    11    19    20    1
    12    21    23    1
    13    21    22    1
    14    23     5    1
    15    10     9    1
    16     5     4    1
    17     5     1    1
    18     9     4    1
    19     9     8    2
    20     4     3    1
    21     8     7    1
    22     1     2    1
    23     3     2    2
    24     3     6    2
    25     7     6    1
