@<TRIPOS>MOLECULE
1jhg_TRP_A_1.pdb
 27 28 0 0 0
SMALL
GASTEIGER

@<TRIPOS>ATOM
      1  N          3.6270    8.4610   -9.9180 N.4   111  TRP111      0.3873
      2  CA         2.7570    9.6320  -10.1610 C.3   111  TRP111      0.0246
      3  C          3.6440   10.9150  -10.1260 C.2   111  TRP111      0.3423
      4  O          4.7310   10.8140   -9.5770 O.co2 111  TRP111     -0.2482
      5  CB         1.6570    9.6760   -9.0940 C.3   111  TRP111     -0.0286
      6  CG         0.4230   10.4040   -9.5410 C.ar  111  TRP111     -0.0234
      7  CD1        0.1510   11.7150   -9.3670 C.ar  111  TRP111      0.0059
      8  CD2       -0.6720    9.8260  -10.2650 C.ar  111  TRP111      0.0028
      9  NE1       -1.0750   12.0140   -9.9390 N.ar  111  TRP111     -0.3604
     10  CE2       -1.6250   10.8520  -10.4750 C.ar  111  TRP111      0.0467
     11  CE3       -0.9650    8.5420  -10.6870 C.ar  111  TRP111     -0.0523
     12  CZ2       -2.8230   10.5810  -11.1270 C.ar  111  TRP111     -0.0378
     13  CZ3       -2.1510    8.2720  -11.3010 C.ar  111  TRP111     -0.0611
     14  CH2       -3.0790    9.3200  -11.5160 C.ar  111  TRP111     -0.0598
     15  OXT        3.2390   11.8840  -10.7530 O.co2 111  TRP111     -0.2482
     16  H2         3.9990    8.5290   -9.1120 H     111  TRP111     -0.0889
     17  H          4.2650    8.4320  -10.5380 H     111  TRP111     -0.0889
     18  H3         3.1410    7.7170   -9.9580 H     111  TRP111     -0.0889
     19  HA         2.3440    9.5490  -11.0460 H     111  TRP111      0.0201
     20  HB2        1.4170    8.7670   -8.8540 H     111  TRP111      0.0303
     21  HB3        2.0070   10.1090   -8.3000 H     111  TRP111      0.0303
     22  HD1        0.7010   12.3230   -8.9290 H     111  TRP111      0.0810
     23  HE1       -1.4380   12.7940   -9.9600 H     111  TRP111      0.1653
     24  HE3       -0.3480    7.8590  -10.5500 H     111  TRP111      0.0624
     25  HZ2       -3.4370   11.2600  -11.2900 H     111  TRP111      0.0638
     26  HZ3       -2.3500    7.4060  -11.5770 H     111  TRP111      0.0618
     27  HH2       -3.8860    9.1310  -11.9380 H     111  TRP111      0.0618
@<TRIPOS>BOND
     1    27    14    1
     2    26    13    1
     3    14    13   ar
     4    14    12   ar
     5    13    11   ar
     6    25    12    1
     7    12    10   ar
     8    19     2    1
     9    15     3   ar
    10    11    24    1
    11    11     8   ar
    12    17     1    1
    13    10     8   ar
    14    10     9   ar
    15     8     6   ar
    16     2     3    1
    17     2     1    1
    18     2     5    1
    19     3     4   ar
    20    23     9    1
    21    18     1    1
    22     9     7   ar
    23     1    16    1
    24     6     7   ar
    25     6     5    1
    26     7    22    1
    27     5    20    1
    28     5    21    1
