@<TRIPOS>MOLECULE
1jhm_5MB_A_1.pdb
 10 11 0 0 0
SMALL
GASTEIGER

@<TRIPOS>ATOM
      1  N3        56.4640   41.6500   14.4970 N.2   990  5MB990     -0.2428
      2  N1        57.0520   40.9580   12.4570 N.2   990  5MB990     -0.2428
      3  C2        56.2050   40.8020   13.4950 C.3   990  5MB990      0.2508
      4  C7A       57.9280   41.9830   12.8440 C.ar  990  5MB990      0.0955
      5  C3A       57.5640   42.4020   14.1000 C.ar  990  5MB990      0.0952
      6  C4        58.2930   43.4110   14.7280 C.ar  990  5MB990      0.0160
      7  C5        59.3670   44.0060   14.0820 C.ar  990  5MB990     -0.0203
      8  C6        59.7570   43.5780   12.7890 C.ar  990  5MB990     -0.0026
      9  C7        59.0550   42.5510   12.1890 C.ar  990  5MB990      0.0199
     10  C8        60.1060   45.1250   14.7890 C.3   990  5MB990      0.0311
@<TRIPOS>BOND
     1     9     8   ar
     2     9     4   ar
     3     2     4    2
     4     2     3    1
     5     8     7   ar
     6     4     5   ar
     7     3     1    1
     8     7     6   ar
     9     7    10    1
    10     5     1    2
    11     5     6   ar
