@<TRIPOS>MOLECULE
1jho_RMB_A_1.pdb
 23 25 0 0 0
SMALL
GASTEIGER

@<TRIPOS>ATOM
      1  N3        56.3180   41.4560   14.0080 N.2   990  RMB990     -0.2549
      2  N1        56.6840   40.8130   11.8660 N.3   990  RMB990     -0.2199
      3  C2        55.9090   40.7110   12.9750 C.3   990  RMB990      0.2029
      4  C7A       57.7240   41.6690   12.2770 C.3   990  RMB990      0.1235
      5  C3A       57.4710   42.0880   13.5820 C.2   990  RMB990      0.0738
      6  C4        58.2970   43.0130   14.2180 C.2   990  RMB990      0.0117
      7  C5        59.4060   43.5010   13.5400 C.2   990  RMB990     -0.0209
      8  C6        59.6770   43.0750   12.2120 C.2   990  RMB990     -0.0071
      9  C7        58.8470   42.1550   11.5820 C.2   990  RMB990     -0.0047
     10  C8        60.3200   44.5090   14.2330 C.3   990  RMB990      0.0311
     11  P         59.4910   39.3200    6.0740 P.3   990  RMB990      0.5327
     12  O1P       59.2360   37.9900    5.4430 O.3   990  RMB990     -0.1145
     13  O2P       59.6590   40.5330    5.2140 O.2   990  RMB990     -0.2224
     14  O3P       60.5080   39.1920    7.1520 O.3   990  RMB990     -0.1145
     15  O5'       58.1780   39.5610    6.9770 O.3   990  RMB990     -0.2675
     16  C5'       57.7570   38.5880    7.9460 C.3   990  RMB990      0.1859
     17  C4'       58.1760   39.0430    9.3310 C.3   990  RMB990      0.1798
     18  O4'       57.5840   40.3430    9.6560 O.3   990  RMB990     -0.3354
     19  C3'       57.7290   38.1280   10.4450 C.3   990  RMB990      0.2155
     20  O3'       58.4990   38.3000   11.6400 O.3   990  RMB990     -0.2176
     21  C2'       56.3000   38.6750   10.6020 C.3   990  RMB990      0.2272
     22  O2'       55.8270   38.2880   11.9080 O.3   990  RMB990     -0.2161
     23  C1'       56.4820   40.1870   10.5320 C.3   990  RMB990      0.2115
@<TRIPOS>BOND
     1    13    11    2
     2    12    11    1
     3    11    15    1
     4    11    14    1
     5    15    16    1
     6    16    17    1
     7    17    18    1
     8    17    19    1
     9    18    23    1
    10    19    21    1
    11    19    20    1
    12    23    21    1
    13    23     2    1
    14    21    22    1
    15     9     8    2
    16     9     4    1
    17     2     4    1
    18     2     3    1
    19     8     7    1
    20     4     5    1
    21     3     1    1
    22     7     6    2
    23     7    10    1
    24     5     1    2
    25     5     6    1
