@<TRIPOS>MOLECULE
1jhp_5OB_A_1.pdb
 11 12 0 0 0
SMALL
GASTEIGER

@<TRIPOS>ATOM
      1  N3        56.7140   41.9650   14.3000 N.2   990  5OB990     -0.2427
      2  N1        57.1840   41.2770   12.2080 N.2   990  5OB990     -0.2428
      3  C2        56.3550   41.1740   13.2730 C.3   990  5OB990      0.2508
      4  C7A       58.1580   42.2030   12.6270 C.ar  990  5OB990      0.0957
      5  C3A       57.8640   42.6370   13.9010 C.ar  990  5OB990      0.0985
      6  C4        58.6840   43.5690   14.5350 C.ar  990  5OB990      0.0571
      7  C5        59.7950   44.0700   13.8700 C.ar  990  5OB990      0.1403
      8  C6        60.0940   43.6370   12.5670 C.ar  990  5OB990      0.0385
      9  C7        59.2790   42.6910   11.9660 C.ar  990  5OB990      0.0234
     10  O10       60.4820   44.9670   14.5990 O.3   990  5OB990     -0.4714
     11  C11       59.9190   45.0480   15.8860 C.3   990  5OB990      0.2525
@<TRIPOS>BOND
     1     9     8   ar
     2     9     4   ar
     3     2     4    2
     4     2     3    1
     5     8     7   ar
     6     4     5   ar
     7     3     1    1
     8     7     6   ar
     9     7    10    1
    10     5     1    2
    11     5     6   ar
    12    10    11    1
