@<TRIPOS>MOLECULE
1jhq_PMO_A_1.pdb
 24 26 0 0 0
SMALL
GASTEIGER

@<TRIPOS>ATOM
      1  N3        56.2990   41.4010   14.0420 N.2   990  PMO990     -0.2467
      2  N1        56.6380   40.8340   11.8820 N.pl3 990  PMO990     -0.2620
      3  C2        55.8530   40.7170   12.9820 C.3   990  PMO990      0.2217
      4  C7A       57.7000   41.6680   12.3270 C.2   990  PMO990      0.0647
      5  C3A       57.4650   42.0330   13.6400 C.2   990  PMO990      0.0937
      6  C4        58.3190   42.9080   14.3140 C.2   990  PMO990      0.0527
      7  C5        59.4620   43.3810   13.6920 C.2   990  PMO990      0.1221
      8  C6        59.7050   43.0180   12.3450 C.3   990  PMO990      0.0912
      9  C7        58.8380   42.1620   11.6770 C.2   990  PMO990     -0.0020
     10  O10       60.4090   44.2570   14.1570 O.2   990  PMO990     -0.4753
     11  C11       60.1040   44.6980   15.4660 C.3   990  PMO990      0.2520
     12  P         59.3970   39.3310    6.1030 P.3   990  PMO990      0.5327
     13  O1P       58.9980   38.1260    5.3200 O.3   990  PMO990     -0.1145
     14  O2P       59.6280   40.4890    5.2080 O.2   990  PMO990     -0.2224
     15  O3P       60.5080   39.1890    7.0990 O.3   990  PMO990     -0.1145
     16  O5'       58.0280   39.6190    6.9290 O.3   990  PMO990     -0.2675
     17  C5'       57.5420   38.6740    7.8900 C.3   990  PMO990      0.1859
     18  C4'       58.0550   39.0570    9.2670 C.3   990  PMO990      0.1801
     19  O4'       57.5090   40.3700    9.6420 O.3   990  PMO990     -0.3326
     20  C3'       57.6220   38.1250   10.3890 C.3   990  PMO990      0.2158
     21  O3'       58.4000   38.2690   11.5860 O.3   990  PMO990     -0.2175
     22  C2'       56.2070   38.6900   10.6080 C.3   990  PMO990      0.2309
     23  O2'       55.7520   38.2440   11.9090 O.3   990  PMO990     -0.2158
     24  C1'       56.4200   40.2110   10.5510 C.3   990  PMO990      0.2275
@<TRIPOS>BOND
     1    14    12    2
     2    13    12    1
     3    12    16    1
     4    12    15    1
     5    16    17    1
     6    17    18    1
     7    18    19    1
     8    18    20    1
     9    19    24    1
    10    20    22    1
    11    20    21    1
    12    24    22    1
    13    24     2    1
    14    22    23    1
    15     9     4    2
    16     9     8    1
    17     2     4    1
    18     2     3    1
    19     4     5    1
    20     8     7    1
    21     3     1    1
    22     5     1    2
    23     5     6    1
    24     7    10    1
    25     7     6    2
    26    10    11    1
