@<TRIPOS>MOLECULE
1jhr_P2P_A_1.pdb
 23 25 0 0 0
SMALL
GASTEIGER

@<TRIPOS>ATOM
      1  P         59.2540   39.3410    6.0910 P.3   990  P2P990      0.5327
      2  O1P       59.0920   38.0850    5.3070 O.3   990  P2P990     -0.1145
      3  O2P       59.5410   40.4840    5.1700 O.2   990  P2P990     -0.2224
      4  O3P       60.3920   39.1940    7.0360 O.3   990  P2P990     -0.1145
      5  O6'       57.9260   39.6070    6.9470 O.3   990  P2P990     -0.2675
      6  C5'       57.4130   38.5840    7.8410 C.3   990  P2P990      0.1859
      7  C4'       57.8610   38.9090    9.2510 C.3   990  P2P990      0.1801
      8  O5'       57.4360   40.2720    9.5920 O.3   990  P2P990     -0.3326
      9  C3'       57.3010   38.0300   10.3500 C.3   990  P2P990      0.2158
     10  O3'       58.1070   38.0080   11.5450 O.3   990  P2P990     -0.2175
     11  C2'       55.9760   38.7580   10.5820 C.3   990  P2P990      0.2310
     12  O2'       55.4800   38.3630   11.8750 O.3   990  P2P990     -0.2158
     13  C1'       56.3260   40.2460   10.5340 C.3   990  P2P990      0.2280
     14  C8        55.8330   40.7590   13.0120 C.3   990  P2P990      0.2342
     15  N9        56.3240   41.4500   14.0780 N.2   990  P2P990     -0.1855
     16  C4        57.4830   42.0510   13.6250 C.1   990  P2P990      0.1144
     17  C5        57.6450   41.6470   12.3040 C.2   990  P2P990      0.1473
     18  N7        56.5910   40.8540   11.8950 N.pl3 990  P2P990     -0.2523
     19  N3        58.3000   42.8590   14.3350 N.2   990  P2P990     -0.2619
     20  C2        59.3680   43.2440   13.5970 C.1   990  P2P990      0.3097
     21  N1        59.6390   42.9060   12.2850 N.2   990  P2P990     -0.1458
     22  C6        58.7900   42.0890   11.6020 C.2   990  P2P990      0.1394
     23  O11       60.2630   44.0770   14.2110 O.2   990  P2P990     -0.1878
@<TRIPOS>BOND
     1     3     1    2
     2     2     1    1
     3     1     5    1
     4     1     4    1
     5     5     6    1
     6     6     7    1
     7     7     8    1
     8     7     9    1
     9     8    13    1
    10     9    11    1
    11     9    10    1
    12    13    11    1
    13    13    18    1
    14    11    12    1
    15    22    21    1
    16    22    17    2
    17    18    17    1
    18    18    14    1
    19    21    20    2
    20    17    16    1
    21    14    15    1
    22    20    23    2
    23    20    19    2
    24    16    15    2
    25    16    19    2
