@<TRIPOS>MOLECULE
1ji0_ATP_A_1.pdb
 31 33 0 0 0
SMALL
GASTEIGER

@<TRIPOS>ATOM
      1  PG         3.4020   -7.6940   83.7200 P.3   302  ATP302      0.5373
      2  O1G        2.8890   -8.2820   84.9710 O.3   302  ATP302     -0.1143
      3  O2G        4.2670   -6.5080   83.8990 O.3   302  ATP302     -0.1143
      4  O3G        3.8760   -8.7290   82.7330 O.2   302  ATP302     -0.2221
      5  PB         1.9470   -6.0380   81.7710 P.3   302  ATP302      0.2277
      6  O1B        0.7750   -5.1300   81.9800 O.3   302  ATP302     -0.4368
      7  O2B        3.2450   -5.4420   81.5110 O.2   302  ATP302     -0.5168
      8  O3B        2.0850   -7.0200   83.0660 O.3   302  ATP302     -0.2258
      9  PA         2.0820   -7.6060   79.2910 P.3   302  ATP302      0.2189
     10  O1A        3.2720   -8.4320   79.5410 O.3   302  ATP302     -0.4371
     11  O2A        2.1710   -6.5570   78.2420 O.2   302  ATP302     -0.5170
     12  O3A        1.5170   -7.0430   80.6780 O.3   302  ATP302     -0.2700
     13  O5'        0.9000   -8.5720   78.9570 O.3   302  ATP302     -0.3112
     14  C5'       -0.4160   -8.0710   78.7030 C.3   302  ATP302      0.1813
     15  C4'       -0.7760   -8.1550   77.2640 C.3   302  ATP302      0.1821
     16  O4'       -0.8500   -9.5690   76.9210 O.3   302  ATP302     -0.3135
     17  C3'       -2.1540   -7.6110   76.9830 C.3   302  ATP302      0.2184
     18  O3'       -2.1000   -6.7260   75.8470 O.3   302  ATP302     -0.2174
     19  C2'       -2.9840   -8.8390   76.7410 C.3   302  ATP302      0.2570
     20  O2'       -4.0800   -8.6390   75.8550 O.3   302  ATP302     -0.2130
     21  C1'       -1.9660   -9.7630   76.0510 C.3   302  ATP302      0.3186
     22  N9        -2.3090  -11.2350   75.9980 N.pl3 302  ATP302     -0.1439
     23  C8        -1.4550  -12.3100   76.1420 C.3   302  ATP302      0.3377
     24  N7        -2.0120  -13.4850   76.0410 N.2   302  ATP302     -0.2095
     25  C5        -3.3440  -13.1740   75.8090 C.2   302  ATP302      0.2526
     26  C6        -4.5000  -13.9880   75.6000 C.2   302  ATP302      0.4393
     27  N6        -4.4100  -15.3070   75.6050 N.pl3 302  ATP302      0.2180
     28  N1        -5.7040  -13.3860   75.3930 N.2   302  ATP302      0.0021
     29  C2        -5.7780  -12.0480   75.3900 C.3   302  ATP302      0.5254
     30  N3        -4.7720  -11.1650   75.5720 N.2   302  ATP302     -0.0055
     31  C4        -3.5530  -11.8080   75.7810 C.2   302  ATP302      0.3518
@<TRIPOS>BOND
     1    29    28    1
     2    29    30    1
     3    28    26    2
     4    30    31    2
     5    26    27    1
     6    26    25    1
     7    31    25    1
     8    31    22    1
     9    25    24    2
    10    18    17    1
    11    20    19    1
    12    22    21    1
    13    22    23    1
    14    24    23    1
    15    21    19    1
    16    21    16    1
    17    19    17    1
    18    16    15    1
    19    17    15    1
    20    15    14    1
    21    11     9    2
    22    14    13    1
    23    13     9    1
    24     9    10    1
    25     9    12    1
    26    12     5    1
    27     7     5    2
    28     5     6    1
    29     5     8    1
    30     4     1    2
    31     8     1    1
    32     1     3    1
    33     1     2    1
