@<TRIPOS>MOLECULE
1jib_MTT_A_1.pdb
 45 48 0 0 0
SMALL
GASTEIGER

@<TRIPOS>ATOM
      1  O14       36.9930   58.3440   63.7080 O.3   601  MTT601     -0.2176
      2  C14       36.3300   57.4960   64.6150 C.3   601  MTT601      0.2144
      3  C13       34.8160   57.6800   64.4600 C.3   601  MTT601      0.2198
      4  O13       34.4870   59.0400   64.6580 O.3   601  MTT601     -0.2174
      5  C12       34.1370   56.7380   65.4730 C.3   601  MTT601      0.2406
      6  O12       32.7190   56.8250   65.4230 O.3   601  MTT601     -0.2149
      7  C11       34.5190   55.2740   65.2700 C.3   601  MTT601      0.2695
      8  C15       36.7090   56.0200   64.3780 C.3   601  MTT601      0.1835
      9  O15       35.9750   55.1560   65.3020 O.3   601  MTT601     -0.3256
     10  C16       38.1810   55.7150   64.5660 C.3   601  MTT601      0.2142
     11  O16       38.9450   56.8300   65.1220 O.3   601  MTT601     -0.2176
     12  O24       34.0390   54.8110   64.0060 O.3   601  MTT601     -0.3257
     13  C24       33.0720   53.7610   63.7790 C.3   601  MTT601      0.1804
     14  C23       31.9910   54.2510   62.8200 C.3   601  MTT601      0.2167
     15  O23       31.2610   55.3420   63.3480 O.3   601  MTT601     -0.2175
     16  C22       31.0120   53.0870   62.5530 C.3   601  MTT601      0.2404
     17  O22       29.9730   53.4710   61.6650 O.3   601  MTT601     -0.2149
     18  C21       31.7680   51.9420   61.9490 C.3   601  MTT601      0.2695
     19  C25       33.8150   52.5670   63.1700 C.3   601  MTT601      0.1803
     20  O25       32.8540   51.5480   62.8670 O.3   601  MTT601     -0.3257
     21  C26       34.8130   52.0210   64.1280 C.3   601  MTT601      0.2141
     22  O26       34.1890   51.6050   65.3330 O.3   601  MTT601     -0.2176
     23  O34       32.2490   52.2590   60.6150 O.3   601  MTT601     -0.3257
     24  C34       33.3760   51.8070   59.8860 C.3   601  MTT601      0.1804
     25  C33       32.9840   50.6040   59.0220 C.3   601  MTT601      0.2167
     26  O33       32.5000   49.5620   59.8440 O.3   601  MTT601     -0.2175
     27  C32       34.1710   50.1000   58.2090 C.3   601  MTT601      0.2404
     28  O32       33.7360   49.0870   57.2740 O.3   601  MTT601     -0.2149
     29  C31       34.8590   51.2260   57.4650 C.3   601  MTT601      0.2695
     30  C35       33.9160   52.9150   58.9720 C.3   601  MTT601      0.1803
     31  O35       35.0530   52.3970   58.2530 O.3   601  MTT601     -0.3257
     32  C36       34.3510   54.1520   59.7230 C.3   601  MTT601      0.2141
     33  O36       35.7810   54.2700   59.8140 O.3   601  MTT601     -0.2176
     34  O44       34.0860   51.4790   56.2970 O.3   601  MTT601     -0.3257
     35  C44       34.6480   51.8030   55.0300 C.3   601  MTT601      0.1804
     36  C43       33.8920   50.9720   53.9750 C.3   601  MTT601      0.2168
     37  O43       34.5790   49.6910   53.8270 O.3   601  MTT601     -0.2175
     38  C42       33.7660   51.5580   52.5630 C.3   601  MTT601      0.2433
     39  O42       32.3840   51.5570   52.1610 O.3   601  MTT601     -0.2148
     40  C41       34.3380   52.9490   52.2980 C.3   601  MTT601      0.3023
     41  O41       33.4230   53.8380   51.7560 O.3   601  MTT601     -0.1869
     42  C45       34.5950   53.3070   54.7550 C.3   601  MTT601      0.1804
     43  O45       34.9220   53.5670   53.4090 O.3   601  MTT601     -0.3237
     44  C46       35.5590   54.1760   55.5750 C.3   601  MTT601      0.2141
     45  O46       34.9420   55.3500   56.0570 O.3   601  MTT601     -0.2176
@<TRIPOS>BOND
     1    41    40    1
     2    39    38    1
     3    40    38    1
     4    40    43    1
     5    38    36    1
     6    43    42    1
     7    37    36    1
     8    36    35    1
     9    42    35    1
    10    42    44    1
    11    35    34    1
    12    44    45    1
    13    34    29    1
    14    28    27    1
    15    29    27    1
    16    29    31    1
    17    27    25    1
    18    31    30    1
    19    30    32    1
    20    30    24    1
    21    25    26    1
    22    25    24    1
    23    32    33    1
    24    24    23    1
    25    23    18    1
    26    17    16    1
    27    18    16    1
    28    18    20    1
    29    16    14    1
    30    14    15    1
    31    14    13    1
    32    20    19    1
    33    19    13    1
    34    19    21    1
    35     1     2    1
    36    13    12    1
    37    12     7    1
    38    21    22    1
    39     8    10    1
    40     8     2    1
    41     8     9    1
    42     3     2    1
    43     3     4    1
    44     3     5    1
    45    10    11    1
    46     7     9    1
    47     7     5    1
    48     6     5    1
