@<TRIPOS>MOLECULE
1jii_383_A_1.pdb
 29 31 0 0 0
SMALL
GASTEIGER

@<TRIPOS>ATOM
      1  C8        -8.2370   11.1440   83.7430 C.ar  421  383421     -0.0009
      2  C7        -7.5690   10.0480   84.2730 C.ar  421  383421      0.0417
      3  C12       -8.1630    9.3200   85.3100 C.ar  421  383421      0.1957
      4  C11       -9.5020    9.5290   85.6680 C.ar  421  383421      0.0417
      5  C10      -10.1830   10.6230   85.1410 C.ar  421  383421     -0.0009
      6  C9        -9.5630   11.4750   84.1800 C.ar  421  383421     -0.0200
      7  C14      -10.3000   12.7700   83.6340 C.3   421  383421      0.0548
      8  C15      -11.8710   12.7700   83.5970 C.3   421  383421      0.1736
      9  C17      -12.5570   14.1710   83.8600 C.2   421  383421      0.2596
     10  N19      -11.8740   14.9880   84.5510 N.am  421  383421     -0.1928
     11  C20      -11.9830   16.4140   84.5410 C.3   421  383421      0.2173
     12  C21      -10.8510   16.9580   83.6990 C.2   421  383421      0.3857
     13  O23      -10.0500   15.9500   83.1750 O.co2 421  383421     -0.2437
     14  O18      -13.6530   14.4560   83.4130 O.2   421  383421     -0.2718
     15  N16      -12.3440   12.2140   82.3220 N.3   421  383421     -0.1227
     16  O22      -10.6750   18.1840   83.5070 O.co2 421  383421     -0.2437
     17  C6       -12.1060   16.8910   85.9650 C.3   421  383421      0.1535
     18  N5       -12.6940   15.8360   86.8350 N.4   421  383421     -0.1010
     19  C4       -13.1140   16.3260   88.1540 C.3   421  383421      0.2352
     20  C3       -14.1890   17.3780   87.9840 C.3   421  383421      0.2292
     21  C2       -13.3080   18.4880   87.4200 C.3   421  383421      0.2145
     22  C1       -13.0650   18.0740   85.9240 C.3   421  383421      0.2039
     23  O28      -11.7680   14.7860   87.0380 O.3   421  383421     -0.1156
     24  O29      -13.9100   19.7580   87.5770 O.3   421  383421     -0.2176
     25  C30      -11.9550   18.3940   88.1520 C.3   421  383421      0.1794
     26  O31      -11.9730   17.0540   88.6700 O.3   421  383421     -0.3339
     27  O32      -15.2360   17.0240   87.0840 O.3   421  383421     -0.2160
     28  O64      -12.5480   19.1360   85.1410 O.3   421  383421     -0.2187
     29  O13       -7.4360    8.4320   85.9690 O.3   421  383421     -0.2866
@<TRIPOS>BOND
     1    15     8    1
     2    13    12   ar
     3    14     9    2
     4    16    12   ar
     5     8     7    1
     6     8     9    1
     7     7     6    1
     8    12    11    1
     9     1     6   ar
    10     1     2   ar
    11     9    10   am
    12     6     5   ar
    13     2     3   ar
    14    11    10    1
    15    11    17    1
    16     5     4   ar
    17    28    22    1
    18     3     4   ar
    19     3    29    1
    20    22    17    1
    21    22    21    1
    22    17    18    1
    23    18    23    1
    24    18    19    1
    25    27    20    1
    26    21    24    1
    27    21    20    1
    28    21    25    1
    29    20    19    1
    30    25    26    1
    31    19    26    1
