@<TRIPOS>MOLECULE
1jij_629_A_1.pdb
 29 30 0 0 0
SMALL
GASTEIGER

@<TRIPOS>ATOM
      1  C7        -7.3100   10.2200   84.9850 C.ar  421  629421      0.0417
      2  C8        -7.9100   11.4070   84.5610 C.ar  421  629421     -0.0009
      3  C12       -8.0390    9.3060   85.7500 C.ar  421  629421      0.1957
      4  C11       -9.3870    9.5560   86.0550 C.ar  421  629421      0.0417
      5  C10      -10.0020   10.6990   85.5500 C.ar  421  629421     -0.0009
      6  C9        -9.2500   11.6660   84.8620 C.ar  421  629421     -0.0200
      7  C14       -9.9120   12.9830   84.4560 C.3   421  629421      0.0548
      8  C15      -11.4520   12.9360   84.3640 C.3   421  629421      0.1736
      9  C17      -12.1310   14.3570   84.2020 C.2   421  629421      0.2598
     10  N19      -11.6670   15.2950   85.0310 N.am  421  629421     -0.1884
     11  C20      -12.0010   16.7400   85.0510 C.3   421  629421      0.2510
     12  C21      -10.9030   17.4980   84.2740 C.2   421  629421      0.3901
     13  O23       -9.6920   16.8590   84.2340 O.co2 421  629421     -0.2435
     14  O18      -13.0200   14.5560   83.3780 O.2   421  629421     -0.2718
     15  N16      -11.8180   11.9730   83.3030 N.3   421  629421     -0.1227
     16  O22      -11.1040   18.5840   83.7370 O.co2 421  629421     -0.2435
     17  C6       -12.2700   17.2620   86.4440 C.3   421  629421      0.1485
     18  N5       -12.4390   16.0820   87.4390 N.4   421  629421      0.3313
     19  C4       -13.0720   16.3050   88.8170 C.3   421  629421      0.1714
     20  C3       -14.3010   17.1760   88.6640 C.3   421  629421      0.2412
     21  C2       -13.8100   18.4680   88.0650 C.3   421  629421      0.2238
     22  C1       -13.5480   18.1200   86.5420 C.3   421  629421      0.2376
     23  O28      -11.4140   15.2130   87.4920 O.co2 421  629421     -0.7390
     24  O32      -15.2360   16.5570   87.7860 O.3   421  629421     -0.2139
     25  O29      -14.8410   19.4710   88.2010 O.3   421  629421     -0.2172
     26  C30      -12.5480   19.0000   88.8560 C.3   421  629421      0.2178
     27  O31      -11.3120   18.4170   88.4120 O.3   421  629421     -0.2175
     28  O64      -13.4260   19.3390   85.7830 O.3   421  629421     -0.2140
     29  O13       -7.4420    8.1630   86.1870 O.3   421  629421     -0.2866
@<TRIPOS>UNITY_ATOM_ATTR
18 1
charge 1
23 1
charge -1
@<TRIPOS>BOND
     1    15     8    1
     2    14     9    2
     3    16    12   ar
     4     9     8    1
     5     9    10   am
     6    13    12   ar
     7    12    11    1
     8     8     7    1
     9     7     6    1
    10     2     6   ar
    11     2     1   ar
    12     6     5   ar
    13     1     3   ar
    14    10    11    1
    15    11    17    1
    16     5     4   ar
    17     3     4   ar
    18     3    29    1
    19    28    22    1
    20    17    22    1
    21    17    18    1
    22    22    21    1
    23    18    23    1
    24    18    19    1
    25    24    20    1
    26    21    25    1
    27    21    20    1
    28    21    26    1
    29    27    26    1
    30    20    19    1
