@<TRIPOS>MOLECULE
1jik_545_A_1.pdb
 33 34 0 0 0
SMALL
GASTEIGER

@<TRIPOS>ATOM
      1  C8        28.6480    8.0510   82.2370 C.ar  421  545421     -0.0009
      2  C7        27.3720    7.5900   82.5420 C.ar  421  545421      0.0417
      3  C12       26.7350    8.0810   83.6600 C.ar  421  545421      0.1957
      4  C11       27.2470    9.1890   84.3360 C.ar  421  545421      0.0417
      5  C10       28.4250    9.7960   83.8880 C.ar  421  545421     -0.0009
      6  C9        29.1360    9.2300   82.8380 C.ar  421  545421     -0.0200
      7  C14       30.4440    9.8760   82.3550 C.3   421  545421      0.0548
      8  C15       30.5200   11.4120   82.2250 C.3   421  545421      0.1736
      9  C17       31.9920   11.8960   82.0800 C.2   421  545421      0.2598
     10  N19       32.8000   11.5510   83.0610 N.am  421  545421     -0.1886
     11  C20       34.1700   12.1250   83.2640 C.3   421  545421      0.2466
     12  C21       35.1970   11.4330   82.3150 C.2   421  545421      0.3430
     13  O23       34.9510   10.0780   82.1100 O.3   421  545421     -0.4472
     14  C24       35.8580    9.3140   81.3090 C.3   421  545421      0.2085
     15  C25       37.3490    9.7350   81.5760 C.3   421  545421      0.0474
     16  C26       38.3720    8.6160   81.2390 C.3   421  545421      0.0038
     17  C27       39.1660    8.1520   82.4920 C.3   421  545421      0.0001
     18  O18       32.3720   12.5200   81.1050 O.2   421  545421     -0.2718
     19  N16       29.6360   11.8760   81.1150 N.3   421  545421     -0.1227
     20  O22       36.1330   12.0620   81.8280 O.2   421  545421     -0.2480
     21  C6        34.6420   12.2770   84.7310 C.3   421  545421      0.1484
     22  N5        33.4670   12.7200   85.6200 N.4   421  545421      0.3313
     23  C4        33.7660   13.3850   86.9440 C.3   421  545421      0.1714
     24  C3        34.8900   14.4120   86.7870 C.3   421  545421      0.2412
     25  C2        36.1290   13.7140   86.2410 C.3   421  545421      0.2238
     26  C1        35.8240   13.2950   84.7890 C.3   421  545421      0.2376
     27  O28       32.4910   11.7960   85.7130 O.co2 421  545421     -0.7390
     28  O32       34.5180   15.4250   85.8330 O.3   421  545421     -0.2139
     29  O29       37.1270   14.7170   86.2250 O.3   421  545421     -0.2172
     30  C30       36.6950   12.5440   87.1440 C.3   421  545421      0.2178
     31  O31       36.7400   11.2750   86.4370 O.3   421  545421     -0.2175
     32  O64       36.9660   12.7130   84.2000 O.3   421  545421     -0.2140
     33  O13       25.6380    7.4810   84.1120 O.3   421  545421     -0.2866
@<TRIPOS>UNITY_ATOM_ATTR
22 1
charge 1
27 1
charge -1
@<TRIPOS>BOND
     1    18     9    2
     2    19     8    1
     3    16    15    1
     4    16    17    1
     5    14    15    1
     6    14    13    1
     7    20    12    2
     8     9     8    1
     9     9    10   am
    10    13    12    1
    11     8     7    1
    12     1     2   ar
    13     1     6   ar
    14    12    11    1
    15     7     6    1
    16     2     3   ar
    17     6     5   ar
    18    10    11    1
    19    11    21    1
    20     3    33    1
    21     3     4   ar
    22     5     4   ar
    23    32    26    1
    24    21    26    1
    25    21    22    1
    26    26    25    1
    27    22    27    1
    28    22    23    1
    29    28    24    1
    30    29    25    1
    31    25    24    1
    32    25    30    1
    33    31    30    1
    34    24    23    1
