@<TRIPOS>MOLECULE
1jil_485_A_1.pdb
 27 28 0 0 0
SMALL
GASTEIGER

@<TRIPOS>ATOM
      1  O1        25.3940    7.2340   83.6780 O.3   421  485421     -0.2866
      2  C2        26.5770    7.7550   83.3260 C.ar  421  485421      0.1957
      3  C3        27.2530    8.6040   84.2080 C.ar  421  485421      0.0417
      4  C4        28.5160    9.1540   83.8180 C.ar  421  485421     -0.0009
      5  C5        29.0530    8.8310   82.5570 C.ar  421  485421     -0.0200
      6  C6        28.3420    7.9560   81.6770 C.ar  421  485421     -0.0009
      7  C7        27.1200    7.4330   82.0720 C.ar  421  485421      0.0417
      8  C8        30.3740    9.4080   82.1210 C.3   421  485421      0.0548
      9  C9        30.3560   10.9040   81.8700 C.3   421  485421      0.1736
     10  N10       29.2130   11.3250   80.9800 N.3   421  485421     -0.1227
     11  C11       31.7220   11.3520   81.3210 C.2   421  485421      0.2597
     12  O12       31.8770   11.5220   80.1490 O.2   421  485421     -0.2718
     13  N13       32.7040   11.5320   82.2170 N.am  421  485421     -0.1917
     14  C14       34.1280   11.9840   81.9310 C.3   421  485421      0.2272
     15  C15       35.0240   10.8290   81.3040 C.2   421  485421      0.3868
     16  O16       34.4000    9.5790   81.3100 O.co2 421  485421     -0.2437
     17  O17       36.1870   11.0400   80.8280 O.co2 421  485421     -0.2437
     18  C18       34.7180   12.5970   83.1920 C.3   421  485421      0.1789
     19  C19       34.0090   13.8940   83.5760 C.3   421  485421      0.2139
     20  C20       34.6110   14.4620   84.8880 C.3   421  485421      0.2171
     21  C21       34.5260   13.4490   86.0500 C.3   421  485421      0.2116
     22  C22       35.2370   12.0900   85.6240 C.3   421  485421      0.1483
     23  O23       34.5810   11.6560   84.3650 O.3   421  485421     -0.3510
     24  O24       34.1700   14.8400   82.5490 O.3   421  485421     -0.2176
     25  O25       33.8810   15.6110   85.2070 O.3   421  485421     -0.2175
     26  O26       33.1260   13.2250   86.2990 O.3   421  485421     -0.2177
     27  C27       35.1070   10.9150   86.6270 C.3   421  485421      0.0349
@<TRIPOS>BOND
     1    12    11    2
     2    17    15   ar
     3    10     9    1
     4    15    16   ar
     5    15    14    1
     6    11     9    1
     7    11    13   am
     8     6     7   ar
     9     6     5   ar
    10     9     8    1
    11    14    13    1
    12    14    18    1
    13     7     2   ar
    14     8     5    1
    15    24    19    1
    16     5     4   ar
    17    18    19    1
    18    18    23    1
    19     2     1    1
    20     2     3   ar
    21    19    20    1
    22     4     3   ar
    23    23    22    1
    24    20    25    1
    25    20    21    1
    26    22    21    1
    27    22    27    1
    28    21    26    1
