@<TRIPOS>MOLECULE
1jim_ICU_A_1.pdb
 18 18 0 0 0
SMALL
GASTEIGER

@<TRIPOS>ATOM
      1  C1        -7.6590   23.4220   36.4930 C.2   251  ICU251      0.2340
      2  O1        -6.8100   24.1550   35.9760 O.2   251  ICU251     -0.2832
      3  C2        -8.4870   22.5460   35.7590 C.ar  251  ICU251      0.0435
      4  C3        -8.1490   22.2540   34.4760 C.ar  251  ICU251      0.0212
      5  C4        -8.8650   21.2850   33.7610 C.ar  251  ICU251      0.0892
      6  N1        -8.5510   21.0280   32.4790 N.pl3 251  ICU251     -0.1281
      7  C5        -9.9610   20.6440   34.3200 C.ar  251  ICU251      0.0179
      8  C6       -10.3570   20.9670   35.5640 C.ar  251  ICU251      0.0012
      9  C7        -9.6330   21.9020   36.3240 C.ar  251  ICU251      0.0316
     10  C8       -10.2790   22.3650   37.6370 C.3   251  ICU251      0.2886
     11  O2       -10.8910   23.6930   37.4410 O.3   251  ICU251     -0.4360
     12  C9       -10.7850   24.6410   38.3920 C.2   251  ICU251      0.3183
     13  O3       -10.1660   24.4920   39.4580 O.2   251  ICU251     -0.2501
     14  C10      -11.6580   25.8540   38.2430 C.3   251  ICU251      0.1212
     15  C11      -11.3630   21.3830   38.1090 C.2   251  ICU251      0.3623
     16  O4       -12.5520   21.7460   38.0660 O.2   251  ICU251     -0.2457
     17  O5       -11.0100   20.2020   38.6940 O.3   251  ICU251     -0.4417
     18  C12      -12.0910   19.3200   39.1460 C.3   251  ICU251      0.2557
@<TRIPOS>BOND
     1     6     5    1
     2     5     7   ar
     3     5     4   ar
     4     7     8   ar
     5     4     3   ar
     6     8     9   ar
     7     3     9   ar
     8     3     1    1
     9     2     1    2
    10     9    10    1
    11    11    10    1
    12    11    12    1
    13    10    15    1
    14    16    15    2
    15    15    17    1
    16    14    12    1
    17    12    13    2
    18    17    18    1
