@<TRIPOS>MOLECULE
1jin_KTN_A_1.pdb
 36 40 0 0 0
SMALL
GASTEIGER

@<TRIPOS>ATOM
      1  N1       -10.0180    9.2440   12.5580 N.ar  801  KTN801     -0.3025
      2  C1        -9.9880   10.3420   11.7910 C.ar  801  KTN801      0.1788
      3  N2        -8.9190   10.4050   11.0950 N.ar  801  KTN801     -0.2223
      4  C2        -8.2310    9.2860   11.4360 C.ar  801  KTN801      0.1193
      5  C3        -8.8840    8.5540   12.3370 C.ar  801  KTN801      0.0982
      6  C4       -11.0530    8.9480   13.4330 C.3   801  KTN801      0.1682
      7  C5       -11.0420   10.1450   14.2860 C.3   801  KTN801      0.2296
      8  O1       -11.7490   11.2480   13.8660 O.3   801  KTN801     -0.3255
      9  C6       -11.5560   12.3200   14.9600 C.3   801  KTN801      0.1909
     10  C7       -10.8740   11.5530   16.1330 C.3   801  KTN801      0.1783
     11  O2       -10.5020   10.3140   15.5500 O.3   801  KTN801     -0.3267
     12  C8       -12.2390    9.3290   14.9650 C.ar  801  KTN801      0.0409
     13  C9       -12.0930    8.0860   15.6920 C.ar  801  KTN801      0.0591
     14  C10      -13.1780    7.4240   16.2640 C.ar  801  KTN801      0.0226
     15  C11      -14.4460    7.9810   16.1390 C.ar  801  KTN801      0.0585
     16  C12      -14.6440    9.1640   15.4490 C.ar  801  KTN801      0.0113
     17  C13      -13.5640    9.8130   14.8840 C.ar  801  KTN801      0.0022
     18 CL1       -15.8140    7.1740   16.8540 Cl    801  KTN801     -0.0822
     19  C14      -12.9870   12.7680   15.1450 C.3   801  KTN801      0.2374
     20  O3       -13.4170   12.6590   13.7890 O.3   801  KTN801     -0.4727
     21  C15      -14.7550   12.8020   13.4840 C.ar  801  KTN801      0.1388
     22  C16      -15.7290   12.9940   14.4270 C.ar  801  KTN801      0.0382
     23  C17      -17.0480   13.0420   13.9680 C.ar  801  KTN801      0.0176
     24  C18      -17.2850   12.8760   12.6230 C.ar  801  KTN801      0.0481
     25  C19      -16.2190   12.7280   11.7680 C.ar  801  KTN801      0.0176
     26  C20      -14.9170   12.6640   12.1980 C.ar  801  KTN801      0.0382
     27  N3       -18.6210   12.9090   12.1780 N.pl3 801  KTN801     -0.3041
     28  C21      -19.4610   13.9090   12.8100 C.3   801  KTN801      0.1123
     29  C22      -20.8860   13.6960   12.4410 C.3   801  KTN801      0.1148
     30  N4       -21.3860   12.5090   13.1100 N.am  801  KTN801     -0.2760
     31  C23      -20.3490   11.4760   13.3280 C.3   801  KTN801      0.1148
     32  C24      -19.2860   11.5670   12.2520 C.3   801  KTN801      0.1123
     33  C25      -22.6440   12.3120   13.4810 C.2   801  KTN801      0.2262
     34  O4       -22.9800   11.2740   14.0020 O.2   801  KTN801     -0.2749
     35  C26      -23.6270   13.4070   13.2370 C.3   801  KTN801      0.0948
     36 CL2       -10.5450    7.2820   15.9310 Cl    801  KTN801     -0.0824
@<TRIPOS>BOND
     1     3     4   ar
     2     3     2   ar
     3     4     5   ar
     4    25    26   ar
     5    25    24   ar
     6     2     1   ar
     7    27    32    1
     8    27    24    1
     9    27    28    1
    10    26    21   ar
    11    32    31    1
    12     5     1   ar
    13    29    28    1
    14    29    30    1
    15     1     6    1
    16    24    23   ar
    17    30    31    1
    18    30    33   am
    19    35    33    1
    20     6     7    1
    21    33    34    2
    22    21    20    1
    23    21    22   ar
    24    20    19    1
    25     8     7    1
    26     8     9    1
    27    23    22   ar
    28     7    12    1
    29     7    11    1
    30    17    12   ar
    31    17    16   ar
    32     9    19    1
    33     9    10    1
    34    12    13   ar
    35    16    15   ar
    36    11    10    1
    37    13    36    1
    38    13    14   ar
    39    15    14   ar
    40    15    18    1
