@<TRIPOS>MOLECULE
1jin_HEM_A_1.pdb
 43 50 0 0 0
SMALL
GASTEIGER

@<TRIPOS>ATOM
      1 FE         -8.0800   12.0500   10.2260 Fe    410  HEM410      0.0000
      2  CHA      -10.8490   14.0260    9.9610 C.2   410  HEM410      0.0000
      3  CHB       -9.2240   10.1150    7.6990 C.2   410  HEM410      0.0000
      4  CHC       -5.2120   10.2980   10.3740 C.2   410  HEM410      0.0000
      5  CHD       -7.0610   13.8550   12.9100 C.2   410  HEM410      0.0000
      6  NA        -9.6530   12.0850    9.0780 N.ar  410  HEM410      0.0000
      7  C1A      -10.7000   13.0040    9.0770 C.ar  410  HEM410      0.0000
      8  C2A      -11.6870   12.6810    8.1180 C.ar  410  HEM410      0.0000
      9  C3A      -11.2920   11.5250    7.5680 C.ar  410  HEM410      0.0000
     10  C4A      -10.0190   11.1740    8.1290 C.ar  410  HEM410      0.0000
     11  CMA      -12.0050   10.7030    6.4980 C.3   410  HEM410      0.0000
     12  CAA      -12.9070   13.5100    7.7480 C.3   410  HEM410      0.0000
     13  CBA      -14.0870   13.1120    8.6450 C.3   410  HEM410      0.0000
     14  CGA      -15.4420   13.5960    8.1400 C.2   410  HEM410      0.0000
     15  O1A      -15.5220   14.1310    7.0090 O.co2 410  HEM410      0.0000
     16  O2A      -16.4390   13.4000    8.8660 O.co2 410  HEM410      0.0000
     17  NB        -7.3080   10.5820    9.1820 N.2   410  HEM410      0.0000
     18  C1B       -7.9310    9.8300    8.1810 C.2   410  HEM410      0.0000
     19  C2B       -7.0680    8.7710    7.7460 C.2   410  HEM410      0.0000
     20  C3B       -5.9460    8.8500    8.5060 C.2   410  HEM410      0.0000
     21  C4B       -6.0860    9.9640    9.3640 C.2   410  HEM410      0.0000
     22  CMB       -7.4160    7.7550    6.6820 C.3   410  HEM410      0.0000
     23  CAB       -4.8330    8.0310    8.5910 C.2   410  HEM410      0.0000
     24  CBB       -4.4400    7.0510    7.7400 C.2   410  HEM410      0.0000
     25  NC        -6.5190   12.0390   11.3840 N.ar  410  HEM410      0.0000
     26  C1C       -5.4390   11.2230   11.3360 C.ar  410  HEM410      0.0000
     27  C2C       -4.4910   11.5560   12.3130 C.ar  410  HEM410      0.0000
     28  C3C       -4.9260   12.6360   13.0020 C.ar  410  HEM410      0.0000
     29  C4C       -6.2270   12.8870   12.4260 C.ar  410  HEM410      0.0000
     30  CMC       -3.2650   10.7120   12.5320 C.3   410  HEM410      0.0000
     31  CAC       -4.4620   13.4350   14.0550 C.2   410  HEM410      0.0000
     32  CBC       -3.4520   13.2310   14.9360 C.2   410  HEM410      0.0000
     33  ND        -8.7770   13.5720   11.1800 N.2   410  HEM410      0.0000
     34  C1D       -8.2370   14.2030   12.2920 C.2   410  HEM410      0.0000
     35  C2D       -9.0060   15.3340   12.6730 C.2   410  HEM410      0.0000
     36  C3D      -10.0450   15.4130   11.8080 C.2   410  HEM410      0.0000
     37  C4D       -9.9150   14.3130   10.9160 C.2   410  HEM410      0.0000
     38  CMD       -8.7100   16.2410   13.8440 C.3   410  HEM410      0.0000
     39  CAD      -11.1780   16.4210   11.8020 C.3   410  HEM410      0.0000
     40  CBD      -10.9100   17.6240   10.9170 C.3   410  HEM410      0.0000
     41  CGD      -12.0790   18.5740   10.8610 C.2   410  HEM410      0.0000
     42  O1D      -13.1980   18.1670   11.2040 O.co2 410  HEM410      0.0000
     43  O2D      -11.8900   19.7350   10.4760 O.co2 410  HEM410      0.0000
@<TRIPOS>BOND
     1    11     9    1
     2    22    19    1
     3    15    14   ar
     4     9     8   ar
     5     9    10   ar
     6     3    10    2
     7     3    18    1
     8    24    23    2
     9    19    18    1
    10    19    20    2
    11    12     8    1
    12    12    13    1
    13     8     7   ar
    14    10     6   ar
    15    14    13    1
    16    14    16   ar
    17    18    17    2
    18    20    23    1
    19    20    21    1
    20     7     6   ar
    21     7     2    2
    22     6     1    1
    23    17    21    1
    24    17     1    1
    25    21     4    2
    26     2    37    1
    27     1    33    1
    28     1    25    1
    29     4    26    1
    30    43    41   ar
    31    41    40    1
    32    41    42   ar
    33    37    33    2
    34    37    36    1
    35    40    39    1
    36    33    34    1
    37    26    25   ar
    38    26    27   ar
    39    25    29   ar
    40    39    36    1
    41    36    35    2
    42    34    35    1
    43    34     5    2
    44    27    30    1
    45    27    28   ar
    46    29     5    1
    47    29    28   ar
    48    35    38    1
    49    28    31    1
    50    31    32    2
