@<TRIPOS>MOLECULE
1jio_DEB_A_1.pdb
 27 27 0 0 0
SMALL
GASTEIGER

@<TRIPOS>ATOM
      1  C1       -12.9260    7.0950   16.0610 C.2   420  DEB420      0.3188
      2  C2       -12.0940    6.0210   15.3810 C.3   420  DEB420      0.1294
      3  C3       -11.2290    6.6400   14.3040 C.3   420  DEB420      0.1648
      4  C4       -12.0090    7.4750   13.2380 C.3   420  DEB420      0.0614
      5  C5       -10.9860    8.3800   12.4660 C.3   420  DEB420      0.1543
      6  C6       -11.3490    9.4260   11.3750 C.3   420  DEB420      0.0309
      7  C7       -12.4460   10.3490   11.9450 C.3   420  DEB420      0.0098
      8  C8       -12.1390   11.0850   13.2820 C.3   420  DEB420      0.0578
      9  C9       -13.3400   11.9400   13.7250 C.2   420  DEB420      0.1523
     10  C10      -14.6830   11.2070   13.9420 C.3   420  DEB420      0.0881
     11  C11      -14.4560   10.0360   14.9890 C.3   420  DEB420      0.1622
     12  C12      -15.6170    9.0970   15.4000 C.3   420  DEB420      0.0710
     13  C13      -15.2260    8.0030   16.4460 C.3   420  DEB420      0.1712
     14  C14      -16.4630    7.1970   16.9160 C.3   420  DEB420      0.0437
     15  C15      -16.1540    6.1100   17.9410 C.3   420  DEB420      0.0038
     16  O16      -14.2930    7.0730   15.8800 O.3   420  DEB420     -0.4521
     17  O17      -12.4170    7.9870   16.7600 O.2   420  DEB420     -0.2500
     18  C18      -11.2420    5.2730   16.3830 C.3   420  DEB420      0.0143
     19  O19      -10.4690    5.5890   13.6670 O.3   420  DEB420     -0.2225
     20  C20      -12.8090    6.5360   12.3130 C.3   420  DEB420      0.0052
     21  O21       -9.9530    7.5400   11.9110 O.3   420  DEB420     -0.2231
     22  C22      -11.8480    8.7940   10.0700 C.3   420  DEB420      0.0026
     23  C23      -10.9030   11.9570   13.1460 C.3   420  DEB420      0.0078
     24  O24      -13.2230   13.1490   13.9120 O.2   420  DEB420     -0.2960
     25  C25      -15.7630   12.1960   14.4080 C.3   420  DEB420      0.0104
     26  O26      -13.8820   10.6040   16.1930 O.3   420  DEB420     -0.2226
     27  C27      -16.2320    8.4530   14.1350 C.3   420  DEB420      0.0063
@<TRIPOS>BOND
     1    22     6    1
     2     6     7    1
     3     6     5    1
     4    21     5    1
     5     7     8    1
     6    20     4    1
     7     5     4    1
     8    23     8    1
     9     4     3    1
    10     8     9    1
    11    19     3    1
    12     9    24    2
    13     9    10    1
    14    10    25    1
    15    10    11    1
    16    27    12    1
    17     3     2    1
    18    11    12    1
    19    11    26    1
    20     2     1    1
    21     2    18    1
    22    12    13    1
    23    16     1    1
    24    16    13    1
    25     1    17    2
    26    13    14    1
    27    14    15    1
