@<TRIPOS>MOLECULE
1jio_HEM_A_1.pdb
 43 50 0 0 0
SMALL
GASTEIGER

@<TRIPOS>ATOM
      1 FE         -7.6780   11.8260    9.7230 Fe    410  HEM410      0.0000
      2  CHA      -10.6020   13.6290    9.6000 C.2   410  HEM410      0.0000
      3  CHB       -9.0070    9.6290    7.4630 C.2   410  HEM410      0.0000
      4  CHC       -4.9990    9.7620   10.2110 C.2   410  HEM410      0.0000
      5  CHD       -6.8240   13.5370   12.6040 C.2   410  HEM410      0.0000
      6  NA        -9.4240   11.6670    8.7310 N.ar  410  HEM410      0.0000
      7  C1A      -10.5200   12.5430    8.7640 C.ar  410  HEM410      0.0000
      8  C2A      -11.5280   12.1850    7.7770 C.ar  410  HEM410      0.0000
      9  C3A      -11.0600   11.0470    7.2000 C.ar  410  HEM410      0.0000
     10  C4A       -9.7820   10.7350    7.7830 C.ar  410  HEM410      0.0000
     11  CMA      -11.7790   10.1830    6.1700 C.3   410  HEM410      0.0000
     12  CAA      -12.8590   12.9330    7.5120 C.3   410  HEM410      0.0000
     13  CBA      -14.0610   12.3130    8.2480 C.3   410  HEM410      0.0000
     14  CGA      -15.3600   13.0690    8.0030 C.2   410  HEM410      0.0000
     15  O1A      -15.4630   13.7330    6.9480 O.co2 410  HEM410      0.0000
     16  O2A      -16.2810   12.9880    8.8500 O.co2 410  HEM410      0.0000
     17  NB        -7.1270   10.0680    8.9880 N.2   410  HEM410      0.0000
     18  C1B       -7.7500    9.3340    7.9970 C.2   410  HEM410      0.0000
     19  C2B       -6.8940    8.2840    7.5240 C.2   410  HEM410      0.0000
     20  C3B       -5.7230    8.3290    8.2660 C.2   410  HEM410      0.0000
     21  C4B       -5.9210    9.4060    9.2180 C.2   410  HEM410      0.0000
     22  CMB       -7.2810    7.3650    6.3820 C.3   410  HEM410      0.0000
     23  CAB       -4.5320    7.5670    8.2380 C.3   410  HEM410      0.0000
     24  CBB       -4.0610    6.5970    7.2860 C.3   410  HEM410      0.0000
     25  NC        -6.1960   11.7240   11.0740 N.ar  410  HEM410      0.0000
     26  C1C       -5.1230   10.8710   11.0620 C.ar  410  HEM410      0.0000
     27  C2C       -4.1530   11.2420   12.0750 C.ar  410  HEM410      0.0000
     28  C3C       -4.6810   12.2550   12.7970 C.ar  410  HEM410      0.0000
     29  C4C       -5.9620   12.5340   12.1720 C.ar  410  HEM410      0.0000
     30  CMC       -2.7340   10.6900   12.1960 C.3   410  HEM410      0.0000
     31  CAC       -4.2160   12.8890   13.9530 C.3   410  HEM410      0.0000
     32  CBC       -2.9030   12.8890   14.5280 C.3   410  HEM410      0.0000
     33  ND        -8.4950   13.2970   10.8180 N.2   410  HEM410      0.0000
     34  C1D       -8.0090   13.8880   11.9820 C.2   410  HEM410      0.0000
     35  C2D       -8.8790   14.9450   12.4550 C.2   410  HEM410      0.0000
     36  C3D       -9.9100   15.0040   11.5970 C.2   410  HEM410      0.0000
     37  C4D       -9.6660   13.9900   10.5650 C.2   410  HEM410      0.0000
     38  CMD       -8.6930   15.7990   13.7050 C.3   410  HEM410      0.0000
     39  CAD      -11.0930   15.9540   11.7290 C.3   410  HEM410      0.0000
     40  CBD      -10.9660   17.0750   10.7080 C.3   410  HEM410      0.0000
     41  CGD      -12.1230   18.0480   10.7520 C.2   410  HEM410      0.0000
     42  O1D      -13.2520   17.6320   11.0850 O.co2 410  HEM410      0.0000
     43  O2D      -11.9050   19.2320   10.4380 O.co2 410  HEM410      0.0000
@<TRIPOS>BOND
     1    11     9    1
     2    22    19    1
     3    15    14   ar
     4     9     8   ar
     5     9    10   ar
     6    24    23    1
     7     3    10    2
     8     3    18    1
     9    12     8    1
    10    12    13    1
    11    19    18    1
    12    19    20    2
    13     8     7   ar
    14    10     6   ar
    15    18    17    2
    16    14    13    1
    17    14    16   ar
    18    23    20    1
    19    20    21    1
    20     6     7   ar
    21     6     1    1
    22     7     2    2
    23    17    21    1
    24    17     1    1
    25    21     4    2
    26     2    37    1
    27     1    33    1
    28     1    25    1
    29     4    26    1
    30    43    41   ar
    31    37    33    2
    32    37    36    1
    33    40    41    1
    34    40    39    1
    35    41    42   ar
    36    33    34    1
    37    26    25   ar
    38    26    27   ar
    39    25    29   ar
    40    36    39    1
    41    36    35    2
    42    34    35    1
    43    34     5    2
    44    27    30    1
    45    27    28   ar
    46    29     5    1
    47    29    28   ar
    48    35    38    1
    49    28    31    1
    50    31    32    1
