@<TRIPOS>MOLECULE
1jip_KTN_A_1.pdb
 36 41 0 0 0
SMALL
GASTEIGER

@<TRIPOS>ATOM
      1  N1       -10.7800    9.6190   12.5880 N.ar  801  KTN801     -0.3025
      2  C1       -10.8130   10.6480   11.7090 C.ar  801  KTN801      0.1788
      3  N2        -9.5950   10.9590   11.2490 N.ar  801  KTN801     -0.2223
      4  C2        -8.7760   10.0800   11.8640 C.ar  801  KTN801      0.1193
      5  C3        -9.4510    9.2510   12.6810 C.ar  801  KTN801      0.0982
      6  C4       -11.8590    8.9820   13.3260 C.3   801  KTN801      0.1682
      7  C5       -12.0030    9.5750   14.7400 C.3   801  KTN801      0.2297
      8  O1       -10.6860   10.0700   15.2200 O.3   801  KTN801     -0.3255
      9  C6       -10.9140   11.6980   15.3870 C.3   801  KTN801      0.1909
     10  C7       -12.3530   11.7660   15.4500 C.3   801  KTN801      0.1909
     11  O2       -12.8290   10.6490   14.5730 O.3   801  KTN801     -0.3255
     12  C8       -12.9920    8.7270   15.5910 C.ar  801  KTN801      0.0409
     13  C9       -12.7810    7.4660   16.1160 C.ar  801  KTN801      0.0591
     14  C10      -13.7590    6.8310   16.9150 C.ar  801  KTN801      0.0226
     15  C11      -14.9770    7.5520   17.1430 C.ar  801  KTN801      0.0585
     16  C12      -15.2120    8.7800   16.6130 C.ar  801  KTN801      0.0113
     17  C13      -14.2690    9.3350   15.8740 C.ar  801  KTN801      0.0022
     18 CL1       -16.2290    6.9500   18.1100 Cl    801  KTN801     -0.0822
     19  C14      -11.3880   12.4780   14.0430 C.3   801  KTN801      0.2248
     20  O3       -12.1730   13.5700   14.7190 O.3   801  KTN801     -0.4740
     21  C15      -13.8720   13.3400   14.2690 C.ar  801  KTN801      0.1387
     22  C16      -14.3280   13.7580   13.0400 C.ar  801  KTN801      0.0382
     23  C17      -15.6930   13.3910   12.7100 C.ar  801  KTN801      0.0176
     24  C18      -16.5060   12.6910   13.6650 C.ar  801  KTN801      0.0481
     25  C19      -15.9820   12.5010   14.9420 C.ar  801  KTN801      0.0176
     26  C20      -14.6900   12.8940   15.2940 C.ar  801  KTN801      0.0382
     27  N3       -17.8450   12.2160   13.2430 N.pl3 801  KTN801     -0.3041
     28  C21      -18.8000   13.1950   12.5980 C.3   801  KTN801      0.1123
     29  C22      -20.2230   12.6800   12.4410 C.3   801  KTN801      0.1148
     30  N4       -20.8460   12.1890   13.4920 N.am  801  KTN801     -0.2760
     31  C23      -19.7910   10.6440   13.7660 C.3   801  KTN801      0.1148
     32  C24      -18.4140   10.8180   13.1050 C.3   801  KTN801      0.1123
     33  C25      -22.1940   12.0210   13.5750 C.2   801  KTN801      0.2262
     34  O4       -22.6850   10.9390   13.8820 O.2   801  KTN801     -0.2749
     35  C26      -23.0810   13.1770   13.2850 C.3   801  KTN801      0.0948
     36 CL2       -11.2960    6.6330   15.8180 Cl    801  KTN801     -0.0824
@<TRIPOS>BOND
     1     3     2   ar
     2     3     4   ar
     3     2     1   ar
     4     4     5   ar
     5    29    28    1
     6    29    30    1
     7     1     5   ar
     8     1     6    1
     9    28    27    1
    10    23    22   ar
    11    23    24   ar
    12    22    21   ar
    13    32    27    1
    14    32    31    1
    15    27    24    1
    16    35    33    1
    17     6     7    1
    18    30    33   am
    19    30    31    1
    20    33    34    2
    21    24    25   ar
    22    19    20    1
    23    19     9    1
    24    19    10    1
    25    21    20    1
    26    21    26   ar
    27    11     7    1
    28    11    10    1
    29     7     8    1
    30     7    12    1
    31    25    26   ar
    32     8     9    1
    33     9    10    1
    34    12    17   ar
    35    12    13   ar
    36    36    13    1
    37    17    16   ar
    38    13    14   ar
    39    16    15   ar
    40    14    15   ar
    41    15    18    1
