@<TRIPOS>MOLECULE
1jip_HEM_A_1.pdb
 43 50 0 0 0
SMALL
GASTEIGER

@<TRIPOS>ATOM
      1 FE         -8.0620   12.2200   10.2350 Fe    410  HEM410      0.0000
      2  CHA      -10.8820   14.1810    9.9380 C.2   410  HEM410      0.0000
      3  CHB       -9.2020   10.1930    7.6940 C.2   410  HEM410      0.0000
      4  CHC       -5.1670   10.4050   10.4450 C.2   410  HEM410      0.0000
      5  CHD       -7.0760   14.0930   12.9080 C.2   410  HEM410      0.0000
      6  NA        -9.7020   12.1750    9.0890 N.ar  410  HEM410      0.0000
      7  C1A      -10.7610   13.0790    9.0820 C.ar  410  HEM410      0.0000
      8  C2A      -11.7450   12.7210    8.0840 C.ar  410  HEM410      0.0000
      9  C3A      -11.2880   11.5830    7.4820 C.ar  410  HEM410      0.0000
     10  C4A      -10.0350   11.2480    8.1010 C.ar  410  HEM410      0.0000
     11  CMA      -11.9250   10.7950    6.3460 C.3   410  HEM410      0.0000
     12  CAA      -12.9550   13.5850    7.7430 C.3   410  HEM410      0.0000
     13  CBA      -14.1820   13.0490    8.4520 C.3   410  HEM410      0.0000
     14  CGA      -15.4550   13.8200    8.1220 C.2   410  HEM410      0.0000
     15  O1A      -15.5250   14.4760    7.0580 O.co2 410  HEM410      0.0000
     16  O2A      -16.4000   13.7500    8.9290 O.co2 410  HEM410      0.0000
     17  NB        -7.3280   10.6400    9.2550 N.2   410  HEM410      0.0000
     18  C1B       -7.9240    9.9230    8.2070 C.2   410  HEM410      0.0000
     19  C2B       -7.0530    8.8520    7.7640 C.2   410  HEM410      0.0000
     20  C3B       -5.9200    8.8940    8.5620 C.2   410  HEM410      0.0000
     21  C4B       -6.0810   10.0140    9.4550 C.2   410  HEM410      0.0000
     22  CMB       -7.3670    7.8680    6.6290 C.3   410  HEM410      0.0000
     23  CAB       -4.7840    8.0550    8.5530 C.3   410  HEM410      0.0000
     24  CBB       -4.6280    6.8100    7.8890 C.3   410  HEM410      0.0000
     25  NC        -6.4900   12.2050   11.4480 N.ar  410  HEM410      0.0000
     26  C1C       -5.3500   11.4300   11.3650 C.ar  410  HEM410      0.0000
     27  C2C       -4.3820   11.8390   12.3660 C.ar  410  HEM410      0.0000
     28  C3C       -4.9430   12.8070   13.1030 C.ar  410  HEM410      0.0000
     29  C4C       -6.2480   13.0380   12.5160 C.ar  410  HEM410      0.0000
     30  CMC       -2.9470   11.3300   12.4530 C.3   410  HEM410      0.0000
     31  CAC       -4.4760   13.5520   14.2100 C.3   410  HEM410      0.0000
     32  CBC       -3.4260   13.2450   15.1300 C.3   410  HEM410      0.0000
     33  ND        -8.8160   13.7910   11.2140 N.2   410  HEM410      0.0000
     34  C1D       -8.2700   14.4530   12.2900 C.2   410  HEM410      0.0000
     35  C2D       -9.0840   15.5940   12.6980 C.2   410  HEM410      0.0000
     36  C3D      -10.1520   15.6280   11.8760 C.2   410  HEM410      0.0000
     37  C4D       -9.9840   14.5200   10.9400 C.2   410  HEM410      0.0000
     38  CMD       -8.7230   16.5700   13.8060 C.3   410  HEM410      0.0000
     39  CAD      -11.2640   16.6500   11.9110 C.3   410  HEM410      0.0000
     40  CBD      -11.0040   17.7850   10.9170 C.3   410  HEM410      0.0000
     41  CGD      -12.1350   18.7930   10.8700 C.2   410  HEM410      0.0000
     42  O1D      -13.2910   18.3880   11.0840 O.co2 410  HEM410      0.0000
     43  O2D      -11.8710   19.9820   10.6050 O.co2 410  HEM410      0.0000
@<TRIPOS>BOND
     1    11     9    1
     2    22    19    1
     3    15    14   ar
     4     9     8   ar
     5     9    10   ar
     6     3    10    2
     7     3    18    1
     8    12     8    1
     9    12    13    1
    10    19    18    1
    11    19    20    2
    12    24    23    1
    13     8     7   ar
    14    10     6   ar
    15    14    13    1
    16    14    16   ar
    17    18    17    2
    18    23    20    1
    19    20    21    1
    20     7     6   ar
    21     7     2    2
    22     6     1    1
    23    17    21    1
    24    17     1    1
    25    21     4    2
    26     2    37    1
    27     1    33    1
    28     1    25    1
    29     4    26    1
    30    43    41   ar
    31    41    40    1
    32    41    42   ar
    33    40    39    1
    34    37    33    2
    35    37    36    1
    36    33    34    1
    37    26    25   ar
    38    26    27   ar
    39    25    29   ar
    40    36    39    1
    41    36    35    2
    42    34    35    1
    43    34     5    2
    44    27    30    1
    45    27    28   ar
    46    29     5    1
    47    29    28   ar
    48    35    38    1
    49    28    31    1
    50    31    32    1
