@<TRIPOS>MOLECULE
1jiu_UDP_A_1.pdb
 25 26 0 0 0
SMALL
GASTEIGER

@<TRIPOS>ATOM
      1  N1        12.2920   17.6160    5.6950 N.am  353  UDP353     -0.1766
      2  C2        13.5660   17.1880    5.3560 C.1   353  UDP353      0.2845
      3  N3        13.6720   16.6010    4.1250 N.2   353  UDP353     -0.2452
      4  C4        12.6680   16.3980    3.2150 C.1   353  UDP353      0.2182
      5  C5        11.3860   16.8850    3.6210 C.2   353  UDP353      0.1242
      6  C6        11.2450   17.4630    4.8170 C.2   353  UDP353      0.0929
      7  O2        14.5240   17.3180    6.0890 O.2   353  UDP353     -0.1918
      8  O4        12.9060   15.7590    2.1940 O.2   353  UDP353     -0.2085
      9  C1'       12.1030   18.2230    7.0260 C.3   353  UDP353      0.2401
     10  C2'       11.9730   19.7490    7.0640 C.3   353  UDP353      0.2319
     11  O2'       12.6270   20.2490    8.2160 O.3   353  UDP353     -0.2157
     12  C3'       10.4560   19.9290    7.0950 C.3   353  UDP353      0.2158
     13  C4'       10.0040   18.7500    7.9350 C.3   353  UDP353      0.1799
     14  O4'       10.9320   17.6810    7.6120 O.3   353  UDP353     -0.3320
     15  O3'       10.0560   21.1410    7.7230 O.3   353  UDP353     -0.2175
     16  C5'        8.5930   18.2890    7.6720 C.3   353  UDP353      0.1813
     17  O5'        8.1350   17.4850    8.7480 O.3   353  UDP353     -0.3111
     18  PA         6.7230   16.7570    8.6800 P.3   353  UDP353      0.2231
     19  O1A        6.6150   16.0440    7.3800 O.2   353  UDP353     -0.5169
     20  O2A        6.5400   16.0120    9.9440 O.3   353  UDP353     -0.4370
     21  O3A        5.7150   17.9860    8.6680 O.3   353  UDP353     -0.2261
     22  PB         5.1760   18.8810    9.8720 P.3   353  UDP353      0.5373
     23  O1B        4.3660   17.8660   10.5940 O.3   353  UDP353     -0.1143
     24  O2B        4.4180   19.9320    9.1340 O.2   353  UDP353     -0.2221
     25  O3B        6.4360   19.3150   10.5300 O.3   353  UDP353     -0.1143
@<TRIPOS>BOND
     1     8     4    2
     2     4     5    1
     3     4     3    2
     4     5     6    2
     5     3     2    2
     6     6     1    1
     7     2     1   am
     8     2     7    2
     9     1     9    1
    10     9    10    1
    11     9    14    1
    12    10    12    1
    13    10    11    1
    14    12    15    1
    15    12    13    1
    16    19    18    2
    17    14    13    1
    18    16    13    1
    19    16    17    1
    20    21    18    1
    21    21    22    1
    22    18    17    1
    23    18    20    1
    24    24    22    2
    25    22    25    1
    26    22    23    1
