@<TRIPOS>MOLECULE
1jiv_UDP_A_1.pdb
 25 26 0 0 0
SMALL
GASTEIGER

@<TRIPOS>ATOM
      1  N1        23.1550   13.5640   15.4760 N.am  353  UDP353     -0.1766
      2  C2        23.4230   12.7100   14.4240 C.1   353  UDP353      0.2845
      3  N3        24.7410   12.3450   14.2920 N.2   353  UDP353     -0.2452
      4  C4        25.7970   12.7310   15.0930 C.1   353  UDP353      0.2182
      5  C5        25.4380   13.5990   16.1730 C.2   353  UDP353      0.1242
      6  C6        24.1580   13.9770   16.3230 C.2   353  UDP353      0.0929
      7  O2        22.5570   12.3040   13.6670 O.2   353  UDP353     -0.1918
      8  O4        26.9350   12.3340   14.8310 O.2   353  UDP353     -0.2085
      9  C1'       21.7640   14.0200   15.6450 C.3   353  UDP353      0.2401
     10  C2'       20.9550   13.2390   16.6850 C.3   353  UDP353      0.2319
     11  O2'       19.6270   13.0580   16.2420 O.3   353  UDP353     -0.2157
     12  C3'       21.0610   14.1440   17.9070 C.3   353  UDP353      0.2158
     13  C4'       21.0590   15.5340   17.2920 C.3   353  UDP353      0.1799
     14  O4'       21.7760   15.3830   16.0390 O.3   353  UDP353     -0.3320
     15  O3'       19.9460   13.9880   18.7740 O.3   353  UDP353     -0.2175
     16  C5'       21.7430   16.5810   18.1300 C.3   353  UDP353      0.1813
     17  O5'       21.4010   17.8800   17.6680 O.3   353  UDP353     -0.3111
     18  PA        21.9980   19.1760   18.3710 P.3   353  UDP353      0.2231
     19  O1A       23.4730   19.0290   18.4240 O.3   353  UDP353     -0.4370
     20  O2A       21.4020   20.3680   17.7080 O.2   353  UDP353     -0.5169
     21  O3A       21.4530   19.0530   19.8680 O.3   353  UDP353     -0.2261
     22  PB        19.9670   19.1420   20.4510 P.3   353  UDP353      0.5373
     23  O1B       19.7340   20.6080   20.4310 O.3   353  UDP353     -0.1143
     24  O2B       20.1660   18.5280   21.7930 O.3   353  UDP353     -0.1143
     25  O3B       19.1900   18.3420   19.4720 O.2   353  UDP353     -0.2221
@<TRIPOS>BOND
     1     7     2    2
     2     3     2    2
     3     3     4    2
     4     2     1   am
     5     8     4    2
     6     4     5    1
     7     1     9    1
     8     1     6    1
     9     9    14    1
    10     9    10    1
    11    14    13    1
    12     5     6    2
    13    11    10    1
    14    10    12    1
    15    13    12    1
    16    13    16    1
    17    17    16    1
    18    17    18    1
    19    20    18    2
    20    12    15    1
    21    18    19    1
    22    18    21    1
    23    25    22    2
    24    21    22    1
    25    23    22    1
    26    22    24    1
