@<TRIPOS>MOLECULE
1jix_UDP_A_1.pdb
 25 26 0 0 0
SMALL
GASTEIGER

@<TRIPOS>ATOM
      1  N1        13.6240   -3.5410   26.3030 N.am  500  UDP500     -0.1766
      2  C2        13.0760   -4.7050   26.7910 C.1   500  UDP500      0.2845
      3  N3        13.6830   -5.2070   27.9150 N.2   500  UDP500     -0.2452
      4  C4        14.7600   -4.6670   28.5880 C.1   500  UDP500      0.2182
      5  C5        15.2580   -3.4460   28.0330 C.2   500  UDP500      0.1242
      6  C6        14.6860   -2.9360   26.9350 C.2   500  UDP500      0.0929
      7  O2        12.1240   -5.2510   26.2680 O.2   500  UDP500     -0.1918
      8  O4        15.2370   -5.2730   29.5470 O.2   500  UDP500     -0.2085
      9  C1'       13.0400   -2.9850   25.0760 C.3   500  UDP500      0.2401
     10  C2'       11.9790   -1.9060   25.3090 C.3   500  UDP500      0.2319
     11  O2'       10.9410   -2.0570   24.3680 O.3   500  UDP500     -0.2157
     12  C3'       12.7740   -0.6280   25.0680 C.3   500  UDP500      0.2158
     13  C4'       13.7320   -1.0470   23.9680 C.3   500  UDP500      0.1799
     14  O4'       14.0790   -2.4150   24.3020 O.3   500  UDP500     -0.3320
     15  O3'       11.9320    0.4180   24.5980 O.3   500  UDP500     -0.2175
     16  C5'       14.9870   -0.2210   23.8740 C.3   500  UDP500      0.1813
     17  O5'       15.6820   -0.5160   22.6660 O.3   500  UDP500     -0.3111
     18  PA        17.1090    0.1270   22.3730 P.3   500  UDP500      0.2231
     19  O1A       18.0150   -0.2180   23.4980 O.3   500  UDP500     -0.4370
     20  O2A       17.4970   -0.2420   20.9910 O.2   500  UDP500     -0.5169
     21  O3A       16.8340    1.6980   22.4680 O.3   500  UDP500     -0.2261
     22  PB        15.9450    2.6680   21.5610 P.3   500  UDP500      0.5373
     23  O1B       16.8320    2.8940   20.3850 O.2   500  UDP500     -0.2221
     24  O2B       15.7860    3.8240   22.4790 O.3   500  UDP500     -0.1143
     25  O3B       14.7160    1.8670   21.3030 O.3   500  UDP500     -0.1143
@<TRIPOS>BOND
     1    23    22    2
     2    20    18    2
     3    25    22    1
     4    22    21    1
     5    22    24    1
     6    18    21    1
     7    18    17    1
     8    18    19    1
     9    17    16    1
    10    16    13    1
    11    13    14    1
    12    13    12    1
    13    14     9    1
    14    11    10    1
    15    15    12    1
    16    12    10    1
    17     9    10    1
    18     9     1    1
    19     7     2    2
    20     1     2   am
    21     1     6    1
    22     2     3    2
    23     6     5    2
    24     3     4    2
    25     5     4    1
    26     4     8    2
