@<TRIPOS>MOLECULE
1jiz_CGS_A_1.pdb
 27 28 0 0 0
SMALL
GASTEIGER

@<TRIPOS>ATOM
      1  N1         1.1390    3.5750   70.5240 N.3   998  CGS998     -0.1464
      2  CC         2.2500    2.9170   71.2670 C.3   998  CGS998      0.1240
      3  CA         1.2060    3.6250   69.0140 C.3   998  CGS998      0.1247
      4  S4         0.0620    4.5770   71.3470 S.O2  998  CGS998      0.0639
      5  C5         2.0110    1.5020   71.7820 C.ar  998  CGS998      0.0147
      6  CD         1.9210    1.1940   73.1620 C.ar  998  CGS998      0.0003
      7  CE         1.6990   -0.1390   73.5450 C.ar  998  CGS998      0.0204
      8  CZ         1.5730   -1.1230   72.5550 C.ar  998  CGS998      0.0989
      9  N11        1.6530   -0.8580   71.2370 N.ar  998  CGS998     -0.2426
     10  CY         1.8660    0.4200   70.8800 C.ar  998  CGS998      0.0960
     11  C17        0.8620    6.0690   71.7570 C.ar  998  CGS998      0.1224
     12  CE2        1.6320    6.1720   72.9650 C.ar  998  CGS998      0.0230
     13  CD2        2.2760    7.3370   73.3350 C.ar  998  CGS998      0.0383
     14  C20        2.2090    8.5000   72.5330 C.ar  998  CGS998      0.1388
     15  CD1        1.4560    8.4280   71.3300 C.ar  998  CGS998      0.0383
     16  CE1        0.8050    7.2680   70.9470 C.ar  998  CGS998      0.0230
     17  O27        2.8540    9.6460   72.9220 O.3   998  CGS998     -0.4714
     18  COM        3.4760    9.7840   74.1960 C.3   998  CGS998      0.2525
     19  O32       -1.0320    4.8810   70.4510 O.2   998  CGS998     -0.1528
     20  O33       -0.3160    3.9390   72.5850 O.2   998  CGS998     -0.1528
     21  C34        2.4520    4.5110   68.6630 C.2   998  CGS998      0.1029
     22  N35        2.1430    5.7570   68.0800 N.am  998  CGS998     -0.2016
     23  CB         1.2080    2.3550   68.1010 C.3   998  CGS998      0.0225
     24  CG2        1.4000    2.6090   66.5930 C.3   998  CGS998      0.0019
     25  CG1       -0.0870    1.5300   68.2950 C.3   998  CGS998      0.0019
     26  O47        3.6360    4.2210   68.8460 O.2   998  CGS998     -0.5381
     27  O48        3.0960    6.5910   67.7420 O.3   998  CGS998     -0.4026
@<TRIPOS>BOND
     1    24    23    1
     2    27    22    1
     3    22    21   am
     4    23    25    1
     5    23     3    1
     6    21    26    2
     7    21     3    1
     8     3     1    1
     9    19     4    2
    10     1     2    1
    11     1     4    1
    12    10     9   ar
    13    10     5   ar
    14    16    15   ar
    15    16    11   ar
    16     9     8   ar
    17     2     5    1
    18    15    14   ar
    19     4    11    1
    20     4    20    2
    21    11    12   ar
    22     5     6   ar
    23    14    17    1
    24    14    13   ar
    25     8     7   ar
    26    17    18    1
    27    12    13   ar
    28     6     7   ar
