@<TRIPOS>MOLECULE
1jj0_SUC_A_1.pdb
 23 24 0 0 0
SMALL
GASTEIGER

@<TRIPOS>ATOM
      1  C1        -6.7950   54.4380    6.9570 C.3   2380  SUC2380     0.2713
      2  C2        -7.7580   54.5700    5.7570 C.3   2380  SUC2380     0.2406
      3  C3        -6.9790   54.2840    4.4620 C.3   2380  SUC2380     0.2198
      4  C4        -5.8130   55.3080    4.3290 C.3   2380  SUC2380     0.2144
      5  C5        -4.8870   55.1650    5.5650 C.3   2380  SUC2380     0.1835
      6  C6        -3.6490   56.0700    5.6530 C.3   2380  SUC2380     0.2142
      7  O1        -6.3310   53.0920    7.0560 O.3   2380  SUC2380    -0.3033
      8  O2        -8.8290   53.6460    5.9020 O.3   2380  SUC2380    -0.2149
      9  O3        -7.8550   54.3980    3.3530 O.3   2380  SUC2380    -0.2174
     10  O4        -5.0620   55.0640    3.1390 O.3   2380  SUC2380    -0.2176
     11  O5        -5.6810   55.3880    6.7900 O.3   2380  SUC2380    -0.3256
     12  O6        -3.9890   57.4280    5.8740 O.3   2380  SUC2380    -0.2176
     13  C1'       -7.8940   51.7870    8.4440 C.3   2380  SUC2380     0.2406
     14  C2'       -6.4910   52.3900    8.3090 C.3   2380  SUC2380     0.2516
     15  C3'       -5.4180   51.2920    8.4100 C.3   2380  SUC2380     0.2381
     16  C4'       -4.2020   52.0890    8.8390 C.3   2380  SUC2380     0.2167
     17  C5'       -4.8430   53.1030    9.8110 C.3   2380  SUC2380     0.1835
     18  C6'       -4.2130   54.4850    9.7290 C.3   2380  SUC2380     0.2142
     19  O1'       -8.0420   51.0960    9.6840 O.3   2380  SUC2380    -0.2149
     20  O2'       -6.2330   53.2230    9.4240 O.3   2380  SUC2380    -0.3272
     21  O3'       -5.1900   50.6940    7.1320 O.3   2380  SUC2380    -0.2150
     22  O4'       -3.3030   51.2520    9.5590 O.3   2380  SUC2380    -0.2175
     23  O6'       -3.1990   54.6090   10.7130 O.3   2380  SUC2380    -0.2176
@<TRIPOS>BOND
     1    10     4    1
     2     9     3    1
     3     4     3    1
     4     4     5    1
     5     3     2    1
     6     5     6    1
     7     5    11    1
     8     6    12    1
     9     2     8    1
    10     2     1    1
    11    11     1    1
    12     1     7    1
    13     7    14    1
    14    21    15    1
    15    14    15    1
    16    14    13    1
    17    14    20    1
    18    15    16    1
    19    13    19    1
    20    16    22    1
    21    16    17    1
    22    20    17    1
    23    18    17    1
    24    18    23    1
