@<TRIPOS>MOLECULE
1jj7_ADP_A_1.pdb
 27 29 0 0 0
SMALL
GASTEIGER

@<TRIPOS>ATOM
      1  PB       146.6020   10.3660   15.0720 P.3   752  ADP752      0.5373
      2  O1B      147.8840   10.1630   15.8910 O.3   752  ADP752     -0.1143
      3  O2B      146.9410   10.6420   13.6110 O.2   752  ADP752     -0.2221
      4  O3B      145.8880   11.5250   15.6790 O.3   752  ADP752     -0.1143
      5  PA       145.2090    8.0310   14.1450 P.3   752  ADP752      0.2231
      6  O1A      146.3790    7.3180   13.6950 O.3   752  ADP752     -0.4370
      7  O2A      144.3510    8.6050   12.9860 O.2   752  ADP752     -0.5169
      8  O3A      145.6300    9.1290   15.2170 O.3   752  ADP752     -0.2261
      9  O5'      144.2380    7.1040   14.9740 O.3   752  ADP752     -0.3111
     10  C5'      144.8160    6.5270   16.0420 C.3   752  ADP752      0.1813
     11  C4'      143.9770    5.5320   16.7670 C.3   752  ADP752      0.1821
     12  O4'      143.2070    4.7260   15.8780 O.3   752  ADP752     -0.3135
     13  C3'      144.9330    4.6710   17.4760 C.3   752  ADP752      0.2184
     14  O3'      145.1090    5.1080   18.7880 O.3   752  ADP752     -0.2174
     15  C2'      144.3780    3.2980   17.3320 C.3   752  ADP752      0.2570
     16  O2'      143.7030    3.0150   18.5310 O.3   752  ADP752     -0.2130
     17  C1'      143.4220    3.3540   16.1390 C.3   752  ADP752      0.3186
     18  N9       144.0510    2.7290   14.9250 N.pl3 752  ADP752     -0.1439
     19  C8       144.9360    3.3270   14.0370 C.3   752  ADP752      0.3377
     20  N7       145.2650    2.4450   13.0650 N.2   752  ADP752     -0.2095
     21  C5       144.6090    1.2890   13.3060 C.2   752  ADP752      0.2526
     22  C6       144.5670    0.0620   12.6450 C.2   752  ADP752      0.4393
     23  N6       145.2300   -0.1270   11.5050 N.pl3 752  ADP752      0.2180
     24  N1       143.7800   -0.9680   13.1510 N.2   752  ADP752      0.0021
     25  C2       143.0400   -0.7920   14.3070 C.3   752  ADP752      0.5254
     26  N3       143.0830    0.4270   14.9540 N.2   752  ADP752     -0.0055
     27  C4       143.8530    1.4490   14.4760 C.2   752  ADP752      0.3518
@<TRIPOS>BOND
     1    23    22    1
     2    22    24    2
     3    22    21    1
     4     7     5    2
     5    20    21    2
     6    20    19    1
     7    24    25    1
     8    21    27    1
     9     3     1    2
    10     6     5    1
    11    19    18    1
    12     5     9    1
    13     5     8    1
    14    25    26    1
    15    27    18    1
    16    27    26    2
    17    18    17    1
    18     9    10    1
    19     1     8    1
    20     1     4    1
    21     1     2    1
    22    12    17    1
    23    12    11    1
    24    10    11    1
    25    17    15    1
    26    11    13    1
    27    15    13    1
    28    15    16    1
    29    13    14    1
