@<TRIPOS>MOLECULE
1jj9_BBT_A_1.pdb
 24 26 0 0 0
SMALL
GASTEIGER

@<TRIPOS>ATOM
      1  N1        24.3150   27.4830   27.0610 N.2   1000  BBT1000    -0.2338
      2  C2        23.5950   26.3530   26.9590 C.1   1000  BBT1000     0.3753
      3  O2        23.0520   26.1850   25.7910 O.2   1000  BBT1000    -0.1738
      4  N3        23.4720   25.4320   27.9060 N.2   1000  BBT1000    -0.2338
      5  C4        24.0080   25.6210   29.1200 C.1   1000  BBT1000     0.2257
      6  O4        23.8690   24.8070   30.0470 O.2   1000  BBT1000    -0.2106
      7  C5        24.6160   27.0710   29.4160 C.3   1000  BBT1000     0.2746
      8  C6        24.9740   27.8020   28.1750 C.1   1000  BBT1000     0.2257
      9  O6        25.6600   28.8100   28.2810 O.2   1000  BBT1000    -0.2106
     10  NP1       25.6280   27.0340   30.4080 N.3   1000  BBT1000    -0.2455
     11  CP2       25.1780   26.9620   31.8130 C.3   1000  BBT1000     0.0743
     12  CP3       26.1970   27.4360   32.7840 C.3   1000  BBT1000     0.0175
     13  CP4       27.5310   26.7630   32.4850 C.3   1000  BBT1000     0.0054
     14  CP5       27.9500   27.0120   31.0300 C.3   1000  BBT1000     0.0175
     15  CP6       26.9280   26.4510   29.9840 C.3   1000  BBT1000     0.0743
     16  CP7       28.6030   27.2320   33.4750 C.3   1000  BBT1000     0.0356
     17  CP8       29.6880   26.1820   33.7180 C.3   1000  BBT1000     0.1821
     18  OP9       30.4180   26.8140   34.7620 O.3   1000  BBT1000    -0.2204
     19  CG        23.3870   27.9430   29.9950 C.ar  1000  BBT1000     0.0225
     20  CD1       22.1090   27.4260   30.1310 C.ar  1000  BBT1000    -0.0008
     21  CD2       23.5610   29.2890   30.3400 C.ar  1000  BBT1000    -0.0008
     22  CE1       21.0090   28.2170   30.6090 C.ar  1000  BBT1000    -0.0002
     23  CE2       22.4990   30.1040   30.8190 C.ar  1000  BBT1000    -0.0002
     24  CZ        21.2050   29.5700   30.9530 C.ar  1000  BBT1000    -0.0000
@<TRIPOS>BOND
     1     3     2    2
     2     2     1    2
     3     2     4    2
     4     1     8    2
     5     4     5    2
     6     8     9    2
     7     8     7    1
     8     5     7    1
     9     5     6    2
    10     7    19    1
    11     7    10    1
    12    15    10    1
    13    15    14    1
    14    19    20   ar
    15    19    21   ar
    16    20    22   ar
    17    21    23   ar
    18    10    11    1
    19    22    24   ar
    20    23    24   ar
    21    14    13    1
    22    11    12    1
    23    13    12    1
    24    13    16    1
    25    16    17    1
    26    17    18    1
