@<TRIPOS>MOLECULE
1jjb_PE7_A_1.pdb
 22 21 0 0 0
SMALL
GASTEIGER

@<TRIPOS>ATOM
      1  S1         3.3720   67.8640   61.3910 S.3   999  PE7999     -0.0794
      2  C2         4.9190   67.7910   62.3670 C.3   999  PE7999      0.1007
      3  C3         4.9550   68.5520   63.6560 C.3   999  PE7999      0.1548
      4  O4         4.4220   67.7670   64.7250 O.3   999  PE7999     -0.3501
      5  C5         4.0580   68.5580   65.8630 C.3   999  PE7999      0.1741
      6  C6         3.0690   67.8440   66.7420 C.3   999  PE7999      0.1742
      7  O7         3.6430   66.6460   67.2600 O.3   999  PE7999     -0.3484
      8  C8         3.2810   66.3720   68.6200 C.3   999  PE7999      0.1742
      9  C9         3.9880   65.1360   69.0930 C.3   999  PE7999      0.1742
     10  O10        3.0980   64.3130   69.8390 O.3   999  PE7999     -0.3484
     11  C11        3.3230   62.9150   69.6570 C.3   999  PE7999      0.1742
     12  C12        2.0290   62.1620   69.7430 C.3   999  PE7999      0.1742
     13  O13        1.5780   62.1130   71.0920 O.3   999  PE7999     -0.3484
     14  C14        0.2640   61.5750   71.2340 C.3   999  PE7999      0.1742
     15  C15        0.0510   61.1510   72.6520 C.3   999  PE7999      0.1742
     16  O16       -1.1890   60.4550   72.8000 O.3   999  PE7999     -0.3484
     17  C17       -1.0220   59.1470   73.3600 C.3   999  PE7999      0.1742
     18  C18       -1.8320   58.9740   74.6200 C.3   999  PE7999      0.1742
     19  O19       -3.1260   59.5540   74.4800 O.3   999  PE7999     -0.3483
     20  C20       -4.1810   58.5970   74.5780 C.3   999  PE7999      0.1777
     21  C21       -5.3880   59.1990   75.2270 C.3   999  PE7999      0.2140
     22  O22       -5.9100   60.2650   74.4390 O.3   999  PE7999     -0.2176
@<TRIPOS>BOND
     1     1     2    1
     2     2     3    1
     3     3     4    1
     4     4     5    1
     5     5     6    1
     6     6     7    1
     7     7     8    1
     8     8     9    1
     9     9    10    1
    10    11    12    1
    11    11    10    1
    12    12    13    1
    13    13    14    1
    14    14    15    1
    15    15    16    1
    16    16    17    1
    17    17    18    1
    18    22    21    1
    19    19    20    1
    20    19    18    1
    21    20    21    1
