@<TRIPOS>MOLECULE
1jjc_FA5_A_1.pdb
 34 37 0 0 0
SMALL
GASTEIGER

@<TRIPOS>ATOM
      1  C         17.6870   63.4350   18.9540 C.2   999  FA5999      0.3389
      2  O         17.3550   62.2970   19.3400 O.2   999  FA5999     -0.2482
      3  CA        19.1600   63.8120   18.9240 C.3   999  FA5999      0.1946
      4  N         20.0120   62.8480   19.5930 N.3   999  FA5999     -0.1206
      5  CB        19.5510   63.9790   17.4450 C.3   999  FA5999      0.0568
      6  CG        20.8430   64.6640   17.2020 C.ar  999  FA5999     -0.0202
      7  CD1       20.9360   66.0790   17.2120 C.ar  999  FA5999     -0.0042
      8  CD2       22.0350   63.9250   16.9630 C.ar  999  FA5999     -0.0042
      9  CE1       22.1700   66.7200   16.9920 C.ar  999  FA5999     -0.0003
     10  CE2       23.2590   64.5720   16.7460 C.ar  999  FA5999     -0.0003
     11  CZ        23.3460   65.9740   16.7570 C.ar  999  FA5999     -0.0000
     12  P         15.2370   63.9450   18.5720 P.3   999  FA5999      0.2723
     13  OP1       14.9220   63.4030   19.9240 O.3   999  FA5999     -0.4273
     14  OP2       14.3410   65.0270   18.0920 O.2   999  FA5999     -0.5082
     15  OP3       16.7730   64.4990   18.4960 O.3   999  FA5999     -0.4091
     16  O5'       15.1940   62.7460   17.4450 O.3   999  FA5999     -0.3024
     17  C5'       15.5460   63.0060   16.0430 C.3   999  FA5999      0.1823
     18  C4'       14.5700   62.2960   15.0480 C.3   999  FA5999      0.1822
     19  O4'       13.8300   61.2640   15.8130 O.3   999  FA5999     -0.3135
     20  C3'       13.4750   63.2010   14.4610 C.3   999  FA5999      0.2184
     21  O3'       13.9050   63.9260   13.3020 O.3   999  FA5999     -0.2174
     22  C2'       12.2550   62.2760   14.2380 C.3   999  FA5999      0.2570
     23  O2'       11.9820   61.9540   12.8560 O.3   999  FA5999     -0.2130
     24  C1'       12.5390   61.0520   15.1640 C.3   999  FA5999      0.3186
     25  N9        11.5130   60.8320   16.2790 N.pl3 999  FA5999     -0.1439
     26  C8        11.3980   61.5250   17.3250 C.3   999  FA5999      0.3377
     27  N7        10.4410   61.1350   18.2850 N.2   999  FA5999     -0.2095
     28  C5         9.8180   60.1040   17.5520 C.2   999  FA5999      0.2526
     29  C6         8.6640   59.2110   17.7970 C.2   999  FA5999      0.4393
     30  N6         7.9310   59.2740   18.9510 N.pl3 999  FA5999      0.2180
     31  N1         8.3190   58.2780   16.8190 N.2   999  FA5999      0.0021
     32  C2         9.1070   58.1880   15.4880 C.3   999  FA5999      0.5254
     33  N3        10.1420   58.9910   15.3280 N.2   999  FA5999     -0.0055
     34  C4        10.4540   59.8990   16.3170 C.2   999  FA5999      0.3518
@<TRIPOS>BOND
     1    23    22    1
     2    21    20    1
     3    22    20    1
     4    22    24    1
     5    20    18    1
     6    18    19    1
     7    18    17    1
     8    24    19    1
     9    24    25    1
    10    33    32    1
    11    33    34    2
    12    32    31    1
    13    17    16    1
    14    25    34    1
    15    25    26    1
    16    34    28    1
    17    10    11   ar
    18    10     8   ar
    19    11     9   ar
    20    31    29    2
    21     8     6   ar
    22     9     7   ar
    23     6     7   ar
    24     6     5    1
    25    26    27    1
    26    16    12    1
    27     5     3    1
    28    28    29    1
    29    28    27    2
    30    29    30    1
    31    14    12    2
    32    15    12    1
    33    15     1    1
    34    12    13    1
    35     3     1    1
    36     3     4    1
    37     1     2    2
