@<TRIPOS>MOLECULE
1jje_BYS_A_1.pdb
 25 27 0 0 0
SMALL
GASTEIGER

@<TRIPOS>ATOM
      1  C1        57.4160   25.1030   33.0280 C.3   250  BYS250      0.1187
      2  C2        57.9150   26.3470   32.3210 C.2   250  BYS250      0.3652
      3  O3        57.0850   27.1160   31.7890 O.co2 250  BYS250     -0.2456
      4  O4        59.1230   26.6600   32.2440 O.co2 250  BYS250     -0.2456
      5  C5        58.1130   23.8370   32.4910 C.3   250  BYS250      0.0382
      6  C6        58.0040   23.7750   30.9750 C.ar  250  BYS250     -0.0216
      7  C7        59.0930   24.1020   30.1700 C.ar  250  BYS250     -0.0043
      8  C8        59.0050   24.0770   28.7710 C.ar  250  BYS250     -0.0003
      9  C9        57.8070   23.6650   28.1580 C.ar  250  BYS250     -0.0000
     10  C10       56.7110   23.3550   28.9530 C.ar  250  BYS250     -0.0003
     11  C11       56.8170   23.3670   30.3540 C.ar  250  BYS250     -0.0043
     12  C12       57.6370   25.1710   34.5470 C.3   250  BYS250      0.1187
     13  C13       57.5140   26.5790   35.0580 C.2   250  BYS250      0.3652
     14  O14       56.6730   27.3870   34.6000 O.co2 250  BYS250     -0.2456
     15  O15       58.2960   26.9840   35.9560 O.co2 250  BYS250     -0.2456
     16  C16       56.6260   24.2210   35.2430 C.3   250  BYS250      0.0383
     17  C17       57.0770   24.1100   36.6850 C.ar  250  BYS250     -0.0184
     18  C18       56.4830   24.8980   37.7000 C.ar  250  BYS250      0.0359
     19  C19       56.9680   24.6860   38.9890 C.ar  250  BYS250      0.1761
     20  O20       56.6450   25.3320   40.1140 O.3   250  BYS250     -0.4346
     21  C21       57.4370   24.7990   41.1870 C.3   250  BYS250      0.4294
     22  O22       58.2800   23.8030   40.5730 O.3   250  BYS250     -0.4346
     23  C23       57.9960   23.7970   39.2640 C.ar  250  BYS250      0.1764
     24  C24       58.6040   23.0440   38.2630 C.ar  250  BYS250      0.0399
     25  C25       58.0950   23.2020   36.9550 C.ar  250  BYS250     -0.0009
@<TRIPOS>BOND
     1     9     8   ar
     2     9    10   ar
     3     8     7   ar
     4    10    11   ar
     5     7     6   ar
     6    11     6   ar
     7     6     5    1
     8     3     2   ar
     9     4     2   ar
    10     2     1    1
    11     5     1    1
    12     1    12    1
    13    12    13    1
    14    12    16    1
    15    14    13   ar
    16    13    15   ar
    17    16    17    1
    18    17    25   ar
    19    17    18   ar
    20    25    24   ar
    21    18    19   ar
    22    24    23   ar
    23    19    23   ar
    24    19    20    1
    25    23    22    1
    26    20    21    1
    27    22    21    1
