@<TRIPOS>MOLECULE
1jjk_BMP_A_1.pdb
 22 23 0 0 0
SMALL
GASTEIGER

@<TRIPOS>ATOM
      1  P        -19.2480    1.8330   10.2510 P.3   301  BMP301      0.5327
      2  OP1      -18.6140    0.6440    9.4900 O.2   301  BMP301     -0.2224
      3  OP2      -20.7560    1.8640   10.2340 O.3   301  BMP301     -0.1145
      4  OP3      -18.6880    3.1380    9.6960 O.3   301  BMP301     -0.1145
      5  O5'      -18.7390    1.6240   11.7610 O.3   301  BMP301     -0.2675
      6  C5'      -19.1830    2.5800   12.7480 C.3   301  BMP301      0.1859
      7  C4'      -18.6750    2.4480   14.1340 C.3   301  BMP301      0.1801
      8  O4'      -19.3020    1.2530   14.8980 O.3   301  BMP301     -0.3319
      9  C3'      -17.2000    2.4860   14.4840 C.3   301  BMP301      0.2158
     10  O3'      -16.9730    3.5060   15.5290 O.3   301  BMP301     -0.2175
     11  C2'      -16.9110    1.0890   15.0990 C.3   301  BMP301      0.2320
     12  O2'      -15.8450    0.9780   15.9490 O.3   301  BMP301     -0.2157
     13  C1'      -18.2380    0.7480   15.7490 C.3   301  BMP301      0.2425
     14  N1       -18.4460   -0.7470   16.0780 N.am  301  BMP301     -0.1473
     15  C2       -18.4340   -1.6770   15.0330 C.1   301  BMP301      0.2863
     16  O2       -18.2530   -1.3150   13.7640 O.2   301  BMP301     -0.1918
     17  N3       -18.6180   -3.0180   15.3720 N.2   301  BMP301     -0.2489
     18  C4       -18.8060   -3.4120   16.6750 C.1   301  BMP301      0.2018
     19  O4       -18.9660   -4.6150   16.9330 O.2   301  BMP301     -0.2129
     20  C5       -18.8120   -2.4190   17.6980 C.3   301  BMP301      0.2213
     21  C6       -18.6240   -1.1170   17.3050 C.2   301  BMP301      0.2591
     22  O1       -18.6280   -0.1700   18.2910 O.2   301  BMP301     -0.2725
@<TRIPOS>BOND
     1     2     1    2
     2     4     1    1
     3     3     1    1
     4     1     5    1
     5     5     6    1
     6     6     7    1
     7    16    15    2
     8     7     9    1
     9     7     8    1
    10     9    11    1
    11     9    10    1
    12     8    13    1
    13    15    17    2
    14    15    14   am
    15    11    13    1
    16    11    12    1
    17    17    18    2
    18    13    14    1
    19    14    21   am
    20    18    19    2
    21    18    20    1
    22    21    20    1
    23    21    22    2
