@<TRIPOS>MOLECULE
1jjt_BDS_A_1.pdb
 28 31 0 0 0
SMALL
GASTEIGER

@<TRIPOS>ATOM
      1  C1        58.1260   24.9420   33.0130 C.3   250  BDS250      0.1187
      2  C2        58.6070   26.1610   32.2540 C.2   250  BDS250      0.3652
      3  O3        57.8030   26.9000   31.6360 O.co2 250  BDS250     -0.2456
      4  O4        59.8480   26.3790   32.2340 O.co2 250  BDS250     -0.2456
      5  C5        58.9370   23.7310   32.4450 C.3   250  BDS250      0.0383
      6  C6        58.1780   23.0330   31.3310 C.ar  250  BDS250     -0.0184
      7  C7        57.2590   22.0130   31.6750 C.ar  250  BDS250     -0.0009
      8  C8        56.4800   21.3720   30.7130 C.ar  250  BDS250      0.0399
      9  C9        56.7650   21.6650   29.3740 C.ar  250  BDS250      0.1764
     10  O10       56.1730   21.1630   28.2860 O.3   250  BDS250     -0.4346
     11  C11       56.7150   21.8570   27.1600 C.3   250  BDS250      0.4294
     12  O12       57.6100   22.8450   27.6980 O.3   250  BDS250     -0.4346
     13  C13       57.6250   22.7000   29.0310 C.ar  250  BDS250      0.1761
     14  C14       58.3630   23.4020   29.9850 C.ar  250  BDS250      0.0359
     15  C15       58.4540   25.0100   34.5340 C.3   250  BDS250      0.1187
     16  C16       58.4420   26.4470   35.0360 C.2   250  BDS250      0.3652
     17  O17       57.5670   27.2450   34.6300 O.co2 250  BDS250     -0.2456
     18  O18       59.3060   26.8330   35.8760 O.co2 250  BDS250     -0.2456
     19  C19       57.3350   24.1930   35.2490 C.3   250  BDS250      0.0383
     20  C20       57.6160   24.0690   36.7340 C.ar  250  BDS250     -0.0184
     21  C21       58.3830   22.9910   37.2010 C.ar  250  BDS250     -0.0009
     22  C22       58.6700   22.8470   38.5690 C.ar  250  BDS250      0.0399
     23  C23       58.1480   23.7790   39.4550 C.ar  250  BDS250      0.1764
     24  O24       58.3240   23.8810   40.7770 O.3   250  BDS250     -0.4346
     25  C25       57.6010   25.0360   41.2320 C.3   250  BDS250      0.4294
     26  O26       57.0740   25.6420   40.0380 O.3   250  BDS250     -0.4346
     27  C27       57.3590   24.8350   39.0030 C.ar  250  BDS250      0.1761
     28  C28       57.0780   24.9940   37.6570 C.ar  250  BDS250      0.0359
@<TRIPOS>BOND
     1    11    12    1
     2    11    10    1
     3    12    13    1
     4    10     9    1
     5    13     9   ar
     6    13    14   ar
     7     9     8   ar
     8    14     6   ar
     9     8     7   ar
    10     6     7   ar
    11     6     5    1
    12     3     2   ar
    13     4     2   ar
    14     2     1    1
    15     5     1    1
    16     1    15    1
    17    15    16    1
    18    15    19    1
    19    17    16   ar
    20    16    18   ar
    21    19    20    1
    22    20    21   ar
    23    20    28   ar
    24    21    22   ar
    25    28    27   ar
    26    22    23   ar
    27    27    23   ar
    28    27    26    1
    29    23    24    1
    30    26    25    1
    31    24    25    1
