@<TRIPOS>MOLECULE
1jju_HEM_A_1.pdb
 43 50 0 0 0
SMALL
GASTEIGER

@<TRIPOS>ATOM
      1 FE         87.3040   -1.5360   36.1710 Fe    991  HEM991      0.0000
      2  CHA       87.7950   -2.2270   32.9060 C.2   991  HEM991      0.0000
      3  CHB       90.5190   -0.4110   36.4320 C.2   991  HEM991      0.0000
      4  CHC       86.8040   -0.7930   39.4680 C.2   991  HEM991      0.0000
      5  CHD       84.1120   -2.6850   35.9670 C.2   991  HEM991      0.0000
      6  NA        88.8790   -1.3740   34.9060 N.2   991  HEM991      0.0000
      7  C1A       88.8810   -1.7310   33.5850 C.2   991  HEM991      0.0000
      8  C2A       90.2030   -1.4910   33.0390 C.2   991  HEM991      0.0000
      9  C3A       90.9640   -0.9880   34.0100 C.2   991  HEM991      0.0000
     10  C4A       90.1460   -0.8910   35.2060 C.2   991  HEM991      0.0000
     11  CMA       92.4420   -0.5710   33.9220 C.3   991  HEM991      0.0000
     12  CAA       90.5990   -1.7820   31.5910 C.3   991  HEM991      0.0000
     13  CBA       90.1540   -0.6810   30.6610 C.3   991  HEM991      0.0000
     14  CGA       90.7820   -0.7890   29.3090 C.2   991  HEM991      0.0000
     15  O1A       91.6840    0.0920   29.0580 O.co2 991  HEM991      0.0000
     16  O2A       90.4070   -1.6880   28.5710 O.co2 991  HEM991      0.0000
     17  NB        88.4170   -0.7420   37.6600 N.ar  991  HEM991      0.0000
     18  C1B       89.7420   -0.3300   37.5580 C.ar  991  HEM991      0.0000
     19  C2B       90.1840    0.2100   38.8360 C.ar  991  HEM991      0.0000
     20  C3B       89.1290    0.1070   39.6850 C.ar  991  HEM991      0.0000
     21  C4B       88.0460   -0.4960   38.9650 C.ar  991  HEM991      0.0000
     22  CMB       91.5850    0.7780   39.1200 C.3   991  HEM991      0.0000
     23  CAB       89.0280    0.5260   41.1530 C.3   991  HEM991      0.0000
     24  CBB       88.8210    2.0510   41.3370 C.3   991  HEM991      0.0000
     25  NC        85.7700   -1.7230   37.4540 N.2   991  HEM991      0.0000
     26  C1C       85.7640   -1.3740   38.7830 C.2   991  HEM991      0.0000
     27  C2C       84.4830   -1.7290   39.4040 C.2   991  HEM991      0.0000
     28  C3C       83.7270   -2.2740   38.4410 C.2   991  HEM991      0.0000
     29  C4C       84.5170   -2.2580   37.2130 C.2   991  HEM991      0.0000
     30  CMC       84.1550   -1.5000   40.9100 C.3   991  HEM991      0.0000
     31  CAC       82.3030   -2.8690   38.5370 C.3   991  HEM991      0.0000
     32  CBC       81.1890   -1.9020   38.9720 C.3   991  HEM991      0.0000
     33  ND        86.1740   -2.2700   34.7270 N.ar  991  HEM991      0.0000
     34  C1D       84.8440   -2.6910   34.8060 C.ar  991  HEM991      0.0000
     35  C2D       84.3820   -3.1260   33.4970 C.ar  991  HEM991      0.0000
     36  C3D       85.4230   -2.9900   32.6370 C.ar  991  HEM991      0.0000
     37  C4D       86.5350   -2.4800   33.4080 C.ar  991  HEM991      0.0000
     38  CMD       82.9560   -3.6420   33.1890 C.3   991  HEM991      0.0000
     39  CAD       85.4370   -3.3130   31.1270 C.3   991  HEM991      0.0000
     40  CBD       84.7900   -2.1440   30.2800 C.3   991  HEM991      0.0000
     41  CGD       85.6060   -0.8440   30.2630 C.2   991  HEM991      0.0000
     42  O1D       85.0730    0.2280   30.5920 O.co2 991  HEM991      0.0000
     43  O2D       86.7930   -0.9500   29.9080 O.co2 991  HEM991      0.0000
@<TRIPOS>BOND
     1    16    14   ar
     2    15    14   ar
     3    14    13    1
     4    43    41   ar
     5    41    40    1
     6    41    42   ar
     7    40    39    1
     8    13    12    1
     9    39    36    1
    10    12     8    1
    11    36    37   ar
    12    36    35   ar
    13     2    37    2
    14     2     7    1
    15     8     7    1
    16     8     9    2
    17    38    35    1
    18    37    33   ar
    19    35    34   ar
    20     7     6    2
    21    11     9    1
    22     9    10    1
    23    33    34   ar
    24    33     1    1
    25    34     5    2
    26     6    10    1
    27     6     1    1
    28    10     3    2
    29     5    29    1
    30     1    25    1
    31     1    17    1
    32     3    18    1
    33    29    25    2
    34    29    28    1
    35    25    26    1
    36    18    17   ar
    37    18    19   ar
    38    17    21   ar
    39    28    31    1
    40    28    27    2
    41    31    32    1
    42    26    27    1
    43    26     4    2
    44    19    22    1
    45    19    20   ar
    46    21     4    1
    47    21    20   ar
    48    27    30    1
    49    20    23    1
    50    23    24    1
