@<TRIPOS>MOLECULE
1jjv_ATP_A_1.pdb
 31 33 0 0 0
SMALL
GASTEIGER

@<TRIPOS>ATOM
      1  PG        13.1830   29.7940   12.2530 P.3   300  ATP300      0.5373
      2  O1G       12.2120   28.6840   12.2940 O.3   300  ATP300     -0.1143
      3  O2G       12.5310   31.1420   11.9830 O.3   300  ATP300     -0.1143
      4  O3G       14.2600   29.3650   11.2360 O.2   300  ATP300     -0.2221
      5  PB        15.2220   30.0920   14.2170 P.3   300  ATP300      0.2277
      6  O1B       16.0230   28.8960   13.8840 O.2   300  ATP300     -0.5168
      7  O2B       15.8760   31.4140   13.8950 O.3   300  ATP300     -0.4368
      8  O3B       13.7310   29.9450   13.7370 O.3   300  ATP300     -0.2258
      9  PA        14.5000   31.0310   16.8770 P.3   300  ATP300      0.2189
     10  O1A       15.7060   31.5000   17.5840 O.3   300  ATP300     -0.4371
     11  O2A       13.7270   32.0630   16.1390 O.2   300  ATP300     -0.5170
     12  O3A       14.8620   29.9410   15.7610 O.3   300  ATP300     -0.2700
     13  O5'       13.7150   30.1260   17.9200 O.3   300  ATP300     -0.3112
     14  C5'       12.5090   29.4940   17.5500 C.3   300  ATP300      0.1813
     15  C4'       11.4870   29.7180   18.6620 C.3   300  ATP300      0.1821
     16  O4'       11.8790   29.0740   19.8590 O.3   300  ATP300     -0.3135
     17  C3'       11.3600   31.1840   19.0290 C.3   300  ATP300      0.2184
     18  O3'       10.0300   31.3320   19.4480 O.3   300  ATP300     -0.2174
     19  C2'       12.3000   31.3330   20.2110 C.3   300  ATP300      0.2570
     20  O2'       11.9510   32.3770   21.1080 O.3   300  ATP300     -0.2130
     21  C1'       12.1830   29.9840   20.9000 C.3   300  ATP300      0.3186
     22  N9        13.4420   29.5130   21.5140 N.pl3 300  ATP300     -0.1439
     23  C8        14.7290   29.5770   21.0350 C.3   300  ATP300      0.3377
     24  N7        15.5490   28.9480   21.9170 N.2   300  ATP300     -0.2095
     25  C5        14.7630   28.5520   22.9140 C.2   300  ATP300      0.2526
     26  C6        15.0390   27.8780   24.0810 C.2   300  ATP300      0.4393
     27  N6        16.1810   27.2400   24.1740 N.pl3 300  ATP300      0.2180
     28  N1        14.0220   27.5750   24.9410 N.2   300  ATP300      0.0021
     29  C2        12.7170   27.9140   24.6990 C.3   300  ATP300      0.5254
     30  N3        12.4250   28.5770   23.5450 N.2   300  ATP300     -0.0055
     31  C4        13.4520   28.8870   22.6870 C.2   300  ATP300      0.3518
@<TRIPOS>BOND
     1     4     1    2
     2     3     1    1
     3     1     2    1
     4     1     8    1
     5     8     5    1
     6     6     5    2
     7     7     5    1
     8     5    12    1
     9    12     9    1
    10    11     9    2
    11     9    10    1
    12     9    13    1
    13    14    13    1
    14    14    15    1
    15    15    17    1
    16    15    16    1
    17    17    18    1
    18    17    19    1
    19    16    21    1
    20    19    21    1
    21    19    20    1
    22    21    22    1
    23    23    22    1
    24    23    24    1
    25    22    31    1
    26    24    25    2
    27    31    25    1
    28    31    30    2
    29    25    26    1
    30    30    29    1
    31    26    27    1
    32    26    28    2
    33    29    28    1
