@<TRIPOS>MOLECULE
1jk3_BAT_A_1.pdb
 32 33 0 0 0
SMALL
GASTEIGER

@<TRIPOS>ATOM
      1  C1        12.9840   -4.3040   20.1270 C.3   900  BAT900      0.0651
      2  C2        12.2050   -3.0350   19.9570 C.2   900  BAT900      0.0878
      3  C3        13.2850   -4.4680   21.6180 C.3   900  BAT900      0.0694
      4  C4        13.4350   -2.2990   23.1530 C.ar  900  BAT900      0.0546
      5  C5        13.4500   -0.9280   22.9490 C.ar  900  BAT900      0.0132
      6  C6        12.5770   -0.2860   23.8210 C.ar  900  BAT900      0.0080
      7  C7        11.9710   -1.1890   24.6770 C.ar  900  BAT900      0.0359
      8  C8        12.1490   -5.4900   19.6220 C.3   900  BAT900      0.0850
      9  C9        11.7810   -5.3450   18.1240 C.3   900  BAT900      0.0096
     10  C10       10.8250   -6.4260   17.6080 C.3   900  BAT900      0.0005
     11  C11        9.4070   -6.2650   18.1510 C.3   900  BAT900      0.0000
     12  C12       10.7890   -6.3790   16.0860 C.3   900  BAT900      0.0000
     13  C13       12.9080   -6.7610   19.8800 C.2   900  BAT900      0.2417
     14  C14       13.1840   -8.8240   21.1160 C.3   900  BAT900      0.1770
     15  C15       13.0100  -10.0650   20.3070 C.2   900  BAT900      0.2616
     16  C16       14.0830  -12.0540   19.3380 C.3   900  BAT900      0.1386
     17  C17       12.7680   -9.4080   22.4410 C.3   900  BAT900      0.0574
     18  C18       13.0720   -8.3300   23.3940 C.ar  900  BAT900     -0.0200
     19  C19       12.0590   -7.8050   24.1420 C.ar  900  BAT900     -0.0042
     20  C20       12.3260   -6.7730   25.0260 C.ar  900  BAT900     -0.0003
     21  C21       13.6050   -6.2430   25.1460 C.ar  900  BAT900     -0.0000
     22  C22       14.6270   -6.7780   24.3840 C.ar  900  BAT900     -0.0003
     23  C23       14.3510   -7.8100   23.5000 C.ar  900  BAT900     -0.0042
     24  N1        12.6970   -2.1100   19.1920 N.am  900  BAT900     -0.2029
     25  N2        12.3710   -7.6770   20.6740 N.am  900  BAT900     -0.1974
     26  N3        14.1080  -10.7560   20.0060 N.am  900  BAT900     -0.2021
     27  O1        11.0710   -2.9240   20.5290 O.2   900  BAT900     -0.5395
     28  O2        11.9540   -0.9550   18.9570 O.3   900  BAT900     -0.4026
     29  O3        14.0770   -6.9070   19.3510 O.2   900  BAT900     -0.2733
     30  O4        11.8380  -10.4860   19.9500 O.2   900  BAT900     -0.2715
     31  S1        14.5030   -3.2670   22.2210 S.3   900  BAT900     -0.1068
     32  S2        12.4350   -2.7980   24.4340 S.2   900  BAT900     -0.0802
@<TRIPOS>BOND
     1    12    10    1
     2    10     9    1
     3    10    11    1
     4     9     8    1
     5    28    24    1
     6    24     2   am
     7    16    26    1
     8    29    13    2
     9     8    13    1
    10     8     1    1
    11    13    25   am
    12    30    15    2
    13     2     1    1
    14     2    27    2
    15    26    15   am
    16     1     3    1
    17    15    14    1
    18    25    14    1
    19    14    17    1
    20     3    31    1
    21    31     4    1
    22    17    18    1
    23     5     4   ar
    24     5     6   ar
    25     4    32   ar
    26    18    23   ar
    27    18    19   ar
    28    23    22   ar
    29     6     7   ar
    30    19    20   ar
    31    22    21   ar
    32    32     7   ar
    33    20    21   ar
