@<TRIPOS>MOLECULE
1jkf_NAD_A_1.pdb
 44 48 0 0 0
SMALL
GASTEIGER

@<TRIPOS>ATOM
      1  PA       -20.2060   44.2980    5.4430 P.3   600  NAD600      0.2189
      2  O1A      -19.2430   44.6210    4.3060 O.2   600  NAD600     -0.5170
      3  O2A      -21.5880   43.6390    5.0940 O.3   600  NAD600     -0.4371
      4  O5B      -20.4840   45.6250    6.3460 O.3   600  NAD600     -0.3112
      5  C5B      -21.3910   45.5880    7.5510 C.3   600  NAD600      0.1813
      6  C4B      -22.6430   46.3630    7.2930 C.3   600  NAD600      0.1821
      7  O4B      -22.5070   47.5790    8.0950 O.3   600  NAD600     -0.3135
      8  C3B      -22.9560   46.8180    5.8600 C.3   600  NAD600      0.2184
      9  O3B      -24.1430   46.2320    5.3500 O.3   600  NAD600     -0.2174
     10  C2B      -22.9960   48.3390    5.9860 C.3   600  NAD600      0.2570
     11  O2B      -23.9220   48.9990    5.1460 O.3   600  NAD600     -0.2130
     12  C1B      -23.2530   48.5560    7.5320 C.3   600  NAD600      0.3186
     13  N9A      -22.7140   49.8330    8.1030 N.pl3 600  NAD600     -0.1439
     14  C8A      -21.5550   50.4420    7.7030 C.3   600  NAD600      0.3377
     15  N7A      -21.3380   51.5680    8.3950 N.2   600  NAD600     -0.2095
     16  C5A      -22.3880   51.6930    9.2800 C.2   600  NAD600      0.2526
     17  C6A      -22.7430   52.6290   10.2560 C.2   600  NAD600      0.4393
     18  N6A      -21.9640   53.7520   10.5040 N.pl3 600  NAD600      0.2180
     19  N1A      -23.8790   52.4730   11.0020 N.2   600  NAD600      0.0021
     20  C2A      -24.7160   51.3230   10.7680 C.3   600  NAD600      0.5254
     21  N3A      -24.4530   50.3590    9.8260 N.2   600  NAD600     -0.0055
     22  C4A      -23.2810   50.5720    9.1000 C.2   600  NAD600      0.3518
     23  O3       -19.3860   43.4160    6.4070 O.3   600  NAD600     -0.2703
     24  PN       -19.7140   42.3330    7.6500 P.3   600  NAD600      0.2189
     25  O1N      -19.0330   41.0180    7.2950 O.2   600  NAD600     -0.5170
     26  O2N      -21.1990   42.3120    7.7980 O.3   600  NAD600     -0.4371
     27  O5D      -19.0340   42.9390    8.9490 O.3   600  NAD600     -0.3112
     28  C5D      -18.2130   44.1440    8.9080 C.3   600  NAD600      0.1813
     29  C4D      -17.4020   44.1940   10.1340 C.3   600  NAD600      0.1799
     30  O4D      -17.2890   42.8200   10.6790 O.3   600  NAD600     -0.3327
     31  C3D      -15.9630   44.6950    9.9450 C.3   600  NAD600      0.2158
     32  O3D      -15.6800   45.6760   10.9760 O.3   600  NAD600     -0.2175
     33  C2D      -15.0860   43.4860   10.1020 C.3   600  NAD600      0.2309
     34  O2D      -13.8250   43.6950   10.7990 O.3   600  NAD600     -0.2158
     35  C1D      -15.9360   42.4100   10.8320 C.3   600  NAD600      0.2263
     36  N1N      -15.7020   41.0380   10.2580 N.pl3 600  NAD600     -0.2787
     37  C2N      -14.8950   40.1130   10.8730 C.3   600  NAD600      0.1244
     38  C3N      -14.7130   38.7870   10.2460 C.2   600  NAD600      0.0544
     39  C7N      -13.8850   37.7700   10.8560 C.2   600  NAD600      0.2818
     40  O7N      -13.7820   36.6040   10.2360 O.2   600  NAD600     -0.2670
     41  N7N      -13.2370   37.9620   12.0130 N.am  600  NAD600     -0.0839
     42  C4N      -15.4200   38.4670    8.9220 C.2   600  NAD600      0.0033
     43  C5N      -16.2420   39.4870    8.3490 C.2   600  NAD600      0.0157
     44  C6N      -16.4160   40.7770    8.9720 C.2   600  NAD600      0.0633
@<TRIPOS>BOND
     1     2     1    2
     2     3     1    1
     3    11    10    1
     4     9     8    1
     5     1     4    1
     6     1    23    1
     7     8    10    1
     8     8     6    1
     9    10    12    1
    10     4     5    1
    11    23    24    1
    12     6     5    1
    13     6     7    1
    14    25    24    2
    15    12     7    1
    16    12    13    1
    17    24    26    1
    18    24    27    1
    19    14    13    1
    20    14    15    1
    21    13    22    1
    22    43    42    1
    23    43    44    2
    24    15    16    2
    25    28    27    1
    26    28    29    1
    27    42    38    2
    28    44    36    1
    29    22    16    1
    30    22    21    2
    31    16    17    1
    32    21    20    1
    33    31    33    1
    34    31    29    1
    35    31    32    1
    36    33    34    1
    37    33    35    1
    38    29    30    1
    39    40    39    2
    40    38    39    1
    41    38    37    1
    42    17    18    1
    43    17    19    2
    44    36    35    1
    45    36    37    1
    46    30    35    1
    47    20    19    1
    48    39    41   am
