@<TRIPOS>MOLECULE
1jkh_EFZ_A_1.pdb
 21 23 0 0 0
SMALL
GASTEIGER

@<TRIPOS>ATOM
      1 CL         -4.6650  -32.8110   24.1290 Cl    999  EFZ999     -0.0826
      2  F1         0.7540  -37.4060   23.9780 F     999  EFZ999     -0.1656
      3  F2        -1.2240  -36.9050   24.5760 F     999  EFZ999     -0.1656
      4  F3        -0.8430  -37.4960   22.5660 F     999  EFZ999     -0.1656
      5  O1         1.5560  -35.7230   20.0590 O.2   999  EFZ999     -0.1694
      6  O2         0.9480  -35.2860   22.1560 O.3   999  EFZ999     -0.3792
      7  N         -0.6250  -35.1620   20.4090 N.2   999  EFZ999     -0.3083
      8  C1        -1.6090  -34.5740   21.2770 C.2   999  EFZ999      0.1332
      9  C2        -2.8080  -34.0130   20.7730 C.2   999  EFZ999      0.0300
     10  C3        -3.7390  -33.4660   21.6780 C.2   999  EFZ999      0.0134
     11  C4        -3.4980  -33.4840   23.0470 C.2   999  EFZ999      0.0540
     12  C5        -2.3320  -34.0240   23.5560 C.2   999  EFZ999     -0.0031
     13  C6        -1.4060  -34.6050   22.6750 C.3   999  EFZ999      0.1341
     14  C7        -0.0960  -35.2860   23.1970 C.3   999  EFZ999      0.2966
     15  C8         0.4550  -34.6070   24.3910 C.1   999  EFZ999     -0.0429
     16  C9         0.8900  -34.0500   25.3200 C.1   999  EFZ999     -0.0885
     17  C10        1.5190  -33.2180   26.6670 C.3   999  EFZ999      0.0643
     18  C11        2.2540  -32.3400   26.2030 C.3   999  EFZ999      0.0140
     19  C12        1.0630  -32.0720   26.5920 C.3   999  EFZ999      0.0140
     20  C13       -0.3570  -36.7960   23.5830 C.3   999  EFZ999      0.4437
     21  C14        0.6810  -35.4120   20.8040 C.1   999  EFZ999      0.3736
@<TRIPOS>BOND
     1     5    21    2
     2     7    21    2
     3     7     8    2
     4     9     8    1
     5     9    10    2
     6    21     6    1
     7     8    13    1
     8    10    11    1
     9     6    14    1
    10     4    20    1
    11    13    14    1
    12    13    12    1
    13    11    12    2
    14    11     1    1
    15    14    20    1
    16    14    15    1
    17    20     2    1
    18    20     3    1
    19    15    16    3
    20    16    17    1
    21    18    19    1
    22    18    17    1
    23    19    17    1
