@<TRIPOS>MOLECULE
1jki_DG6_A_1.pdb
 15 14 0 0 0
SMALL
GASTEIGER

@<TRIPOS>ATOM
      1  C1        -7.0630   39.7720    9.3170 C.3   630  DG6630      0.1848
      2  O1        -7.2410   38.5740    8.5670 O.3   630  DG6630     -0.2203
      3  C2        -8.4540   40.6370    9.3880 C.3   630  DG6630      0.0711
      4  C3        -9.6970   39.7280    9.9610 C.3   630  DG6630      0.1874
      5  O3       -10.4850   40.4200   10.9350 O.3   630  DG6630     -0.2202
      6  C4       -10.6480   39.2470    8.7470 C.3   630  DG6630      0.2148
      7  O4        -9.9980   38.0330    8.1860 O.3   630  DG6630     -0.2176
      8  C5       -10.7690   40.4330    7.6400 C.3   630  DG6630      0.2146
      9  O5        -9.7890   40.4480    6.5660 O.3   630  DG6630     -0.2176
     10  C6       -11.8380   41.6770    7.7810 C.3   630  DG6630      0.1892
     11  O6       -13.3390   41.4860    7.7700 O.3   630  DG6630     -0.2674
     12  P        -14.2720   42.9190    7.1580 P.3   630  DG6630      0.5327
     13  O1P      -14.4170   43.8700    8.1490 O.3   630  DG6630     -0.1145
     14  O2P      -13.6330   43.5800    6.0700 O.2   630  DG6630     -0.2224
     15  O3P      -15.5180   42.4500    6.7730 O.3   630  DG6630     -0.1145
@<TRIPOS>BOND
     1    14    12    2
     2     9     8    1
     3    15    12    1
     4    12    11    1
     5    12    13    1
     6     8    10    1
     7     8     6    1
     8    11    10    1
     9     7     6    1
    10     2     1    1
    11     6     4    1
    12     1     3    1
    13     3     4    1
    14     4     5    1
