@<TRIPOS>MOLECULE
1jki_NAI_A_1.pdb
 44 48 0 0 0
SMALL
GASTEIGER

@<TRIPOS>ATOM
      1  PA       -20.5390   44.5270    5.6530 P.3   650  NAI650      0.2189
      2  O1A      -19.9300   45.6430    5.3370 O.3   650  NAI650     -0.4371
      3  O2A      -21.0580   43.3580    5.0800 O.2   650  NAI650     -0.5170
      4  O5B      -21.7310   44.9770    6.7330 O.3   650  NAI650     -0.3112
      5  C5B      -21.6650   46.2440    7.5190 C.3   650  NAI650      0.1813
      6  C4B      -22.9680   46.8930    7.5010 C.3   650  NAI650      0.1821
      7  O4B      -22.7130   48.1330    8.1980 O.3   650  NAI650     -0.3135
      8  C3B      -23.4360   47.4730    6.0160 C.3   650  NAI650      0.2184
      9  O3B      -24.6360   47.0170    5.7690 O.3   650  NAI650     -0.2174
     10  C2B      -23.3530   48.9520    6.1090 C.3   650  NAI650      0.2570
     11  O2B      -24.2690   49.4610    5.4680 O.3   650  NAI650     -0.2130
     12  C1B      -23.4490   49.1240    7.7450 C.3   650  NAI650      0.3186
     13  N9A      -22.9110   50.2280    8.2160 N.pl3 650  NAI650     -0.1439
     14  C8A      -21.8190   50.8290    7.9750 C.3   650  NAI650      0.3377
     15  N7A      -21.7080   52.1190    8.5800 N.2   650  NAI650     -0.2095
     16  C5A      -22.8080   52.0510    9.4190 C.2   650  NAI650      0.2526
     17  C6A      -23.4110   52.9740   10.4000 C.2   650  NAI650      0.4393
     18  N6A      -22.9340   54.1630   10.8020 N.pl3 650  NAI650      0.2180
     19  N1A      -24.5580   52.6020   10.8860 N.2   650  NAI650      0.0021
     20  C2A      -25.1950   51.4760   10.5510 C.3   650  NAI650      0.5254
     21  N3A      -24.8140   50.5490    9.6880 N.2   650  NAI650     -0.0055
     22  C4A      -23.5570   50.9280    9.1120 C.2   650  NAI650      0.3518
     23  O3       -19.3930   43.8250    6.6550 O.3   650  NAI650     -0.2703
     24  PN       -19.5250   42.5580    7.5160 P.3   650  NAI650      0.2189
     25  O1N      -18.8420   41.5680    6.8460 O.2   650  NAI650     -0.5170
     26  O2N      -20.8780   42.0200    8.1810 O.3   650  NAI650     -0.4371
     27  O5D      -18.6510   42.9850    8.8590 O.3   650  NAI650     -0.3112
     28  C5D      -18.6270   44.2340    9.3500 C.3   650  NAI650      0.1813
     29  C4D      -17.5820   44.2950   10.5570 C.3   650  NAI650      0.1799
     30  O4D      -17.4580   43.0170   11.3180 O.3   650  NAI650     -0.3327
     31  C3D      -16.2880   44.6160   10.0510 C.3   650  NAI650      0.2158
     32  O3D      -16.0300   45.8800   10.4320 O.3   650  NAI650     -0.2175
     33  C2D      -15.3230   43.4580   10.6690 C.3   650  NAI650      0.2309
     34  O2D      -14.8520   43.8840   12.0290 O.3   650  NAI650     -0.2158
     35  C1D      -16.1790   42.4350   11.0620 C.3   650  NAI650      0.2263
     36  N1N      -15.9960   40.9620   10.4800 N.pl3 650  NAI650     -0.2787
     37  C2N      -16.6150   40.6230    9.2770 C.3   650  NAI650      0.1244
     38  C3N      -16.5920   39.3750    8.8190 C.2   650  NAI650      0.0544
     39  C7N      -17.5490   39.0030    7.5290 C.2   650  NAI650      0.2818
     40  O7N      -17.7600   37.9250    7.1360 O.2   650  NAI650     -0.2670
     41  N7N      -18.0910   39.8340    6.8110 N.am  650  NAI650     -0.0839
     42  C4N      -15.6450   38.4730    9.3990 C.2   650  NAI650      0.0033
     43  C5N      -14.7120   38.8800   10.4150 C.2   650  NAI650      0.0157
     44  C6N      -14.8290   40.1240   10.9160 C.2   650  NAI650      0.0633
@<TRIPOS>BOND
     1     3     1    2
     2     2     1    1
     3    11    10    1
     4     1    23    1
     5     1     4    1
     6     9     8    1
     7     8    10    1
     8     8     6    1
     9    10    12    1
    10    23    24    1
    11     4     5    1
    12    41    39   am
    13    25    24    2
    14    40    39    2
    15     6     5    1
    16     6     7    1
    17    24    26    1
    18    24    27    1
    19    39    38    1
    20    12     7    1
    21    12    13    1
    22    14    13    1
    23    14    15    1
    24    13    22    1
    25    15    16    2
    26    38    37    1
    27    38    42    2
    28    27    28    1
    29    22    16    1
    30    22    21    2
    31    37    36    1
    32    28    29    1
    33    42    43    1
    34    16    17    1
    35    21    20    1
    36    31    32    1
    37    31    29    1
    38    31    33    1
    39    17    18    1
    40    17    19    2
    41    43    44    2
    42    36    44    1
    43    36    35    1
    44    20    19    1
    45    29    30    1
    46    33    35    1
    47    33    34    1
    48    35    30    1
