@<TRIPOS>MOLECULE
1jkj_COA_A_1.pdb
 48 50 0 0 0
SMALL
GASTEIGER

@<TRIPOS>ATOM
      1  N1A       30.3090   61.0990   47.3080 N.2   1300  COA1300     0.0021
      2  C2A       29.5620   62.1810   47.5960 C.3   1300  COA1300     0.5254
      3  N3A       28.3720   62.2500   48.2190 N.2   1300  COA1300    -0.0055
      4  C4A       27.9390   61.0280   48.5640 C.2   1300  COA1300     0.3518
      5  C5A       28.5820   59.8190   48.3320 C.2   1300  COA1300     0.2526
      6  C6A       29.8440   59.8720   47.6710 C.2   1300  COA1300     0.4393
      7  N6A       30.6020   58.7940   47.3990 N.pl3 1300  COA1300     0.2180
      8  N7A       27.8240   58.7650   48.8280 N.2   1300  COA1300    -0.2095
      9  C8A       26.7680   59.3420   49.3450 C.3   1300  COA1300     0.3377
     10  N9A       26.7670   60.7130   49.2110 N.pl3 1300  COA1300    -0.1439
     11  C1B       25.7400   61.6560   49.6320 C.3   1300  COA1300     0.3185
     12  C2B       24.3310   61.0920   49.7590 C.3   1300  COA1300     0.2543
     13  O2B       23.7610   61.0130   48.4950 O.3   1300  COA1300    -0.2131
     14  C3B       23.6720   62.1710   50.6120 C.3   1300  COA1300     0.1928
     15  O3B       23.2790   63.2770   49.8070 O.3   1300  COA1300    -0.2673
     16  P3B       21.7780   63.3690   49.2180 P.3   1300  COA1300     0.5327
     17  O7A       21.7980   64.7030   48.5010 O.3   1300  COA1300    -0.1145
     18  O8A       21.5170   62.1800   48.3010 O.2   1300  COA1300    -0.2224
     19  O9A       20.9320   63.3830   50.4880 O.3   1300  COA1300    -0.1145
     20  C4B       24.8180   62.6110   51.5090 C.3   1300  COA1300     0.1795
     21  O4B       26.0180   62.0430   50.9370 O.3   1300  COA1300    -0.3136
     22  C5B       24.6460   62.1410   52.9130 C.3   1300  COA1300     0.1812
     23  O5B       23.6560   62.9430   53.5130 O.3   1300  COA1300    -0.3112
     24  P1A       22.5800   62.3760   54.5240 P.3   1300  COA1300     0.2189
     25  O1A       21.6720   63.5130   54.8060 O.3   1300  COA1300    -0.4371
     26  O2A       22.0370   61.1550   53.9050 O.2   1300  COA1300    -0.5170
     27  O3A       23.4440   62.0390   55.8330 O.3   1300  COA1300    -0.2703
     28  P2A       23.8210   63.1560   56.9200 P.3   1300  COA1300     0.2188
     29  O4A       24.2340   64.4450   56.2300 O.2   1300  COA1300    -0.5170
     30  O5A       22.5170   63.2050   57.6870 O.3   1300  COA1300    -0.4371
     31  O6A       24.9520   62.4820   57.6850 O.3   1300  COA1300    -0.3138
     32  CBP       27.3350   62.1660   58.0700 C.3   1300  COA1300     0.0645
     33  CCP       26.2460   62.1870   57.0200 C.3   1300  COA1300     0.1519
     34  CDP       27.2790   63.4930   58.7510 C.3   1300  COA1300     0.0056
     35  CEP       28.6860   61.8640   57.3730 C.3   1300  COA1300     0.0056
     36  CAP       26.9690   61.2210   59.2480 C.3   1300  COA1300     0.2312
     37  OAP       26.7750   59.9310   58.7080 O.3   1300  COA1300    -0.2131
     38  C9P       28.0210   61.2990   60.3910 C.2   1300  COA1300     0.2719
     39  O9P       29.1050   60.7460   60.2050 O.2   1300  COA1300    -0.2706
     40  N8P       27.7330   61.9540   61.5530 N.am  1300  COA1300    -0.2028
     41  C7P       28.6690   62.1070   62.6590 C.3   1300  COA1300     0.1248
     42  C6P       29.6020   63.2890   62.4090 C.3   1300  COA1300     0.1102
     43  C5P       30.4740   63.5380   63.6800 C.2   1300  COA1300     0.2432
     44  O5P       29.8540   63.3120   64.7490 O.2   1300  COA1300    -0.2733
     45  N4P       31.7790   63.9280   63.6470 N.am  1300  COA1300    -0.2044
     46  C3P       32.5620   64.1490   64.8530 C.3   1300  COA1300     0.1276
     47  C2P       33.0520   65.5730   64.7420 C.3   1300  COA1300     0.0920
     48  S1P       33.5340   65.9750   66.3850 S.3   1300  COA1300    -0.0802
@<TRIPOS>BOND
     1     1     2    1
     2     1     6    2
     3     7     6    1
     4     2     3    1
     5     6     5    1
     6     3     4    2
     7    18    16    2
     8     5     4    1
     9     5     8    2
    10    13    12    1
    11    17    16    1
    12     4    10    1
    13     8     9    1
    14    10     9    1
    15    10    11    1
    16    16    15    1
    17    16    19    1
    18    11    12    1
    19    11    21    1
    20    12    14    1
    21    15    14    1
    22    14    20    1
    23    21    20    1
    24    20    22    1
    25    22    23    1
    26    23    24    1
    27    26    24    2
    28    24    25    1
    29    24    27    1
    30    27    28    1
    31    29    28    2
    32    28    31    1
    33    28    30    1
    34    33    31    1
    35    33    32    1
    36    35    32    1
    37    32    34    1
    38    32    36    1
    39    37    36    1
    40    36    38    1
    41    39    38    2
    42    38    40   am
    43    40    41    1
    44    42    41    1
    45    42    43    1
    46    45    43   am
    47    45    46    1
    48    43    44    2
    49    47    46    1
    50    47    48    1
