@<TRIPOS>MOLECULE
1jkk_ANP_A_1.pdb
 31 33 0 0 0
SMALL
GASTEIGER

@<TRIPOS>ATOM
      1  PG        29.5440   35.6950   10.4850 P.3   300  ANP300      0.4884
      2  O1G       30.7830   35.2380    9.7530 O.3   300  ANP300     -0.1240
      3  O2G       28.7990   36.7700    9.7340 O.2   300  ANP300     -0.2331
      4  O3G       29.7390   35.9920   11.9470 O.3   300  ANP300     -0.1240
      5  PB        28.6990   32.8840   11.1740 P.3   300  ANP300      0.4669
      6  O1B       29.9140   32.2510   10.5670 O.2   300  ANP300     -0.2351
      7  O2B       28.6000   33.0150   12.6430 O.3   300  ANP300     -0.1253
      8  N3B       28.5770   34.3860   10.5180 N.3   300  ANP300     -0.0163
      9  PA        26.9800   30.6880   10.9420 P.3   300  ANP300      0.2220
     10  O1A       27.0120   30.0340    9.6310 O.2   300  ANP300     -0.5170
     11  O2A       27.7300   30.1150   12.0430 O.3   300  ANP300     -0.4370
     12  O3A       27.4790   32.0980   10.6700 O.3   300  ANP300     -0.2360
     13  O5'       25.4450   30.7310   11.4850 O.3   300  ANP300     -0.3111
     14  C5'       25.0910   31.4800   12.6780 C.3   300  ANP300      0.1813
     15  C4'       24.1020   30.6940   13.4980 C.3   300  ANP300      0.1821
     16  O4'       22.9590   30.3950   12.6510 O.3   300  ANP300     -0.3135
     17  C3'       24.5990   29.3300   13.9640 C.3   300  ANP300      0.2184
     18  O3'       25.5940   29.2880   15.0040 O.3   300  ANP300     -0.2174
     19  C2'       23.3090   28.5360   14.1090 C.3   300  ANP300      0.2570
     20  O2'       22.6670   28.8320   15.3280 O.3   300  ANP300     -0.2130
     21  C1'       22.4720   29.1010   12.9540 C.3   300  ANP300      0.3186
     22  N9        22.5620   28.2940   11.7430 N.pl3 300  ANP300     -0.1439
     23  C8        23.5420   28.3110   10.7820 C.3   300  ANP300      0.3377
     24  N7        23.3490   27.4480    9.8170 N.2   300  ANP300     -0.2095
     25  C5        22.1610   26.8230   10.1620 C.2   300  ANP300      0.2526
     26  C6        21.4090   25.8030    9.5420 C.2   300  ANP300      0.4393
     27  N6        21.7690   25.2020    8.4060 N.pl3 300  ANP300      0.2180
     28  N1        20.2610   25.4160   10.1410 N.2   300  ANP300      0.0021
     29  C2        19.9060   26.0140   11.2860 C.3   300  ANP300      0.5254
     30  N3        20.5290   26.9740   11.9670 N.2   300  ANP300     -0.0055
     31  C4        21.6620   27.3390   11.3430 C.2   300  ANP300      0.3518
@<TRIPOS>BOND
     1    27    26    1
     2    26    28    2
     3    26    25    1
     4    10     9    2
     5     3     1    2
     6     2     1    1
     7    24    25    2
     8    24    23    1
     9    28    29    1
    10    25    31    1
    11     1     8    1
    12     1     4    1
    13     8     5    1
    14     6     5    2
    15    12     9    1
    16    12     5    1
    17    23    22    1
    18     9    13    1
    19     9    11    1
    20     5     7    1
    21    29    30    1
    22    31    22    1
    23    31    30    2
    24    13    14    1
    25    22    21    1
    26    16    21    1
    27    16    15    1
    28    14    15    1
    29    21    19    1
    30    15    17    1
    31    17    19    1
    32    17    18    1
    33    19    20    1
