@<TRIPOS>MOLECULE
1jkl_ANP_A_1.pdb
 31 33 0 0 0
SMALL
GASTEIGER

@<TRIPOS>ATOM
      1  PG        29.8480   35.7410    9.8910 P.3   300  ANP300      0.4884
      2  O1G       31.2970   35.2880    9.8000 O.3   300  ANP300     -0.1240
      3  O2G       29.4450   36.6040    8.7060 O.2   300  ANP300     -0.2331
      4  O3G       29.5090   36.3860   11.2250 O.3   300  ANP300     -0.1240
      5  PB        29.0280   32.9350   10.5320 P.3   300  ANP300      0.4669
      6  O1B       30.0430   32.1460    9.7780 O.2   300  ANP300     -0.2351
      7  O2B       29.2230   33.2200   11.9790 O.3   300  ANP300     -0.1253
      8  N3B       28.9350   34.3880    9.7930 N.3   300  ANP300     -0.0163
      9  PA        27.2560   30.7900   10.8120 P.3   300  ANP300      0.2220
     10  O1A       27.1980   29.9550    9.5840 O.2   300  ANP300     -0.5170
     11  O2A       28.1180   30.3870   11.9520 O.3   300  ANP300     -0.4370
     12  O3A       27.7000   32.1930   10.4010 O.3   300  ANP300     -0.2360
     13  O5'       25.7340   30.8560   11.3900 O.3   300  ANP300     -0.3111
     14  C5'       25.4510   31.4980   12.6490 C.3   300  ANP300      0.1813
     15  C4'       24.4530   30.6810   13.4380 C.3   300  ANP300      0.1821
     16  O4'       23.2930   30.4040   12.6110 O.3   300  ANP300     -0.3135
     17  C3'       24.9320   29.3080   13.8820 C.3   300  ANP300      0.2184
     18  O3'       25.9290   29.2390   14.9190 O.3   300  ANP300     -0.2174
     19  C2'       23.6320   28.5320   14.0530 C.3   300  ANP300      0.2570
     20  O2'       23.0100   28.8010   15.2940 O.3   300  ANP300     -0.2130
     21  C1'       22.7760   29.1210   12.9260 C.3   300  ANP300      0.3186
     22  N9        22.8090   28.3120   11.7080 N.pl3 300  ANP300     -0.1439
     23  C8        23.7560   28.3270   10.7150 C.3   300  ANP300      0.3377
     24  N7        23.5270   27.4700    9.7520 N.2   300  ANP300     -0.2095
     25  C5        22.3450   26.8520   10.1320 C.2   300  ANP300      0.2526
     26  C6        21.5760   25.8390    9.5370 C.2   300  ANP300      0.4393
     27  N6        21.9020   25.2400    8.3880 N.pl3 300  ANP300      0.2180
     28  N1        20.4490   25.4490   10.1730 N.2   300  ANP300      0.0021
     29  C2        20.1310   26.0400   11.3330 C.3   300  ANP300      0.5254
     30  N3        20.7780   26.9980   11.9950 N.2   300  ANP300     -0.0055
     31  C4        21.8890   27.3640   11.3330 C.2   300  ANP300      0.3518
@<TRIPOS>BOND
     1    27    26    1
     2     3     1    2
     3    26    25    1
     4    26    28    2
     5    10     9    2
     6    24    25    2
     7    24    23    1
     8     6     5    2
     9     8     1    1
    10     8     5    1
    11     2     1    1
    12     1     4    1
    13    25    31    1
    14    28    29    1
    15    12     5    1
    16    12     9    1
    17     5     7    1
    18    23    22    1
    19     9    13    1
    20     9    11    1
    21    29    30    1
    22    31    22    1
    23    31    30    2
    24    13    14    1
    25    22    21    1
    26    16    21    1
    27    16    15    1
    28    14    15    1
    29    21    19    1
    30    15    17    1
    31    17    19    1
    32    17    18    1
    33    19    20    1
