@<TRIPOS>MOLECULE
1jkn_ATP_A_1.pdb
 43 45 0 0 0
SMALL
GASTEIGER

@<TRIPOS>ATOM
      1  PG       250.6930    5.6030   -3.2040 P.3   166  ATP166      0.5373
      2  O1G      250.4270    4.3480   -2.4550 O.3   166  ATP166     -0.1143
      3  O2G      249.3200    6.0040   -3.6000 O.3   166  ATP166     -0.1143
      4  O3G      251.5610    5.5810   -4.4080 O.2   166  ATP166     -0.2221
      5  PB       252.3820    7.5930   -2.4470 P.3   166  ATP166      0.2277
      6  O1B      251.8670    8.6480   -3.3580 O.2   166  ATP166     -0.5168
      7  O2B      253.6160    6.8460   -2.8000 O.3   166  ATP166     -0.4368
      8  O3B      251.2730    6.6190   -2.2890 O.3   166  ATP166     -0.2258
      9  PA       253.9060    8.7420   -0.4810 P.3   166  ATP166      0.2182
     10  O1A      255.2040    8.4530   -1.1400 O.2   166  ATP166     -0.5170
     11  O2A      253.7330    8.3750    0.9480 O.3   166  ATP166     -0.4371
     12  O3A      252.6680    8.3570   -1.2060 O.3   166  ATP166     -0.2700
     13  O5'      253.7480   10.3190   -0.6420 O.3   166  ATP166     -0.3246
     14  C5'      253.3290   10.8890   -1.8780 C.3   166  ATP166      0.0836
     15  C4'      254.0090   12.2200   -2.0940 C.3   166  ATP166      0.1131
     16  O4'      254.6240   12.6470   -0.8490 O.3   166  ATP166     -0.3474
     17  C3'      255.1560   12.2140   -3.0920 C.3   166  ATP166      0.1133
     18  O3'      254.6940   12.3450   -4.4300 O.3   166  ATP166     -0.3864
     19  C2'      255.9810   13.4070   -2.6390 C.3   166  ATP166      0.1266
     20  O2'      255.3870   14.6260   -3.0420 O.3   166  ATP166     -0.3849
     21  C1'      255.8610   13.2800   -1.1220 C.3   166  ATP166      0.1617
     22  N9       256.9290   12.4930   -0.5110 N.pl3 166  ATP166     -0.2234
     23  C8       256.9570   11.1390   -0.2790 C.2   166  ATP166      0.1451
     24  N7       258.0650   10.7240    0.2860 N.2   166  ATP166     -0.3871
     25  C5       258.8160   11.8820    0.4370 C.2   166  ATP166      0.2211
     26  C6       260.0930   12.1190    0.9740 C.2   166  ATP166      0.2227
     27  N6       260.8740   11.1610    1.4790 N.pl3 166  ATP166     -0.3300
     28  N1       260.5480   13.3910    0.9740 N.2   166  ATP166     -0.3296
     29  C2       259.7640   14.3530    0.4670 C.1   166  ATP166      0.0930
     30  N3       258.5490   14.2530   -0.0640 N.2   166  ATP166     -0.3287
     31  C4       258.1280   12.9770   -0.0490 C.2   166  ATP166      0.2354
     32 H5'1      252.2480   11.0360   -1.8700 H     166  ATP166      0.0591
     33 H5'2      253.5890   10.2210   -2.6990 H     166  ATP166      0.0591
     34  H4'      253.2650   12.9180   -2.4750 H     166  ATP166      0.0647
     35  H3'      255.7170   11.2840   -3.0510 H     166  ATP166      0.0647
     36 HO3'      253.8340   11.9280   -4.4760 H     166  ATP166      0.2100
     37  H2'      257.0150   13.3090   -2.9720 H     166  ATP166      0.0663
     38 HO2'      254.4760   14.4370   -3.2680 H     166  ATP166      0.2101
     39  H1'      255.8370   14.2510   -0.6330 H     166  ATP166      0.0841
     40  H8       256.1430   10.4790   -0.5370 H     166  ATP166      0.1149
     41 HN61      260.5560   10.2030    1.4890 H     166  ATP166      0.1448
     42 HN62      261.7840   11.3950    1.8510 H     166  ATP166      0.1448
     43  H2       260.1800   15.3580    0.4950 H     166  ATP166      0.1751
@<TRIPOS>BOND
     1    36    18    1
     2    18    17    1
     3     4     1    2
     4     3     1    1
     5     6     5    2
     6    38    20    1
     7     1     2    1
     8     1     8    1
     9    17    35    1
    10    17    19    1
    11    17    15    1
    12    20    19    1
    13    37    19    1
    14     7     5    1
    15    33    14    1
    16    19    21    1
    17    34    15    1
    18     5     8    1
    19     5    12    1
    20    15    14    1
    21    15    16    1
    22    14    32    1
    23    14    13    1
    24    12     9    1
    25    10     9    2
    26    21    16    1
    27    21    39    1
    28    21    22    1
    29    13     9    1
    30    40    23    1
    31    22    23    1
    32    22    31    1
    33     9    11    1
    34    23    24    2
    35    30    31    2
    36    30    29    2
    37    31    25    1
    38    24    25    2
    39    25    26    1
    40    29    43    1
    41    29    28    2
    42    28    26    2
    43    26    27    1
    44    27    41    1
    45    27    42    1
