@<TRIPOS>MOLECULE
1jl6_HEM_A_1.pdb
 43 50 0 0 0
SMALL
GASTEIGER

@<TRIPOS>ATOM
      1 FE        -24.2960   -6.6170   18.7030 Fe    148  HEM148      0.0000
      2  CHA      -26.0700   -8.1710   16.2780 C.2   148  HEM148      0.0000
      3  CHB      -25.3380   -3.6010   17.5300 C.2   148  HEM148      0.0000
      4  CHC      -22.8020   -5.0640   21.3270 C.2   148  HEM148      0.0000
      5  CHD      -23.3040   -9.6160   19.9020 C.2   148  HEM148      0.0000
      6  NA       -25.4570   -6.0200   17.2390 N.ar  148  HEM148      0.0000
      7  C1A      -26.1470   -6.7960   16.3370 C.ar  148  HEM148      0.0000
      8  C2A      -26.9920   -5.9830   15.4830 C.ar  148  HEM148      0.0000
      9  C3A      -26.7600   -4.6990   15.8260 C.ar  148  HEM148      0.0000
     10  C4A      -25.8000   -4.7270   16.8960 C.ar  148  HEM148      0.0000
     11  CMA      -27.3940   -3.4560   15.2180 C.3   148  HEM148      0.0000
     12  CAA      -28.0330   -6.4780   14.4950 C.3   148  HEM148      0.0000
     13  CBA      -27.4310   -6.8920   13.1850 C.3   148  HEM148      0.0000
     14  CGA      -28.4340   -7.3750   12.1620 C.2   148  HEM148      0.0000
     15  O1A      -28.2840   -8.5080   11.7090 O.co2 148  HEM148      0.0000
     16  O2A      -29.3480   -6.6230   11.8100 O.co2 148  HEM148      0.0000
     17  NB       -24.0360   -4.7330   19.2570 N.2   148  HEM148      0.0000
     18  C1B      -24.5250   -3.5930   18.6390 C.2   148  HEM148      0.0000
     19  C2B      -24.1950   -2.3980   19.3720 C.2   148  HEM148      0.0000
     20  C3B      -23.4550   -2.7980   20.4520 C.2   148  HEM148      0.0000
     21  C4B      -23.3640   -4.2510   20.3600 C.2   148  HEM148      0.0000
     22  CMB      -24.6380   -0.9950   18.9730 C.3   148  HEM148      0.0000
     23  CAB      -22.8910   -2.0180   21.4590 C.3   148  HEM148      0.0000
     24  CBB      -23.6370   -1.1000   22.3040 C.3   148  HEM148      0.0000
     25  NC       -23.3130   -7.2190   20.3050 N.ar  148  HEM148      0.0000
     26  C1C      -22.7940   -6.4480   21.3230 C.ar  148  HEM148      0.0000
     27  C2C      -22.1370   -7.2690   22.3260 C.ar  148  HEM148      0.0000
     28  C3C      -22.1760   -8.5450   21.8900 C.ar  148  HEM148      0.0000
     29  C4C      -22.9340   -8.5090   20.6350 C.ar  148  HEM148      0.0000
     30  CMC      -21.5450   -6.8130   23.6580 C.3   148  HEM148      0.0000
     31  CAC      -21.4740   -9.5930   22.4940 C.3   148  HEM148      0.0000
     32  CBC      -21.9420  -10.9510   22.6820 C.3   148  HEM148      0.0000
     33  ND       -24.6120   -8.4820   18.1840 N.2   148  HEM148      0.0000
     34  C1D      -24.1080   -9.6150   18.7810 C.2   148  HEM148      0.0000
     35  C2D      -24.5460  -10.8110   18.1120 C.2   148  HEM148      0.0000
     36  C3D      -25.2990  -10.3980   17.0720 C.2   148  HEM148      0.0000
     37  C4D      -25.3390   -8.9610   17.1310 C.2   148  HEM148      0.0000
     38  CMD      -24.2320  -12.2450   18.5220 C.3   148  HEM148      0.0000
     39  CAD      -25.9840  -11.2740   16.0400 C.3   148  HEM148      0.0000
     40  CBD      -25.3040  -11.2820   14.6690 C.3   148  HEM148      0.0000
     41  CGD      -23.8670  -11.7840   14.6830 C.2   148  HEM148      0.0000
     42  O1D      -22.9990  -11.1160   14.1360 O.co2 148  HEM148      0.0000
     43  O2D      -23.6060  -12.8390   15.2510 O.co2 148  HEM148      0.0000
@<TRIPOS>BOND
     1    15    14   ar
     2    16    14   ar
     3    14    13    1
     4    13    12    1
     5    42    41   ar
     6    12     8    1
     7    40    41    1
     8    40    39    1
     9    41    43   ar
    10    11     9    1
    11     8     9   ar
    12     8     7   ar
    13     9    10   ar
    14    39    36    1
    15     2     7    2
    16     2    37    1
    17     7     6   ar
    18    10     6   ar
    19    10     3    2
    20    36    37    1
    21    36    35    2
    22    37    33    2
    23     6     1    1
    24     3    18    1
    25    35    38    1
    26    35    34    1
    27    33     1    1
    28    33    34    1
    29    18    17    2
    30    18    19    1
    31     1    17    1
    32     1    25    1
    33    34     5    2
    34    22    19    1
    35    17    21    1
    36    19    20    2
    37     5    29    1
    38    25    29   ar
    39    25    26   ar
    40    21    20    1
    41    21     4    2
    42    20    23    1
    43    29    28   ar
    44    26     4    1
    45    26    27   ar
    46    23    24    1
    47    28    27   ar
    48    28    31    1
    49    27    30    1
    50    31    32    1
