@<TRIPOS>MOLECULE
1jl7_HEM_A_1.pdb
 43 50 0 0 0
SMALL
GASTEIGER

@<TRIPOS>ATOM
      1 FE        -24.3560   -6.6260   18.7750 Fe    148  HEM148      0.0000
      2  CHA      -25.9950   -8.2260   16.2830 C.2   148  HEM148      0.0000
      3  CHB      -25.4560   -3.6420   17.5850 C.2   148  HEM148      0.0000
      4  CHC      -22.8520   -5.0320   21.3690 C.2   148  HEM148      0.0000
      5  CHD      -23.3670   -9.6150   20.0440 C.2   148  HEM148      0.0000
      6  NA       -25.4900   -6.0600   17.2720 N.ar  148  HEM148      0.0000
      7  C1A      -26.1360   -6.8550   16.3510 C.ar  148  HEM148      0.0000
      8  C2A      -27.0090   -6.0720   15.4980 C.ar  148  HEM148      0.0000
      9  C3A      -26.8190   -4.7820   15.8400 C.ar  148  HEM148      0.0000
     10  C4A      -25.8740   -4.7810   16.9290 C.ar  148  HEM148      0.0000
     11  CMA      -27.4920   -3.5570   15.2370 C.3   148  HEM148      0.0000
     12  CAA      -28.0470   -6.5990   14.5260 C.3   148  HEM148      0.0000
     13  CBA      -27.4380   -7.1340   13.2560 C.3   148  HEM148      0.0000
     14  CGA      -28.4360   -7.5680   12.1960 C.2   148  HEM148      0.0000
     15  O1A      -28.3770   -8.7270   11.7830 O.co2 148  HEM148      0.0000
     16  O2A      -29.2520   -6.7480   11.7700 O.co2 148  HEM148      0.0000
     17  NB       -24.1240   -4.7400   19.3120 N.2   148  HEM148      0.0000
     18  C1B      -24.6450   -3.6130   18.6980 C.2   148  HEM148      0.0000
     19  C2B      -24.3340   -2.4090   19.4270 C.2   148  HEM148      0.0000
     20  C3B      -23.5810   -2.7910   20.4940 C.2   148  HEM148      0.0000
     21  C4B      -23.4620   -4.2400   20.4090 C.2   148  HEM148      0.0000
     22  CMB      -24.8060   -1.0110   19.0450 C.3   148  HEM148      0.0000
     23  CAB      -22.9840   -1.9930   21.4640 C.3   148  HEM148      0.0000
     24  CBB      -23.6980   -1.1060   22.3630 C.3   148  HEM148      0.0000
     25  NC       -23.3600   -7.2060   20.3910 N.ar  148  HEM148      0.0000
     26  C1C      -22.8110   -6.4130   21.3770 C.ar  148  HEM148      0.0000
     27  C2C      -22.1640   -7.2060   22.4100 C.ar  148  HEM148      0.0000
     28  C3C      -22.2690   -8.4980   22.0460 C.ar  148  HEM148      0.0000
     29  C4C      -23.0200   -8.4940   20.7790 C.ar  148  HEM148      0.0000
     30  CMC      -21.5100   -6.6920   23.6880 C.3   148  HEM148      0.0000
     31  CAC      -21.6580   -9.5470   22.7270 C.3   148  HEM148      0.0000
     32  CBC      -22.2030  -10.8800   22.8880 C.3   148  HEM148      0.0000
     33  ND       -24.5910   -8.5030   18.2590 N.2   148  HEM148      0.0000
     34  C1D      -24.1040   -9.6290   18.8840 C.2   148  HEM148      0.0000
     35  C2D      -24.5030  -10.8290   18.2010 C.2   148  HEM148      0.0000
     36  C3D      -25.2320  -10.4340   17.1340 C.2   148  HEM148      0.0000
     37  C4D      -25.2760   -9.0000   17.1720 C.2   148  HEM148      0.0000
     38  CMD      -24.1650  -12.2560   18.6130 C.3   148  HEM148      0.0000
     39  CAD      -25.9210  -11.3140   16.1000 C.3   148  HEM148      0.0000
     40  CBD      -25.2360  -11.3230   14.7320 C.3   148  HEM148      0.0000
     41  CGD      -23.7820  -11.7740   14.7760 C.2   148  HEM148      0.0000
     42  O1D      -23.5070  -12.8720   15.2460 O.co2 148  HEM148      0.0000
     43  O2D      -22.9170  -11.0150   14.3580 O.co2 148  HEM148      0.0000
@<TRIPOS>BOND
     1    16    14   ar
     2    15    14   ar
     3    14    13    1
     4    13    12    1
     5    43    41   ar
     6    12     8    1
     7    40    41    1
     8    40    39    1
     9    41    42   ar
    10    11     9    1
    11     8     9   ar
    12     8     7   ar
    13     9    10   ar
    14    39    36    1
    15     2     7    2
    16     2    37    1
    17     7     6   ar
    18    10     6   ar
    19    10     3    2
    20    36    37    1
    21    36    35    2
    22    37    33    2
    23     6     1    1
    24     3    18    1
    25    35    38    1
    26    35    34    1
    27    33     1    1
    28    33    34    1
    29    18    17    2
    30    18    19    1
    31     1    17    1
    32     1    25    1
    33    34     5    2
    34    22    19    1
    35    17    21    1
    36    19    20    2
    37     5    29    1
    38    25    29   ar
    39    25    26   ar
    40    21    20    1
    41    21     4    2
    42    20    23    1
    43    29    28   ar
    44     4    26    1
    45    26    27   ar
    46    23    24    1
    47    28    27   ar
    48    28    31    1
    49    27    30    1
    50    31    32    1
