@<TRIPOS>MOLECULE
1jla_TNK_A_1.pdb
 27 29 0 0 0
SMALL
GASTEIGER

@<TRIPOS>ATOM
      1  C1        -1.3780  -34.4600   27.0050 C.ar  999  TNK999     -0.0164
      2  C2        -2.1390  -33.8020   27.9850 C.ar  999  TNK999     -0.0039
      3  C3        -1.5300  -32.8260   28.8160 C.ar  999  TNK999     -0.0003
      4  C4        -0.1520  -32.5130   28.6540 C.ar  999  TNK999     -0.0000
      5  C5         0.6070  -33.1720   27.6660 C.ar  999  TNK999     -0.0003
      6  C6        -0.0120  -34.1430   26.8430 C.ar  999  TNK999     -0.0039
      7  C7        -1.8260  -35.6760   24.6790 C.2   999  TNK999      0.0551
      8  N8        -2.6010  -34.8070   23.8740 N.am  999  TNK999     -0.1806
      9  C9        -2.5220  -34.8430   22.4620 C.1   999  TNK999      0.2842
     10  O9        -3.2020  -34.1350   21.7220 O.2   999  TNK999     -0.1919
     11  N10       -1.6430  -35.7660   21.9260 N.2   999  TNK999     -0.2455
     12  C11       -0.8410  -36.6590   22.6310 C.1   999  TNK999      0.2130
     13  O11       -0.0970  -37.4240   22.0200 O.2   999  TNK999     -0.2088
     14  C12       -0.9480  -36.6120   24.0760 C.2   999  TNK999      0.0834
     15  C13       -2.0230  -35.5800   26.2030 C.3   999  TNK999      0.0689
     16  C14       -0.1340  -37.7070   24.7950 C.3   999  TNK999      0.0355
     17  C15       -0.9790  -38.7840   25.5020 C.3   999  TNK999      0.0055
     18  C16        1.0590  -37.1900   25.5710 C.3   999  TNK999      0.0055
     19  C17       -3.5950  -33.8570   24.4600 C.3   999  TNK999      0.2554
     20  O17       -4.8720  -34.0610   23.8810 O.3   999  TNK999     -0.3287
     21  C18       -5.9150  -33.9310   24.8330 C.3   999  TNK999      0.1707
     22  C19       -7.0520  -34.8480   24.5050 C.ar  999  TNK999      0.0073
     23  C20       -6.9530  -35.7380   23.4180 C.ar  999  TNK999     -0.0019
     24  C21       -7.9700  -36.6810   23.1770 C.ar  999  TNK999     -0.0002
     25  C22       -9.0930  -36.7290   24.0330 C.ar  999  TNK999     -0.0000
     26  C23       -9.1890  -35.8280   25.1210 C.ar  999  TNK999     -0.0002
     27  C24       -8.1640  -34.8880   25.3500 C.ar  999  TNK999     -0.0019
@<TRIPOS>BOND
     1    10     9    2
     2    11     9    2
     3    11    12    2
     4    13    12    2
     5     9     8   am
     6    12    14    1
     7    24    23   ar
     8    24    25   ar
     9    23    22   ar
    10     8    19    1
    11     8     7    1
    12    20    19    1
    13    20    21    1
    14    25    26   ar
    15    14     7    2
    16    14    16    1
    17    22    21    1
    18    22    27   ar
    19     7    15    1
    20    16    17    1
    21    16    18    1
    22    26    27   ar
    23    15     1    1
    24     6     1   ar
    25     6     5   ar
    26     1     2   ar
    27     5     4   ar
    28     2     3   ar
    29     4     3   ar
