@<TRIPOS>MOLECULE
1jlb_NVP_A_1.pdb
 20 23 0 0 0
SMALL
GASTEIGER

@<TRIPOS>ATOM
      1  N1        -0.5960  -35.8590   24.8160 N.pl3 999  NVP999     -0.1562
      2  CA        -0.0270  -37.1260   24.3020 C.3   999  NVP999      0.1667
      3  CB         0.6250  -38.0160   25.3150 C.3   999  NVP999      0.0512
      4  CC        -0.7240  -38.3610   24.7600 C.3   999  NVP999      0.0512
      5  N3         1.7270  -35.0650   25.1540 N.2   999  NVP999     -0.0337
      6  C4         2.6330  -34.2140   25.7860 C.2   999  NVP999      0.2316
      7  C5         2.2140  -33.2400   26.7910 C.2   999  NVP999      0.0313
      8  C6         0.8100  -33.1680   27.1110 C.3   999  NVP999      0.0868
      9  CD         0.2940  -32.1760   28.1530 C.3   999  NVP999      0.0126
     10  C2         0.3800  -34.9820   25.4780 C.2   999  NVP999      0.3559
     11  C7        -0.1210  -34.0460   26.4420 C.2   999  NVP999      0.2076
     12  N8        -1.5460  -33.9410   26.7250 N.2   999  NVP999     -0.3293
     13  C9        -2.6460  -33.9770   25.9360 C.1   999  NVP999      0.2096
     14  OE        -3.8060  -33.8360   26.4110 O.2   999  NVP999     -0.2091
     15  C10       -2.4920  -34.1620   24.4120 C.ar  999  NVP999      0.1506
     16  C15       -1.5540  -35.1440   23.8680 C.ar  999  NVP999      0.2365
     17  C11       -3.3540  -33.4300   23.5230 C.ar  999  NVP999      0.0194
     18  C12       -3.2780  -33.6770   22.1130 C.ar  999  NVP999      0.0217
     19  C13       -2.3070  -34.6880   21.6440 C.ar  999  NVP999      0.1025
     20  N14       -1.4740  -35.3970   22.5080 N.ar  999  NVP999     -0.2068
@<TRIPOS>BOND
     1    19    18   ar
     2    19    20   ar
     3    18    17   ar
     4    20    16   ar
     5    17    15   ar
     6    16    15   ar
     7    16     1    1
     8     2     4    1
     9     2     1    1
    10     2     3    1
    11    15    13    1
    12     4     3    1
    13     1    10    1
    14     5    10    2
    15     5     6    1
    16    10    11    1
    17     6     7    2
    18    13    14    2
    19    13    12    2
    20    11    12    2
    21    11     8    1
    22     7     8    1
    23     8     9    1
