@<TRIPOS>MOLECULE
1jlc_FTC_A_1.pdb
 23 24 0 0 0
SMALL
GASTEIGER

@<TRIPOS>ATOM
      1  C1        -2.0710  -34.3020   21.4110 C.ar  999  FTC999      0.1536
      2  N2        -2.0380  -34.4500   22.7970 N.ar  999  FTC999     -0.2264
      3  C3        -3.0250  -33.9310   23.6270 C.ar  999  FTC999      0.1117
      4  C4        -4.1150  -33.2420   23.0620 C.ar  999  FTC999      0.0769
      5  C5        -4.1690  -33.0880   21.6600 C.ar  999  FTC999      0.0159
      6  C6        -3.1630  -33.6170   20.8220 C.ar  999  FTC999      0.0371
      7 CL7        -5.3290  -32.5700   24.0650 Cl    999  FTC999     -0.0806
      8  N8        -1.0800  -34.7700   20.6010 N.am  999  FTC999     -0.1717
      9  C9        -0.1340  -35.7300   20.7500 C.2   999  FTC999      0.1758
     10  S9         0.8190  -36.1500   19.3650 S.2   999  FTC999     -0.0151
     11  N10        0.0300  -36.3220   21.9610 N.am  999  FTC999     -0.2160
     12  C11        1.3500  -36.5420   22.5920 C.3   999  FTC999      0.1205
     13  C12        1.2660  -36.8760   24.1020 C.3   999  FTC999      0.0716
     14  C13        1.2380  -35.5670   24.8780 C.ar  999  FTC999      0.0911
     15  N14        2.3260  -34.6990   24.7920 N.ar  999  FTC999     -0.2456
     16  C15        2.3850  -33.4760   25.4380 C.ar  999  FTC999      0.1017
     17  C16        1.2870  -33.0620   26.1960 C.ar  999  FTC999      0.0599
     18  C17        0.1610  -33.9180   26.3060 C.ar  999  FTC999      0.1685
     19  C18        0.1230  -35.1650   25.6380 C.ar  999  FTC999      0.1873
     20  O17       -0.9280  -33.5250   27.0630 O.3   999  FTC999     -0.4731
     21  CA        -1.5960  -32.3390   26.6350 C.3   999  FTC999      0.2056
     22  CB        -2.1160  -31.5830   27.8580 C.3   999  FTC999      0.0512
     23  F18       -0.9250  -35.9750   25.7780 F     999  FTC999     -0.1997
@<TRIPOS>BOND
     1    10     9    2
     2     8     9    1
     3     8     1    1
     4     9    11    1
     5     6     1   ar
     6     6     5   ar
     7     1     2   ar
     8     5     4   ar
     9    11    12    1
    10    12    13    1
    11     2     3   ar
    12     4     3   ar
    13     4     7    1
    14    13    14    1
    15    15    14   ar
    16    15    16   ar
    17    14    19   ar
    18    16    17   ar
    19    19    23    1
    20    19    18   ar
    21    17    18   ar
    22    18    20    1
    23    21    20    1
    24    21    22    1
