@<TRIPOS>MOLECULE
1jld_0PP_A_1.pdb
 48 50 0 0 0
SMALL
GASTEIGER

@<TRIPOS>ATOM
      1  C         50.5590   24.7130    8.9000 C.2   100  0PP100      0.2911
      2  O         51.4700   25.4350    9.3670 O.2   100  0PP100     -0.2659
      3  N1        48.1710   24.2520    8.6240 N.2   100  0PP100     -0.4013
      4  C2        49.1780   25.0630    9.0140 C.2   100  0PP100      0.1679
      5  C3        48.7950   26.2640    9.6010 C.3   100  0PP100      0.0899
      6  C4        47.4710   26.5910    9.7860 C.2   100  0PP100     -0.0160
      7  C5        45.1340   25.9660    9.6050 C.ar  100  0PP100      0.0022
      8  C6        44.1780   25.0330    9.2070 C.ar  100  0PP100      0.0002
      9  C7        44.5670   23.8590    8.5830 C.ar  100  0PP100      0.0026
     10  C8        45.9120   23.5790    8.4230 C.ar  100  0PP100      0.0320
     11  C4A       46.4930   25.6790    9.4010 C.ar  100  0PP100      0.0257
     12  C8A       46.8650   24.4980    8.8280 C.ar  100  0PP100      0.1309
     13  N         50.8130   23.5560    8.2440 N.am  100  0PP100     -0.1894
     14  CA        52.0030   22.8000    7.8570 C.3   100  0PP100      0.2031
     15  C1        51.9010   22.5860    6.3820 C.2   100  0PP100      0.2639
     16  O1        51.5660   21.5230    5.8780 O.2   100  0PP100     -0.2714
     17  CB        52.2940   21.5030    8.6990 C.3   100  0PP100      0.1808
     18  OG1       52.2630   21.7830   10.0830 O.3   100  0PP100     -0.2208
     19  CG2       53.6660   20.9320    8.4200 C.3   100  0PP100      0.0379
     20  N2        52.1260   23.6900    5.6800 N.am  100  0PP100     -0.2027
     21  CA1       51.9530   23.7360    4.2490 C.3   100  0PP100      0.1317
     22  C9        53.1780   23.2420    3.4810 C.3   100  0PP100      0.1936
     23  OXT       54.2820   24.0700    3.7580 O.3   100  0PP100     -0.2194
     24  CB1       51.4800   25.1470    3.9090 C.3   100  0PP100      0.0507
     25  CG        50.2000   25.4940    4.6090 C.ar  100  0PP100     -0.0204
     26  CD1       49.0140   24.8240    4.3060 C.ar  100  0PP100     -0.0042
     27  CD2       50.1550   26.4840    5.5930 C.ar  100  0PP100     -0.0042
     28  CE1       47.8180   25.1670    4.9520 C.ar  100  0PP100     -0.0003
     29  CE2       48.9750   26.8020    6.2710 C.ar  100  0PP100     -0.0003
     30  CZ        47.7900   26.1530    5.9400 C.ar  100  0PP100     -0.0000
     31  CM        53.0020   23.2400    1.9740 C.3   100  0PP100      0.1497
     32  N'        53.8160   22.1940    1.3720 N.am  100  0PP100     -0.2026
     33  C'        53.3310   21.0160    1.0390 C.2   100  0PP100      0.2415
     34  O'        52.1730   20.6780    1.2170 O.2   100  0PP100     -0.2733
     35  C2'       54.3530   20.0750    0.4120 C.3   100  0PP100      0.0873
     36  CT1       55.0150   19.0140    1.3740 C.3   100  0PP100      0.0087
     37  CT2       54.1180   17.8190    1.6870 C.3   100  0PP100      0.0005
     38  CT3       56.2290   18.4800    0.6270 C.3   100  0PP100      0.0005
     39  CT4       55.3950   19.6960    2.6770 C.3   100  0PP100      0.0005
     40  C1'       53.7680   19.5300   -0.9070 C.3   100  0PP100      0.0959
     41  CC        53.5070   20.6100   -1.9390 C.2   100  0PP100      0.2418
     42  O2        54.4620   21.3520   -2.5570 O.2   100  0PP100     -0.2733
     43  N3        52.2540   20.8780   -2.3260 N.am  100  0PP100     -0.2072
     44  C31       51.9150   21.8640   -3.3120 C.3   100  0PP100      0.0953
     45  C41       51.3430   21.1730   -4.5400 C.3   100  0PP100      0.0217
     46  C51       52.0920   19.8800   -4.9720 C.3   100  0PP100      0.0018
     47  C21       50.8200   22.7680   -2.7800 C.3   100  0PP100      0.0217
     48  C11       51.1740   23.6170   -1.5270 C.3   100  0PP100      0.0018
@<TRIPOS>BOND
     1    46    45    1
     2    45    44    1
     3    44    47    1
     4    44    43    1
     5    47    48    1
     6    42    41    2
     7    43    41   am
     8    41    40    1
     9    40    35    1
    10    35    33    1
    11    35    36    1
    12    38    36    1
    13    33    34    2
    14    33    32   am
    15    32    31    1
    16    36    37    1
    17    36    39    1
    18    31    22    1
    19    22    23    1
    20    22    21    1
    21    24    21    1
    22    24    25    1
    23    21    20    1
    24    26    25   ar
    25    26    28   ar
    26    25    27   ar
    27    28    30   ar
    28    27    29   ar
    29    20    15   am
    30    16    15    2
    31    30    29   ar
    32    15    14    1
    33    14    13    1
    34    14    17    1
    35    13     1   am
    36    19    17    1
    37    10     9   ar
    38    10    12   ar
    39     9     8   ar
    40     3    12    2
    41     3     4    2
    42    17    18    1
    43    12    11   ar
    44     1     4    1
    45     1     2    2
    46     4     5    1
    47     8     7   ar
    48    11     7   ar
    49    11     6    2
    50     5     6    1
