@<TRIPOS>MOLECULE
1jlf_NVP_A_1.pdb
 20 23 0 0 0
SMALL
GASTEIGER

@<TRIPOS>ATOM
      1  N1        -0.9440  -35.3940   24.4740 N.pl3 999  NVP999     -0.1562
      2  CA        -0.2950  -36.6730   24.0220 C.3   999  NVP999      0.1667
      3  CB        -0.4420  -37.8530   24.9090 C.3   999  NVP999      0.0512
      4  CC        -1.1800  -37.8020   23.6200 C.3   999  NVP999      0.0512
      5  N3         1.2770  -34.5670   25.0320 N.2   999  NVP999     -0.0337
      6  C4         2.0890  -33.7850   25.8050 C.2   999  NVP999      0.2316
      7  C5         1.5790  -32.9070   26.8060 C.2   999  NVP999      0.0313
      8  C6         0.1920  -32.8440   26.9940 C.3   999  NVP999      0.0868
      9  CD        -0.3830  -31.9470   28.0630 C.3   999  NVP999      0.0126
     10  C2        -0.0700  -34.5070   25.2230 C.2   999  NVP999      0.3559
     11  C7        -0.6570  -33.6410   26.1810 C.2   999  NVP999      0.2076
     12  N8        -2.0910  -33.5310   26.2970 N.2   999  NVP999     -0.3293
     13  C9        -3.1050  -33.5960   25.4170 C.1   999  NVP999      0.2096
     14  OE        -4.2740  -33.4330   25.7920 O.2   999  NVP999     -0.2091
     15  C10       -2.8390  -33.8640   23.9210 C.ar  999  NVP999      0.1506
     16  C15       -1.7930  -34.7280   23.4750 C.ar  999  NVP999      0.2365
     17  C11       -3.6730  -33.2760   22.9570 C.ar  999  NVP999      0.0194
     18  C12       -3.4620  -33.5540   21.5880 C.ar  999  NVP999      0.0217
     19  C13       -2.4050  -34.4140   21.2270 C.ar  999  NVP999      0.1025
     20  N14       -1.5880  -34.9890   22.1520 N.ar  999  NVP999     -0.2068
@<TRIPOS>BOND
     1    19    18   ar
     2    19    20   ar
     3    18    17   ar
     4    20    16   ar
     5    17    15   ar
     6    16    15   ar
     7    16     1    1
     8     4     2    1
     9     4     3    1
    10    15    13    1
    11     2     1    1
    12     2     3    1
    13     1    10    1
    14     5    10    2
    15     5     6    1
    16    10    11    1
    17    13    14    2
    18    13    12    2
    19     6     7    2
    20    11    12    2
    21    11     8    1
    22     7     8    1
    23     8     9    1
