@<TRIPOS>MOLECULE
1jlg_UC1_A_1.pdb
 22 23 0 0 0
SMALL
GASTEIGER

@<TRIPOS>ATOM
      1  C2        -1.4960  -34.5480   23.8610 C.ar  999  UC1999      0.0543
      2  C4        -3.7820  -33.8080   24.2270 C.ar  999  UC1999      0.0916
      3  C5        -4.0440  -34.0000   22.8450 C.ar  999  UC1999      0.0158
      4  C6        -3.0480  -34.4670   21.9940 C.ar  999  UC1999      0.0176
      5  O7         1.3400  -37.5420   25.1130 O.2   999  UC1999     -0.4546
      6  C8         1.5180  -36.7050   24.0130 C.ar  999  UC1999      0.1251
      7  C9         0.5020  -36.8410   23.1240 C.ar  999  UC1999      0.0553
      8  C10       -0.4000  -37.8680   23.7280 C.ar  999  UC1999      0.0452
      9  C11        0.1580  -38.2260   24.8890 C.ar  999  UC1999      0.1792
     10  CA         2.7830  -35.8510   24.0610 C.3   999  UC1999      0.0725
     11  C          0.3440  -36.0870   21.8030 C.2   999  UC1999      0.1085
     12  S          1.4780  -36.2280   20.5670 S.2   999  UC1999     -0.0327
     13  N         -0.8000  -35.2600   21.5630 N.am  999  UC1999     -0.2053
     14  C1        -1.7580  -34.7550   22.4910 C.ar  999  UC1999      0.0741
     15  C3        -2.4870  -34.0780   24.7430 C.ar  999  UC1999      0.1508
     16 CL         -5.0790  -33.3160   25.2300 Cl    999  UC1999     -0.0791
     17  OB        -2.1810  -33.8400   26.0990 O.3   999  UC1999     -0.4698
     18  CC        -1.2910  -34.7210   26.8540 C.3   999  UC1999      0.2312
     19  CD         0.1710  -34.2950   26.6320 C.2   999  UC1999      0.0122
     20  CE         0.7200  -33.1170   26.9280 C.2   999  UC1999     -0.0443
     21  CF         2.1300  -32.8290   26.6380 C.3   999  UC1999      0.0261
     22  CG        -0.0020  -32.0100   27.5920 C.3   999  UC1999      0.0261
@<TRIPOS>BOND
     1    12    11    2
     2    13    11    1
     3    13    14    1
     4    11     7    1
     5     4    14   ar
     6     4     3   ar
     7    14     1   ar
     8     3     2   ar
     9     7     8   ar
    10     7     6   ar
    11     8     9   ar
    12     1    15   ar
    13     6    10    1
    14     6     5   ar
    15     2    15   ar
    16     2    16    1
    17    15    17    1
    18     9     5   ar
    19    17    18    1
    20    19    18    1
    21    19    20    2
    22    21    20    1
    23    20    22    1
