@<TRIPOS>MOLECULE
1jll_COA_A_1.pdb
 42 44 0 0 0
SMALL
GASTEIGER

@<TRIPOS>ATOM
      1  N1A       30.1400   61.1080   47.4460 N.2   1300  COA1300     0.0021
      2  C2A       29.3880   62.1780   47.7270 C.3   1300  COA1300     0.5254
      3  N3A       28.2060   62.2380   48.3320 N.2   1300  COA1300    -0.0055
      4  C4A       27.7930   61.0100   48.6810 C.2   1300  COA1300     0.3518
      5  C5A       28.4540   59.8140   48.4530 C.2   1300  COA1300     0.2526
      6  C6A       29.6880   59.8840   47.8000 C.2   1300  COA1300     0.4393
      7  N6A       30.4350   58.8140   47.5180 N.pl3 1300  COA1300     0.2180
      8  N7A       27.7270   58.7470   48.9630 N.2   1300  COA1300    -0.2095
      9  C8A       26.6660   59.3150   49.4880 C.3   1300  COA1300     0.3377
     10  N9A       26.6480   60.6830   49.3610 N.pl3 1300  COA1300    -0.1439
     11  C1B       25.6490   61.6330   49.8430 C.3   1300  COA1300     0.3185
     12  C2B       24.2340   61.0970   49.9930 C.3   1300  COA1300     0.2543
     13  O2B       23.6190   60.9560   48.7280 O.3   1300  COA1300    -0.2131
     14  C3B       23.6200   62.1810   50.8790 C.3   1300  COA1300     0.1928
     15  O3B       23.1810   63.2980   50.1090 O.3   1300  COA1300    -0.2673
     16  P3B       21.6680   63.3460   49.5230 P.3   1300  COA1300     0.5327
     17  O7A       21.6730   64.6290   48.7040 O.3   1300  COA1300    -0.1145
     18  O8A       21.3940   62.1280   48.6350 O.2   1300  COA1300    -0.2224
     19  O9A       20.7830   63.3650   50.7770 O.3   1300  COA1300    -0.1145
     20  C4B       24.7930   62.6020   51.7620 C.3   1300  COA1300     0.1795
     21  O4B       25.9690   62.0050   51.1590 O.3   1300  COA1300    -0.3136
     22  C5B       24.6770   62.1690   53.1960 C.3   1300  COA1300     0.1812
     23  O5B       23.6280   62.8970   53.8210 O.3   1300  COA1300    -0.3112
     24  P1A       22.5370   62.2110   54.7740 P.3   1300  COA1300     0.2189
     25  O1A       21.4980   63.2670   54.9870 O.3   1300  COA1300    -0.4371
     26  O2A       22.1370   60.8880   54.1790 O.2   1300  COA1300    -0.5170
     27  O3A       23.3250   61.8790   56.1510 O.3   1300  COA1300    -0.2703
     28  P2A       23.6820   63.0090   57.2440 P.3   1300  COA1300     0.2188
     29  O4A       23.8410   64.3670   56.5550 O.2   1300  COA1300    -0.5170
     30  O5A       22.5050   62.9450   58.2140 O.3   1300  COA1300    -0.4371
     31  O6A       24.9680   62.4540   57.8560 O.3   1300  COA1300    -0.3138
     32  CBP       27.4200   62.1120   58.3820 C.3   1300  COA1300     0.0646
     33  CCP       26.2810   62.1020   57.3160 C.3   1300  COA1300     0.1519
     34  CDP       27.6980   63.4810   58.9130 C.3   1300  COA1300     0.0056
     35  CEP       28.6640   61.7360   57.5490 C.3   1300  COA1300     0.0056
     36  CAP       27.0880   61.2390   59.6440 C.3   1300  COA1300     0.2315
     37  OAP       26.8490   59.9260   59.0730 O.3   1300  COA1300    -0.2131
     38  C9P       28.1610   61.2800   60.8310 C.2   1300  COA1300     0.2758
     39  O9P       29.1330   60.5490   60.6240 O.2   1300  COA1300    -0.2702
     40  N8P       28.1130   62.0020   61.9810 N.am  1300  COA1300    -0.1805
     41  C7P       29.1180   62.0370   63.1150 C.2   1300  COA1300     0.0627
     42  C6P       29.0470   63.1260   64.2130 C.3   1300  COA1300     0.0504
@<TRIPOS>BOND
     1     1     2    1
     2     1     6    2
     3     7     6    1
     4     2     3    1
     5     6     5    1
     6     3     4    2
     7     5     4    1
     8     5     8    2
     9    18    16    2
    10     4    10    1
    11    17    16    1
    12    13    12    1
    13     8     9    1
    14    10     9    1
    15    10    11    1
    16    16    15    1
    17    16    19    1
    18    11    12    1
    19    11    21    1
    20    12    14    1
    21    15    14    1
    22    14    20    1
    23    21    20    1
    24    20    22    1
    25    22    23    1
    26    23    24    1
    27    26    24    2
    28    24    25    1
    29    24    27    1
    30    27    28    1
    31    29    28    2
    32    28    31    1
    33    28    30    1
    34    33    31    1
    35    33    32    1
    36    35    32    1
    37    32    34    1
    38    32    36    1
    39    37    36    1
    40    36    38    1
    41    39    38    2
    42    38    40    1
    43    40    41    2
    44    41    42    1
