@<TRIPOS>MOLECULE
1jlq_SBN_A_1.pdb
 20 21 0 0 0
SMALL
GASTEIGER

@<TRIPOS>ATOM
      1  C1        -3.9010  -33.5840   22.5330 C.ar  999  SBN999      0.0188
      2  C2        -2.8990  -34.3040   21.8250 C.ar  999  SBN999      0.0999
      3  C3        -2.0400  -35.2210   22.5310 C.ar  999  SBN999      0.1025
      4  C4        -2.1770  -35.4350   23.9750 C.ar  999  SBN999      0.1212
      5  C5        -3.2100  -34.6770   24.6290 C.ar  999  SBN999      0.0195
      6  C6        -4.0550  -33.7710   23.9240 C.ar  999  SBN999      0.0028
      7  S         -1.2120  -36.5520   24.8930 S.O2  999  SBN999      0.0281
      8  O1        -1.8200  -36.7460   26.2190 O.2   999  SBN999     -0.1642
      9  O2        -0.9970  -37.7880   24.1380 O.2   999  SBN999     -0.1642
     10  C7         0.2830  -35.7500   25.1550 C.ar  999  SBN999      0.1097
     11  C8         0.3400  -34.6140   26.0450 C.ar  999  SBN999      0.0145
     12  C9         1.5550  -33.9050   26.2480 C.ar  999  SBN999     -0.0209
     13  C10        2.7350  -34.3310   25.5610 C.ar  999  SBN999     -0.0084
     14  C11        2.7120  -35.4660   24.6790 C.ar  999  SBN999     -0.0209
     15  C12        1.4720  -36.1590   24.4930 C.ar  999  SBN999      0.0145
     16  N2        -0.2340  -36.4910   21.2010 N.1   999  SBN999     -0.1907
     17  C13       -1.0370  -35.9250   21.7910 C.1   999  SBN999      0.1031
     18  N1        -2.7780  -34.1260   20.4120 N.pl3 999  SBN999     -0.1273
     19  C14        1.5710  -32.7000   27.1980 C.3   999  SBN999      0.0311
     20  C15        3.9780  -35.9500   23.9690 C.3   999  SBN999      0.0311
@<TRIPOS>BOND
     1    18     2    1
     2    16    17    3
     3    17     3    1
     4     2     3   ar
     5     2     1   ar
     6     3     4   ar
     7     1     6   ar
     8     6     5   ar
     9    20    14    1
    10     4     5   ar
    11     4     7    1
    12     9     7    2
    13    15    14   ar
    14    15    10   ar
    15    14    13   ar
    16     7    10    1
    17     7     8    2
    18    10    11   ar
    19    13    12   ar
    20    11    12   ar
    21    12    19    1
