@<TRIPOS>MOLECULE
1jlr_GTP_A_1.pdb
 32 34 0 0 0
SMALL
GASTEIGER

@<TRIPOS>ATOM
      1  PG        19.8720   86.7150   79.2050 P.3   303  GTP303      0.5373
      2  O1G       18.8560   85.7700   79.7280 O.3   303  GTP303     -0.1143
      3  O2G       20.4990   85.8800   78.0870 O.2   303  GTP303     -0.2221
      4  O3G       20.7800   86.8210   80.3740 O.3   303  GTP303     -0.1143
      5  O3B       19.2310   88.1050   78.9700 O.3   303  GTP303     -0.2258
      6  PB        18.3740   88.8130   80.0230 P.3   303  GTP303      0.2277
      7  O1B       17.3270   88.0030   80.6750 O.2   303  GTP303     -0.5168
      8  O2B       19.4630   89.3570   80.8310 O.3   303  GTP303     -0.4368
      9  O3A       17.6600   89.9850   79.2110 O.3   303  GTP303     -0.2700
     10  PA        16.2510   89.7370   78.3850 P.3   303  GTP303      0.2189
     11  O1A       16.5800   88.7710   77.3010 O.2   303  GTP303     -0.5170
     12  O2A       15.1870   89.3700   79.3180 O.3   303  GTP303     -0.4371
     13  O5'       16.0330   91.0990   77.8260 O.3   303  GTP303     -0.3112
     14  C5'       15.0160   91.4290   76.8510 C.3   303  GTP303      0.1813
     15  C4'       15.4590   91.0450   75.4390 C.3   303  GTP303      0.1799
     16  O4'       14.3490   90.6030   74.6030 O.3   303  GTP303     -0.3326
     17  C3'       16.2090   92.1210   74.6500 C.3   303  GTP303      0.2158
     18  O3'       17.5630   91.7340   74.4580 O.3   303  GTP303     -0.2175
     19  C2'       15.4290   92.2970   73.3300 C.3   303  GTP303      0.2310
     20  O2'       16.2380   92.1450   72.1780 O.3   303  GTP303     -0.2158
     21  C1'       14.3320   91.2590   73.3420 C.3   303  GTP303      0.2293
     22  N9        12.9730   91.8260   73.1040 N.pl3 303  GTP303     -0.2354
     23  C8        11.9660   91.3970   72.2750 C.3   303  GTP303      0.2246
     24  N7        10.8960   92.1170   72.2860 N.2   303  GTP303     -0.2322
     25  C5        11.1500   93.1050   73.1610 C.2   303  GTP303      0.2182
     26  C6        10.3380   94.2170   73.5940 C.1   303  GTP303      0.2372
     27  O6         9.1670   94.4810   73.2000 O.2   303  GTP303     -0.2069
     28  N1        11.0020   95.0750   74.5770 N.2   303  GTP303     -0.2485
     29  C2        12.2830   94.8540   75.0570 C.1   303  GTP303      0.2531
     30  N2        12.7490   95.7270   75.9500 N.pl3 303  GTP303     -0.0226
     31  N3        13.0490   93.8290   74.6650 N.2   303  GTP303     -0.3074
     32  C4        12.4380   92.9740   73.7090 C.2   303  GTP303      0.2300
@<TRIPOS>BOND
     1    20    19    1
     2    23    24    1
     3    23    22    1
     4    24    25    2
     5    22    21    1
     6    22    32    1
     7    25    26    1
     8    25    32    1
     9    27    26    2
    10    19    21    1
    11    19    17    1
    12    21    16    1
    13    26    28    2
    14    32    31    2
    15    18    17    1
    16    28    29    2
    17    16    15    1
    18    17    15    1
    19    31    29    2
    20    29    30    1
    21    15    14    1
    22    14    13    1
    23    11    10    2
    24    13    10    1
    25     3     1    2
    26    10     9    1
    27    10    12    1
    28     5     1    1
    29     5     6    1
    30     1     2    1
    31     1     4    1
    32     9     6    1
    33     6     7    2
    34     6     8    1
