@<TRIPOS>MOLECULE
1jls_PRP_B_1.pdb
 22 22 0 0 0
SMALL
GASTEIGER

@<TRIPOS>ATOM
      1  C1        45.9600   54.1060   38.3210 C.3   301  PRP301      0.2742
      2  C2        44.4640   54.0070   37.9040 C.3   301  PRP301      0.2408
      3  C3        44.2510   52.5940   37.2320 C.3   301  PRP301      0.2167
      4  C4        45.5750   52.5570   36.4520 C.3   301  PRP301      0.1808
      5  C5        45.4650   53.3720   35.1180 C.3   301  PRP301      0.1859
      6  O1        46.2380   53.6840   39.7950 O.3   301  PRP301     -0.2857
      7  O2        43.6210   54.2110   39.0580 O.3   301  PRP301     -0.2149
      8  O3        44.2260   51.4580   38.2110 O.3   301  PRP301     -0.2175
      9  O4        46.6100   53.1370   37.3370 O.3   301  PRP301     -0.3255
     10  O5        46.7530   53.1180   34.3980 O.3   301  PRP301     -0.2675
     11  P         47.3380   51.8420   33.8630 P.3   301  PRP301      0.5327
     12  O1P       47.8330   51.0460   35.1190 O.3   301  PRP301     -0.1145
     13  O2P       46.1190   51.2260   33.0980 O.3   301  PRP301     -0.1145
     14  O3P       48.6190   52.2540   32.8370 O.2   301  PRP301     -0.2224
     15  PA        47.1250   54.6720   40.9050 P.3   301  PRP301      0.2249
     16  O1A       48.5190   54.1110   41.0240 O.3   301  PRP301     -0.4370
     17  O2A       47.1200   56.1090   40.4030 O.2   301  PRP301     -0.5169
     18  O3A       46.7260   54.2250   42.4830 O.3   301  PRP301     -0.2260
     19  PB        45.3110   54.3690   43.4100 P.3   301  PRP301      0.5373
     20  O1B       44.8450   52.9980   43.8280 O.3   301  PRP301     -0.1143
     21  O2B       44.3150   55.0360   42.5350 O.2   301  PRP301     -0.2221
     22  O3B       45.6930   55.2180   44.5860 O.3   301  PRP301     -0.1143
@<TRIPOS>BOND
     1    14    11    2
     2    13    11    1
     3    11    10    1
     4    11    12    1
     5    10     5    1
     6     5     4    1
     7     4     3    1
     8     4     9    1
     9     3     2    1
    10     3     8    1
    11     9     1    1
    12     2     1    1
    13     2     7    1
    14     1     6    1
    15     6    15    1
    16    17    15    2
    17    15    16    1
    18    15    18    1
    19    18    19    1
    20    21    19    2
    21    19    20    1
    22    19    22    1
