@<TRIPOS>MOLECULE
1jlv_GSH_A_1.pdb
 20 19 0 0 0
SMALL
GASTEIGER

@<TRIPOS>ATOM
      1  N1        72.3450   19.8120   -0.7750 N.3   701  GSH701     -0.1208
      2  CA1       73.4710   18.8930   -0.7560 C.3   701  GSH701      0.1948
      3  C1        74.6510   19.3440   -1.6580 C.2   701  GSH701      0.3819
      4  O11       75.7870   18.9090   -1.4170 O.co2 701  GSH701     -0.2441
      5  O12       74.3740   20.1700   -2.6270 O.co2 701  GSH701     -0.2441
      6  CB1       72.9500   17.4810   -1.1360 C.3   701  GSH701      0.0402
      7  CG1       73.9110   16.3770   -0.6360 C.3   701  GSH701      0.0889
      8  CD1       73.3470   14.9790   -0.9770 C.2   701  GSH701      0.2418
      9  OE1       72.1480   14.8100   -1.2970 O.2   701  GSH701     -0.2733
     10  N2        74.2520   14.0040   -0.8630 N.am  701  GSH701     -0.1968
     11  CA2       73.8940   12.6050   -1.1030 C.3   701  GSH701      0.1843
     12  C2        74.3430   11.8050    0.1340 C.2   701  GSH701      0.2627
     13  O2        75.4990   11.8670    0.5680 O.2   701  GSH701     -0.2714
     14  CB2       74.6250   12.0570   -2.3490 C.3   701  GSH701      0.0997
     15  SG2       73.9220   12.6920   -3.8970 S.3   701  GSH701     -0.0797
     16  N3        73.3870   11.0290    0.7180 N.am  701  GSH701     -0.1917
     17  CA3       73.5950   10.1720    1.9100 C.3   701  GSH701      0.2285
     18  C3        73.3560   10.9240    3.2270 C.2   701  GSH701      0.3865
     19  O31       73.5060   10.2520    4.2520 O.co2 701  GSH701     -0.2437
     20  O32       73.0330   12.1440    3.2150 O.co2 701  GSH701     -0.2437
@<TRIPOS>BOND
     1    15    14    1
     2     5     3   ar
     3    14    11    1
     4     3     4   ar
     5     3     2    1
     6     9     8    2
     7     6     2    1
     8     6     7    1
     9    11    10    1
    10    11    12    1
    11     8    10   am
    12     8     7    1
    13     1     2    1
    14    12    13    2
    15    12    16   am
    16    16    17    1
    17    17    18    1
    18    20    18   ar
    19    18    19   ar
