@<TRIPOS>MOLECULE
1jlx_GAL_A_1.pdb
 11 11 0 0 0
SMALL
GASTEIGER

@<TRIPOS>ATOM
      1  C1        54.4680   88.3880  -31.3650 C.3   304  GAL304      0.1777
      2  C2        54.1410   87.0000  -31.8680 C.3   304  GAL304      0.2141
      3  C3        53.0150   87.0570  -32.8950 C.3   304  GAL304      0.2173
      4  C4        51.8130   87.7140  -32.2780 C.3   304  GAL304      0.2142
      5  C5        52.1740   89.0700  -31.6540 C.3   304  GAL304      0.1810
      6  C6        51.0160   89.6280  -30.8610 C.3   304  GAL304      0.2141
      7  O2        55.2960   86.4320  -32.4490 O.3   304  GAL304     -0.2176
      8  O3        52.6550   85.7400  -33.2890 O.3   304  GAL304     -0.2175
      9  O4        51.2730   86.8400  -31.3070 O.3   304  GAL304     -0.2176
     10  O5        53.3060   88.9650  -30.7480 O.3   304  GAL304     -0.3481
     11  O6        51.3090   90.9360  -30.4130 O.3   304  GAL304     -0.2176
@<TRIPOS>BOND
     1     8     3    1
     2     3     4    1
     3     3     2    1
     4     7     2    1
     5     4     5    1
     6     4     9    1
     7     2     1    1
     8     5     6    1
     9     5    10    1
    10     1    10    1
    11     6    11    1
