@<TRIPOS>MOLECULE
1jm6_ADP_A_1.pdb
 27 29 0 0 0
SMALL
GASTEIGER

@<TRIPOS>ATOM
      1  PB         8.0200  -14.6930   33.8810 P.3   3500  ADP3500     0.5373
      2  O1B        6.5550  -14.3700   34.1880 O.3   3500  ADP3500    -0.1143
      3  O2B        8.1940  -16.3020   33.5780 O.2   3500  ADP3500    -0.2221
      4  O3B        8.9350  -14.2680   35.0070 O.3   3500  ADP3500    -0.1143
      5  PA         9.6670  -13.1580   32.1050 P.3   3500  ADP3500     0.2231
      6  O1A        9.1940  -12.1600   31.1420 O.2   3500  ADP3500    -0.5169
      7  O2A       10.3790  -12.5090   33.2780 O.3   3500  ADP3500    -0.4370
      8  O3A        8.4700  -14.0310   32.5560 O.3   3500  ADP3500    -0.2261
      9  O5'       10.6640  -14.2330   31.4400 O.3   3500  ADP3500    -0.3111
     10  C5'       10.1680  -15.4140   30.8260 C.3   3500  ADP3500     0.1813
     11  C4'       11.1250  -16.6120   31.0410 C.3   3500  ADP3500     0.1821
     12  O4'       12.4410  -16.3320   30.5440 O.3   3500  ADP3500    -0.3135
     13  C3'       11.3200  -17.0630   32.4840 C.3   3500  ADP3500     0.2184
     14  O3'       10.2890  -17.9500   32.9320 O.3   3500  ADP3500    -0.2174
     15  C2'       12.6740  -17.7000   32.4850 C.3   3500  ADP3500     0.2570
     16  O2'       12.5940  -19.1270   32.2860 O.3   3500  ADP3500    -0.2130
     17  C1'       13.4250  -16.9630   31.4040 C.3   3500  ADP3500     0.3186
     18  N9        14.4590  -16.0190   31.9500 N.pl3 3500  ADP3500    -0.1439
     19  C8        14.3020  -14.6960   32.1920 C.3   3500  ADP3500     0.3377
     20  N7        15.5080  -14.1860   32.5220 N.2   3500  ADP3500    -0.2095
     21  C5        16.3280  -15.1920   32.8370 C.2   3500  ADP3500     0.2526
     22  C6        17.6410  -15.3270   33.3420 C.2   3500  ADP3500     0.4393
     23  N6        18.3500  -14.2700   33.7680 N.pl3 3500  ADP3500     0.2180
     24  N1        18.2300  -16.5960   33.3600 N.2   3500  ADP3500     0.0021
     25  C2        17.5910  -17.6800   32.8560 C.3   3500  ADP3500     0.5254
     26  N3        16.3380  -17.5470   32.3940 N.2   3500  ADP3500    -0.0055
     27  C4        15.6500  -16.3720   32.3810 C.2   3500  ADP3500     0.3518
@<TRIPOS>BOND
     1    12    11    1
     2    12    17    1
     3    10    11    1
     4    10     9    1
     5    11    13    1
     6     6     5    2
     7    17    18    1
     8    17    15    1
     9     9     5    1
    10    18    19    1
    11    18    27    1
    12     5     8    1
    13     5     7    1
    14    19    20    1
    15    16    15    1
    16    27    26    2
    17    27    21    1
    18    26    25    1
    19    13    15    1
    20    13    14    1
    21    20    21    2
    22     8     1    1
    23    21    22    1
    24    25    24    1
    25    22    24    2
    26    22    23    1
    27     3     1    2
    28     1     2    1
    29     1     4    1
