@<TRIPOS>MOLECULE
1jme_HEM_A_1.pdb
 43 50 0 0 0
SMALL
GASTEIGER

@<TRIPOS>ATOM
      1 FE         25.8870   -1.4670   14.3070 Fe    460  HEM460      0.0000
      2  CHA       28.1610   -3.4430   12.6930 C.2   460  HEM460      0.0000
      3  CHB       23.3810   -3.3620   13.0860 C.2   460  HEM460      0.0000
      4  CHC       23.7230    0.5040   15.9110 C.2   460  HEM460      0.0000
      5  CHD       28.4150    0.7300   15.0550 C.2   460  HEM460      0.0000
      6  NA        25.8010   -3.0460   13.0800 N.ar  460  HEM460      0.0000
      7  C1A       26.8290   -3.7840   12.5350 C.ar  460  HEM460      0.0000
      8  C2A       26.3280   -4.9590   11.8500 C.ar  460  HEM460      0.0000
      9  C3A       24.9770   -4.9030   11.9400 C.ar  460  HEM460      0.0000
     10  C4A       24.6550   -3.6880   12.6510 C.ar  460  HEM460      0.0000
     11  CMA       23.9520   -5.8850   11.3640 C.3   460  HEM460      0.0000
     12  CAA       27.1660   -5.9790   11.0530 C.3   460  HEM460      0.0000
     13  CBA       27.5430   -5.5400    9.6380 C.3   460  HEM460      0.0000
     14  CGA       28.1880   -6.6060    8.7800 C.2   460  HEM460      0.0000
     15  O1A       28.2070   -7.7650    9.2350 O.co2 460  HEM460      0.0000
     16  O2A       28.6650   -6.2790    7.6640 O.co2 460  HEM460      0.0000
     17  NB        23.9580   -1.3710   14.3620 N.2   460  HEM460      0.0000
     18  C1B       23.0420   -2.2530   13.8300 C.2   460  HEM460      0.0000
     19  C2B       21.6960   -1.9680   14.3130 C.2   460  HEM460      0.0000
     20  C3B       21.7920   -0.9180   15.1510 C.2   460  HEM460      0.0000
     21  C4B       23.2130   -0.5290   15.1580 C.2   460  HEM460      0.0000
     22  CMB       20.4560   -2.6650   13.7420 C.3   460  HEM460      0.0000
     23  CAB       20.8280   -0.2140   15.8570 C.3   460  HEM460      0.0000
     24  CBB       19.5590   -0.6980   16.3350 C.3   460  HEM460      0.0000
     25  NC        26.0240    0.3540   15.1520 N.ar  460  HEM460      0.0000
     26  C1C       25.0310    0.9460   15.9280 C.ar  460  HEM460      0.0000
     27  C2C       25.5360    2.0410   16.7260 C.ar  460  HEM460      0.0000
     28  C3C       26.8590    2.1260   16.4650 C.ar  460  HEM460      0.0000
     29  C4C       27.1480    1.0720   15.4950 C.ar  460  HEM460      0.0000
     30  CMC       24.6970    2.9590   17.6290 C.3   460  HEM460      0.0000
     31  CAC       27.8040    3.0380   16.9070 C.3   460  HEM460      0.0000
     32  CBC       27.8340    3.8440   18.0930 C.3   460  HEM460      0.0000
     33  ND        27.8770   -1.3240   13.8700 N.2   460  HEM460      0.0000
     34  C1D       28.7720   -0.3920   14.3400 C.2   460  HEM460      0.0000
     35  C2D       30.1310   -0.7480   13.9790 C.2   460  HEM460      0.0000
     36  C3D       30.0680   -1.9150   13.3000 C.2   460  HEM460      0.0000
     37  C4D       28.6580   -2.2840   13.2610 C.2   460  HEM460      0.0000
     38  CMD       31.3720    0.0950   14.2590 C.3   460  HEM460      0.0000
     39  CAD       31.2340   -2.8410   12.9240 C.3   460  HEM460      0.0000
     40  CBD       31.8750   -3.6210   14.0840 C.3   460  HEM460      0.0000
     41  CGD       33.0530   -4.4890   13.6280 C.2   460  HEM460      0.0000
     42  O1D       34.1000   -4.4640   14.3190 O.co2 460  HEM460      0.0000
     43  O2D       32.9460   -5.1890   12.5990 O.co2 460  HEM460      0.0000
@<TRIPOS>BOND
     1    16    14   ar
     2    14    15   ar
     3    14    13    1
     4    13    12    1
     5    12     8    1
     6    11     9    1
     7     8     9   ar
     8     8     7   ar
     9     9    10   ar
    10     7     2    2
    11     7     6   ar
    12    43    41   ar
    13    10     6   ar
    14    10     3    2
    15     2    37    1
    16    39    36    1
    17    39    40    1
    18     6     1    1
    19     3    18    1
    20    37    36    1
    21    37    33    2
    22    36    35    2
    23    41    40    1
    24    41    42   ar
    25    22    19    1
    26    18    19    1
    27    18    17    2
    28    33     1    1
    29    33    34    1
    30    35    38    1
    31    35    34    1
    32     1    17    1
    33     1    25    1
    34    19    20    2
    35    34     5    2
    36    17    21    1
    37     5    29    1
    38    20    21    1
    39    20    23    1
    40    25    29   ar
    41    25    26   ar
    42    21     4    2
    43    29    28   ar
    44    23    24    1
    45     4    26    1
    46    26    27   ar
    47    28    27   ar
    48    28    31    1
    49    27    30    1
    50    31    32    1
