@<TRIPOS>MOLECULE
1jmf_UMP_A_1.pdb
 20 21 0 0 0
SMALL
GASTEIGER

@<TRIPOS>ATOM
      1  N1        14.7000   46.2250  -51.5450 N.am  317  UMP317     -0.1790
      2  C2        14.1990   44.9350  -51.3010 C.1   317  UMP317      0.2844
      3  N3        13.2050   44.7180  -50.3860 N.2   317  UMP317     -0.2452
      4  C4        12.6180   45.6900  -49.6300 C.1   317  UMP317      0.2182
      5  C5        13.1670   47.0690  -49.8880 C.2   317  UMP317      0.1242
      6  C6        14.2180   47.2810  -50.8550 C.2   317  UMP317      0.0928
      7  O2        14.5820   43.9050  -51.8200 O.2   317  UMP317     -0.1918
      8  O4        11.7630   45.2880  -48.8340 O.2   317  UMP317     -0.2085
      9  C1'       15.5920   46.3810  -52.7540 C.3   317  UMP317      0.2090
     10  C2'       14.8940   46.1230  -54.0930 C.3   317  UMP317      0.0874
     11  C3'       15.9730   46.3300  -55.1410 C.3   317  UMP317      0.1857
     12  C4'       16.8350   47.4990  -54.6470 C.3   317  UMP317      0.1774
     13  O3'       16.7760   45.1580  -55.2110 O.3   317  UMP317     -0.2203
     14  O4'       16.3780   47.6000  -53.1770 O.3   317  UMP317     -0.3339
     15  C5'       16.5160   48.7610  -55.4490 C.3   317  UMP317      0.1858
     16  O5'       16.8950   48.5750  -56.8760 O.3   317  UMP317     -0.2675
     17  P         15.9400   49.1560  -58.0410 P.3   317  UMP317      0.5327
     18  OP1       16.6270   49.3060  -59.3490 O.2   317  UMP317     -0.2224
     19  OP2       14.9130   48.1150  -58.1330 O.3   317  UMP317     -0.1145
     20  OP3       15.3230   50.4200  -57.6170 O.3   317  UMP317     -0.1145
@<TRIPOS>BOND
     1    18    17    2
     2    19    17    1
     3    17    20    1
     4    17    16    1
     5    16    15    1
     6    15    12    1
     7    13    11    1
     8    11    12    1
     9    11    10    1
    10    12    14    1
    11    10     9    1
    12    14     9    1
    13     9     1    1
    14     7     2    2
    15     1     2   am
    16     1     6    1
    17     2     3    2
    18     6     5    2
    19     3     4    2
    20     5     4    1
    21     4     8    2
