@<TRIPOS>MOLECULE
1jmg_UMP_A_1.pdb
 20 21 0 0 0
SMALL
GASTEIGER

@<TRIPOS>ATOM
      1  N1        14.5260   46.3470  -51.8600 N.am  317  UMP317     -0.1790
      2  C2        14.3340   45.0180  -51.4840 C.1   317  UMP317      0.2844
      3  N3        13.3750   44.6470  -50.6000 N.2   317  UMP317     -0.2452
      4  C4        12.5410   45.5310  -49.9970 C.1   317  UMP317      0.2182
      5  C5        12.7810   46.9450  -50.3880 C.2   317  UMP317      0.1242
      6  C6        13.7920   47.3070  -51.3240 C.2   317  UMP317      0.0928
      7  O2        15.0320   44.1060  -51.8570 O.2   317  UMP317     -0.1918
      8  O4        11.6890   45.0810  -49.2300 O.2   317  UMP317     -0.2085
      9  C1'       15.4420   46.5660  -53.0430 C.3   317  UMP317      0.2090
     10  C2'       14.7730   46.4380  -54.4170 C.3   317  UMP317      0.0874
     11  C3'       15.9640   46.5030  -55.3650 C.3   317  UMP317      0.1857
     12  C4'       16.8710   47.6390  -54.8440 C.3   317  UMP317      0.1774
     13  O3'       16.6440   45.2030  -55.2310 O.3   317  UMP317     -0.2203
     14  O4'       16.3720   47.7110  -53.3790 O.3   317  UMP317     -0.3339
     15  C5'       16.5920   48.9570  -55.5900 C.3   317  UMP317      0.1858
     16  O5'       16.9690   48.9830  -57.0440 O.3   317  UMP317     -0.2675
     17  P         15.8090   49.3410  -58.1310 P.3   317  UMP317      0.5327
     18  OP1       16.2060   49.3070  -59.5510 O.2   317  UMP317     -0.2224
     19  OP2       14.8070   48.2890  -57.8960 O.3   317  UMP317     -0.1145
     20  OP3       15.2750   50.6750  -57.8100 O.3   317  UMP317     -0.1145
@<TRIPOS>BOND
     1    18    17    2
     2    17    19    1
     3    17    20    1
     4    17    16    1
     5    16    15    1
     6    15    12    1
     7    11    13    1
     8    11    12    1
     9    11    10    1
    10    12    14    1
    11    10     9    1
    12    14     9    1
    13     9     1    1
    14     1     2   am
    15     1     6    1
    16     7     2    2
    17     2     3    2
    18     6     5    2
    19     3     4    2
    20     5     4    1
    21     4     8    2
