@<TRIPOS>MOLECULE
1jmh_UMP_A_1.pdb
 20 21 0 0 0
SMALL
GASTEIGER

@<TRIPOS>ATOM
      1  N1        15.1720   48.7330  -53.6620 N.am  317  UMP317     -0.1790
      2  C2        14.3100   47.6490  -53.3330 C.1   317  UMP317      0.2844
      3  N3        14.0520   47.4930  -51.9820 N.2   317  UMP317     -0.2452
      4  C4        14.5620   48.2900  -50.9610 C.1   317  UMP317      0.2182
      5  C5        15.4110   49.3880  -51.3950 C.2   317  UMP317      0.1242
      6  C6        15.6710   49.5620  -52.7510 C.2   317  UMP317      0.0928
      7  O2        13.7650   46.8640  -54.1100 O.2   317  UMP317     -0.1918
      8  O4        14.3030   48.0280  -49.7870 O.2   317  UMP317     -0.2085
      9  C1'       15.8840   48.8690  -54.9630 C.3   317  UMP317      0.2090
     10  C2'       15.1830   48.4730  -56.2640 C.3   317  UMP317      0.0874
     11  C3'       16.3050   48.7090  -57.2640 C.3   317  UMP317      0.1857
     12  C4'       16.8950   50.0900  -56.9290 C.3   317  UMP317      0.1774
     13  O3'       17.3040   47.6930  -56.9700 O.3   317  UMP317     -0.2203
     14  O4'       16.5110   50.1580  -55.4560 O.3   317  UMP317     -0.3339
     15  C5'       16.1940   51.1920  -57.7390 C.3   317  UMP317      0.1858
     16  O5'       16.5910   51.1560  -59.1740 O.3   317  UMP317     -0.2675
     17  P         15.8260   51.9740  -60.3020 P.3   317  UMP317      0.5327
     18  OP1       14.5370   51.3040  -60.3760 O.3   317  UMP317     -0.1145
     19  OP2       15.6190   53.3670  -59.8620 O.3   317  UMP317     -0.1145
     20  OP3       16.4200   51.9700  -61.6540 O.2   317  UMP317     -0.2224
@<TRIPOS>BOND
     1    20    17    2
     2    18    17    1
     3    17    19    1
     4    17    16    1
     5    16    15    1
     6    15    12    1
     7    11    13    1
     8    11    12    1
     9    11    10    1
    10    12    14    1
    11    10     9    1
    12    14     9    1
    13     9     1    1
    14     7     2    2
    15     1     2   am
    16     1     6    1
    17     2     3    2
    18     6     5    2
    19     3     4    2
    20     5     4    1
    21     4     8    2
