@<TRIPOS>MOLECULE
1jmi_UMP_A_1.pdb
 20 21 0 0 0
SMALL
GASTEIGER

@<TRIPOS>ATOM
      1  N1        14.8600   48.3380  -53.4820 N.am  317  UMP317     -0.1790
      2  C2        14.0410   47.2650  -53.1280 C.1   317  UMP317      0.2844
      3  N3        13.1860   47.4460  -52.0390 N.2   317  UMP317     -0.2452
      4  C4        13.0820   48.6310  -51.2710 C.1   317  UMP317      0.2182
      5  C5        13.9870   49.7100  -51.7270 C.2   317  UMP317      0.1242
      6  C6        14.8520   49.5050  -52.8300 C.2   317  UMP317      0.0928
      7  O2        14.0330   46.1960  -53.7230 O.2   317  UMP317     -0.1918
      8  O4        12.2980   48.6870  -50.3110 O.2   317  UMP317     -0.2085
      9  C1'       15.7730   48.1980  -54.6410 C.3   317  UMP317      0.2090
     10  C2'       15.0830   47.9110  -55.9750 C.3   317  UMP317      0.0874
     11  C3'       16.2260   48.0430  -56.9720 C.3   317  UMP317      0.1857
     12  C4'       16.9760   49.3170  -56.5820 C.3   317  UMP317      0.1774
     13  O3'       17.1100   46.9480  -56.7710 O.3   317  UMP317     -0.2203
     14  O4'       16.7550   49.2890  -55.0750 O.3   317  UMP317     -0.3339
     15  C5'       16.3040   50.5400  -57.2200 C.3   317  UMP317      0.1858
     16  O5'       16.6210   50.4450  -58.6500 O.3   317  UMP317     -0.2675
     17  P         15.8220   51.0300  -59.8540 P.3   317  UMP317      0.5327
     18  OP1       16.6910   51.4420  -60.9390 O.2   317  UMP317     -0.2224
     19  OP2       15.0160   49.9170  -60.3630 O.3   317  UMP317     -0.1145
     20  OP3       15.0070   52.2210  -59.4490 O.3   317  UMP317     -0.1145
@<TRIPOS>BOND
     1    18    17    2
     2    19    17    1
     3    17    20    1
     4    17    16    1
     5    16    15    1
     6    15    12    1
     7    11    13    1
     8    11    12    1
     9    11    10    1
    10    12    14    1
    11    10     9    1
    12    14     9    1
    13     9     1    1
    14     7     2    2
    15     1     2   am
    16     1     6    1
    17     2     3    2
    18     6     5    2
    19     3     4    2
    20     5     4    1
    21     4     8    2
