@<TRIPOS>MOLECULE
1jmx_HEC_A_1.pdb
 43 50 0 0 0
SMALL
GASTEIGER

@<TRIPOS>ATOM
      1 FE        132.0530   31.2590   26.7240 Fe    1001  HEC1001     0.0000
      2  CHA      133.9730   32.6220   24.3530 C.2   1001  HEC1001     0.0000
      3  CHB      132.9740   28.1960   25.6420 C.2   1001  HEC1001     0.0000
      4  CHC      130.2590   29.8500   29.2270 C.2   1001  HEC1001     0.0000
      5  CHD      131.1650   34.3850   27.8190 C.2   1001  HEC1001     0.0000
      6  NA       133.1950   30.5650   25.2960 N.ar  1001  HEC1001     0.0000
      7  C1A      133.9200   31.2680   24.3900 C.ar  1001  HEC1001     0.0000
      8  C2A      134.6350   30.4090   23.4890 C.ar  1001  HEC1001     0.0000
      9  C3A      134.3380   29.1610   23.8460 C.ar  1001  HEC1001     0.0000
     10  C4A      133.4570   29.2600   24.9770 C.ar  1001  HEC1001     0.0000
     11  CMA      134.8500   27.8860   23.1990 C.3   1001  HEC1001     0.0000
     12  CAA      135.5530   30.8680   22.3780 C.3   1001  HEC1001     0.0000
     13  CBA      136.9460   30.4270   22.8230 C.3   1001  HEC1001     0.0000
     14  CGA      138.0930   30.7800   21.9110 C.2   1001  HEC1001     0.0000
     15  O1A      137.9130   31.3990   20.8760 O.co2 1001  HEC1001     0.0000
     16  O2A      139.2030   30.4330   22.2550 O.co2 1001  HEC1001     0.0000
     17  NB       131.6890   29.4350   27.3030 N.2   1001  HEC1001     0.0000
     18  C1B      132.1570   28.2480   26.7380 C.2   1001  HEC1001     0.0000
     19  C2B      131.7330   27.0780   27.4300 C.2   1001  HEC1001     0.0000
     20  C3B      130.9820   27.5340   28.4720 C.2   1001  HEC1001     0.0000
     21  C4B      130.9350   28.9980   28.3740 C.2   1001  HEC1001     0.0000
     22  CMB      132.0870   25.6200   27.0730 C.3   1001  HEC1001     0.0000
     23  CAB      130.3570   26.6110   29.5080 C.3   1001  HEC1001     0.0000
     24  CBB      131.0520   26.5830   30.8720 C.3   1001  HEC1001     0.0000
     25  NC       130.9280   31.9690   28.1860 N.ar  1001  HEC1001     0.0000
     26  C1C      130.2450   31.2380   29.1340 C.ar  1001  HEC1001     0.0000
     27  C2C      129.5160   32.0830   30.0340 C.ar  1001  HEC1001     0.0000
     28  C3C      129.7460   33.3400   29.6470 C.ar  1001  HEC1001     0.0000
     29  C4C      130.6460   33.2840   28.5010 C.ar  1001  HEC1001     0.0000
     30  CMC      128.6490   31.5970   31.1980 C.3   1001  HEC1001     0.0000
     31  CAC      129.0340   34.5310   30.2500 C.3   1001  HEC1001     0.0000
     32  CBC      129.6100   35.2430   31.4590 C.3   1001  HEC1001     0.0000
     33  ND       132.4770   33.1090   26.2090 N.2   1001  HEC1001     0.0000
     34  C1D      132.0400   34.3020   26.7480 C.2   1001  HEC1001     0.0000
     35  C2D      132.6300   35.4510   26.0560 C.2   1001  HEC1001     0.0000
     36  C3D      133.4300   34.8860   25.0820 C.2   1001  HEC1001     0.0000
     37  C4D      133.3030   33.4880   25.1980 C.2   1001  HEC1001     0.0000
     38  CMD      132.3920   36.9250   26.3720 C.3   1001  HEC1001     0.0000
     39  CAD      134.3380   35.5080   24.0140 C.3   1001  HEC1001     0.0000
     40  CBD      134.3550   36.9950   23.8950 C.3   1001  HEC1001     0.0000
     41  CGD      133.4020   37.4550   22.8430 C.2   1001  HEC1001     0.0000
     42  O1D      132.4280   36.7220   22.5560 O.co2 1001  HEC1001     0.0000
     43  O2D      133.6110   38.5560   22.2870 O.co2 1001  HEC1001     0.0000
@<TRIPOS>BOND
     1    15    14   ar
     2    14    16   ar
     3    14    13    1
     4    43    41   ar
     5    12    13    1
     6    12     8    1
     7    42    41   ar
     8    41    40    1
     9    11     9    1
    10     8     9   ar
    11     8     7   ar
    12     9    10   ar
    13    40    39    1
    14    39    36    1
    15     2     7    2
    16     2    37    1
    17     7     6   ar
    18    10     6   ar
    19    10     3    2
    20    36    37    1
    21    36    35    2
    22    37    33    2
    23     6     1    1
    24     3    18    1
    25    35    38    1
    26    35    34    1
    27    33     1    1
    28    33    34    1
    29     1    17    1
    30     1    25    1
    31    18    17    2
    32    18    19    1
    33    34     5    2
    34    22    19    1
    35    17    21    1
    36    19    20    2
    37     5    29    1
    38    25    29   ar
    39    25    26   ar
    40    21    20    1
    41    21     4    2
    42    20    23    1
    43    29    28   ar
    44    26     4    1
    45    26    27   ar
    46    23    24    1
    47    28    27   ar
    48    28    31    1
    49    27    30    1
    50    31    32    1
