@<TRIPOS>MOLECULE
1jmz_HEC_A_1.pdb
 43 50 0 0 0
SMALL
GASTEIGER

@<TRIPOS>ATOM
      1 FE        132.0170   31.3850   26.7430 Fe    1001  HEC1001     0.0000
      2  CHA      133.9430   32.7410   24.3910 C.2   1001  HEC1001     0.0000
      3  CHB      132.9160   28.3210   25.6670 C.2   1001  HEC1001     0.0000
      4  CHC      130.2300   29.9870   29.2510 C.2   1001  HEC1001     0.0000
      5  CHD      131.1250   34.5130   27.8450 C.2   1001  HEC1001     0.0000
      6  NA       133.1490   30.6850   25.3210 N.ar  1001  HEC1001     0.0000
      7  C1A      133.8810   31.3820   24.4200 C.ar  1001  HEC1001     0.0000
      8  C2A      134.5900   30.5180   23.5170 C.ar  1001  HEC1001     0.0000
      9  C3A      134.2780   29.2750   23.8750 C.ar  1001  HEC1001     0.0000
     10  C4A      133.4030   29.3830   25.0050 C.ar  1001  HEC1001     0.0000
     11  CMA      134.7690   27.9940   23.2350 C.3   1001  HEC1001     0.0000
     12  CAA      135.5120   30.9840   22.4090 C.3   1001  HEC1001     0.0000
     13  CBA      136.9120   30.5410   22.8460 C.3   1001  HEC1001     0.0000
     14  CGA      138.0700   30.9220   21.9370 C.2   1001  HEC1001     0.0000
     15  O1A      137.8960   31.5760   20.9050 O.co2 1001  HEC1001     0.0000
     16  O2A      139.1850   30.5680   22.2800 O.co2 1001  HEC1001     0.0000
     17  NB       131.6450   29.5660   27.3260 N.2   1001  HEC1001     0.0000
     18  C1B      132.1060   28.3760   26.7660 C.2   1001  HEC1001     0.0000
     19  C2B      131.6880   27.2120   27.4690 C.2   1001  HEC1001     0.0000
     20  C3B      130.9520   27.6760   28.5080 C.2   1001  HEC1001     0.0000
     21  C4B      130.9010   29.1360   28.4010 C.2   1001  HEC1001     0.0000
     22  CMB      132.0350   25.7550   27.1300 C.3   1001  HEC1001     0.0000
     23  CAB      130.3490   26.7580   29.5530 C.3   1001  HEC1001     0.0000
     24  CBB      131.0980   26.7200   30.8840 C.3   1001  HEC1001     0.0000
     25  NC       130.8920   32.1000   28.2060 N.ar  1001  HEC1001     0.0000
     26  C1C      130.2110   31.3710   29.1550 C.ar  1001  HEC1001     0.0000
     27  C2C      129.4790   32.2160   30.0530 C.ar  1001  HEC1001     0.0000
     28  C3C      129.7060   33.4720   29.6660 C.ar  1001  HEC1001     0.0000
     29  C4C      130.6080   33.4140   28.5220 C.ar  1001  HEC1001     0.0000
     30  CMC      128.6160   31.7290   31.2170 C.3   1001  HEC1001     0.0000
     31  CAC      128.9790   34.6590   30.2590 C.3   1001  HEC1001     0.0000
     32  CBC      129.5090   35.3730   31.4880 C.3   1001  HEC1001     0.0000
     33  ND       132.4420   33.2360   26.2410 N.2   1001  HEC1001     0.0000
     34  C1D      132.0070   34.4260   26.7800 C.2   1001  HEC1001     0.0000
     35  C2D      132.6060   35.5720   26.0940 C.2   1001  HEC1001     0.0000
     36  C3D      133.4080   35.0020   25.1240 C.2   1001  HEC1001     0.0000
     37  C4D      133.2730   33.6100   25.2370 C.2   1001  HEC1001     0.0000
     38  CMD      132.3690   37.0480   26.4210 C.3   1001  HEC1001     0.0000
     39  CAD      134.3240   35.6100   24.0600 C.3   1001  HEC1001     0.0000
     40  CBD      134.3420   37.0920   23.9130 C.3   1001  HEC1001     0.0000
     41  CGD      133.3310   37.5420   22.9140 C.2   1001  HEC1001     0.0000
     42  O1D      132.4350   36.7470   22.5610 O.co2 1001  HEC1001     0.0000
     43  O2D      133.4150   38.7030   22.4700 O.co2 1001  HEC1001     0.0000
@<TRIPOS>BOND
     1    15    14   ar
     2    14    16   ar
     3    14    13    1
     4    12    13    1
     5    12     8    1
     6    43    41   ar
     7    42    41   ar
     8    41    40    1
     9    11     9    1
    10     8     9   ar
    11     8     7   ar
    12     9    10   ar
    13    40    39    1
    14    39    36    1
    15     2     7    2
    16     2    37    1
    17     7     6   ar
    18    10     6   ar
    19    10     3    2
    20    36    37    1
    21    36    35    2
    22    37    33    2
    23     6     1    1
    24     3    18    1
    25    35    38    1
    26    35    34    1
    27    33     1    1
    28    33    34    1
    29     1    17    1
    30     1    25    1
    31    18    17    2
    32    18    19    1
    33    34     5    2
    34    22    19    1
    35    17    21    1
    36    19    20    2
    37     5    29    1
    38    25    29   ar
    39    25    26   ar
    40    21    20    1
    41    21     4    2
    42    20    23    1
    43    29    28   ar
    44    26     4    1
    45    26    27   ar
    46    23    24    1
    47    28    27   ar
    48    28    31    1
    49    27    30    1
    50    31    32    1
