@<TRIPOS>MOLECULE
1jmz_PND_G_1.pdb
 11 11 0 0 0
SMALL
GASTEIGER

@<TRIPOS>ATOM
      1  N1       121.9580   43.6540   34.5870 N.3   101  PND101      0.0043
      2  C1       122.7990   45.2550   36.4110 C.ar  101  PND101      0.0869
      3  N2       122.4150   44.8850   35.0190 N.pl3 101  PND101     -0.1296
      4  C2       122.7400   44.2690   37.3930 C.ar  101  PND101      0.0195
      5  C3       123.1230   44.4740   38.7270 C.ar  101  PND101      0.0254
      6  C4       123.5910   45.7800   38.9970 C.ar  101  PND101      0.1430
      7  N4       123.9330   45.9870   40.0830 N.pl3 101  PND101      0.0577
      8  O3       124.3980   47.3420   40.2370 O.2   101  PND101     -0.1261
      9  O4       123.8780   44.9610   41.0900 O.2   101  PND101     -0.1261
     10  C5       123.6490   46.7760   38.0190 C.ar  101  PND101      0.0254
     11  C6       123.2540   46.5340   36.6980 C.ar  101  PND101      0.0195
@<TRIPOS>BOND
     1     1     3    1
     2     3     2    1
     3     2    11   ar
     4     2     4   ar
     5    11    10   ar
     6     4     5   ar
     7    10     6   ar
     8     5     6   ar
     9     6     7    1
    10     7     8    2
    11     7     9    2
