@<TRIPOS>MOLECULE
1jn0_NDP_A_1.pdb
 48 52 0 0 0
SMALL
GASTEIGER

@<TRIPOS>ATOM
      1  PA        94.0910  124.5240   97.1910 P.3   1335  NDP1335     0.2189
      2  O1A       93.1800  125.6580   96.8560 O.3   1335  NDP1335    -0.4371
      3  O2A       95.2930  124.2580   96.3570 O.2   1335  NDP1335    -0.5170
      4  O5B       93.1830  123.2160   97.4090 O.3   1335  NDP1335    -0.3112
      5  C5B       91.7880  123.3760   97.6740 C.3   1335  NDP1335     0.1813
      6  C4B       91.0390  122.5430   96.6680 C.3   1335  NDP1335     0.1820
      7  O4B       89.6750  122.3520   97.0690 O.3   1335  NDP1335    -0.3136
      8  C3B       91.0630  123.1520   95.2740 C.3   1335  NDP1335     0.2157
      9  O3B       91.5920  122.2590   94.2890 O.3   1335  NDP1335    -0.2175
     10  C2B       89.5890  123.2560   94.9850 C.3   1335  NDP1335     0.2314
     11  O2B       89.2970  123.0240   93.6110 O.3   1335  NDP1335    -0.2630
     12  C1B       89.0760  122.1230   95.8160 C.3   1335  NDP1335     0.3158
     13  N9A       87.6440  122.2590   95.9320 N.pl3 1335  NDP1335    -0.1439
     14  C8A       87.0180  123.3420   96.4250 C.3   1335  NDP1335     0.3377
     15  N7A       85.7350  123.0550   96.6470 N.2   1335  NDP1335    -0.2095
     16  C5A       85.6230  121.7970   96.2300 C.2   1335  NDP1335     0.2526
     17  C6A       84.4460  121.0560   96.2730 C.2   1335  NDP1335     0.4393
     18  N6A       83.3570  121.5690   96.8440 N.pl3 1335  NDP1335     0.2180
     19  N1A       84.5030  119.7950   95.7790 N.2   1335  NDP1335     0.0021
     20  C2A       85.6320  119.3050   95.2600 C.3   1335  NDP1335     0.5254
     21  N3A       86.7720  120.0050   95.2460 N.2   1335  NDP1335    -0.0055
     22  C4A       86.7930  121.2650   95.7410 C.2   1335  NDP1335     0.3518
     23  O3        94.6860  124.6720   98.6710 O.3   1335  NDP1335    -0.2703
     24  PN        95.4580  123.7550   99.7220 P.3   1335  NDP1335     0.2189
     25  O1N       96.7080  124.3440  100.2140 O.3   1335  NDP1335    -0.4371
     26  O2N       95.5250  122.4010   99.1120 O.2   1335  NDP1335    -0.5170
     27  O5D       94.5790  123.8160  101.0480 O.3   1335  NDP1335    -0.3112
     28  C5D       93.3900  123.0610  101.2260 C.3   1335  NDP1335     0.1813
     29  C4D       93.2540  122.8190  102.6980 C.3   1335  NDP1335     0.1799
     30  O4D       94.4290  122.2370  103.2810 O.3   1335  NDP1335    -0.3327
     31  C3D       93.0160  124.0630  103.4970 C.3   1335  NDP1335     0.2158
     32  O3D       92.2160  123.5870  104.5970 O.3   1335  NDP1335    -0.2175
     33  C2D       94.4240  124.4880  103.9430 C.3   1335  NDP1335     0.2309
     34  O2D       94.4930  125.3880  105.0800 O.3   1335  NDP1335    -0.2158
     35  C1D       94.9780  123.1100  104.2570 C.3   1335  NDP1335     0.2263
     36  N1N       96.4550  123.0330  104.2930 N.pl3 1335  NDP1335    -0.2787
     37  C2N       97.2980  123.6000  103.3040 C.3   1335  NDP1335     0.1244
     38  C3N       98.6970  123.4590  103.4040 C.2   1335  NDP1335     0.0544
     39  C7N       99.7080  124.0450  102.3910 C.2   1335  NDP1335     0.2818
     40  O7N      100.8260  124.4040  102.7410 O.2   1335  NDP1335    -0.2670
     41  N7N       99.2790  124.3560  101.1900 N.am  1335  NDP1335    -0.0839
     42  C4N       99.2250  122.7060  104.4430 C.2   1335  NDP1335     0.0033
     43  C5N       98.3860  122.1710  105.4160 C.2   1335  NDP1335     0.0157
     44  C6N       97.0010  122.3490  105.3770 C.2   1335  NDP1335     0.0633
     45  P2B       89.3460  124.2910   92.6480 P.3   1335  NDP1335     0.5328
     46  O1X       88.5140  125.5410   93.2780 O.3   1335  NDP1335    -0.1145
     47  O2X       90.7200  124.8350   92.5750 O.3   1335  NDP1335    -0.1145
     48  O3X       88.5890  123.7240   91.3500 O.2   1335  NDP1335    -0.2224
@<TRIPOS>BOND
     1    48    45    2
     2    47    45    1
     3    45    46    1
     4    45    11    1
     5    11    10    1
     6     9     8    1
     7    10     8    1
     8    10    12    1
     9    21    20    1
    10    21    22    2
    11    20    19    1
    12     8     6    1
    13    22    13    1
    14    22    16    1
    15    19    17    2
    16    12    13    1
    17    12     7    1
    18    13    14    1
    19    16    17    1
    20    16    15    2
    21    17    18    1
    22     3     1    2
    23    14    15    1
    24     6     7    1
    25     6     5    1
    26     2     1    1
    27     1     4    1
    28     1    23    1
    29     4     5    1
    30    23    24    1
    31    26    24    2
    32    24    25    1
    33    24    27    1
    34    27    28    1
    35    41    39   am
    36    28    29    1
    37    39    40    2
    38    39    38    1
    39    29    30    1
    40    29    31    1
    41    30    35    1
    42    37    38    1
    43    37    36    1
    44    38    42    2
    45    31    33    1
    46    31    32    1
    47    33    35    1
    48    33    34    1
    49    35    36    1
    50    36    44    1
    51    42    43    1
    52    44    43    2
