@<TRIPOS>MOLECULE
1jn2_SFP_P_1.pdb
 33 35 0 0 0
SMALL
GASTEIGER

@<TRIPOS>ATOM
      1  C2        26.7480   27.5660   27.2040 C.3   1001  SFP1001     0.0510
      2  C2A       25.9960   27.5080   28.3980 C.2   1001  SFP1001     0.0695
      3  N2B       26.8860   27.4290   29.4890 N.pl3 1001  SFP1001    -0.1326
      4  CA        24.6030   27.4930   28.4970 C.2   1001  SFP1001     0.0422
      5  C4C       23.8700   27.4580   29.6670 C.2   1001  SFP1001     0.1324
      6  C3        22.4860   27.4170   29.7550 C.2   1001  SFP1001     0.0347
      7  C4        22.1440   27.4230   31.0570 C.2   1001  SFP1001     0.0347
      8  C4A       23.3260   27.4580   31.8240 C.2   1001  SFP1001     0.1324
      9  N4B       24.3970   27.4700   30.9590 N.2   1001  SFP1001    -0.4018
     10  CB        23.4050   27.4760   33.2090 C.2   1001  SFP1001     0.0422
     11  C6C       24.6030   27.4460   33.9590 C.2   1001  SFP1001     0.0695
     12  C5        24.7010   27.4550   35.3610 C.3   1001  SFP1001     0.0510
     13  N6B       25.9070   27.3550   33.4250 N.pl3 1001  SFP1001    -0.1326
     14  C15       21.0460   28.4630   33.6140 C.ar  1001  SFP1001     0.0014
     15  C16       19.8510   28.4480   34.2740 C.ar  1001  SFP1001     0.0189
     16  C17       19.6210   27.5040   35.2930 C.ar  1001  SFP1001     0.1123
     17  C18       20.5910   26.5480   35.6600 C.ar  1001  SFP1001     0.0189
     18  C19       21.8030   26.5300   35.0020 C.ar  1001  SFP1001     0.0014
     19  C20       22.0530   27.4960   33.9640 C.ar  1001  SFP1001     0.0035
     20  C27       23.9640   26.3540   26.3180 C.ar  1001  SFP1001     0.0014
     21  C28       23.7750   27.4790   27.1880 C.ar  1001  SFP1001     0.0035
     22  C29       22.8410   28.5110   26.8480 C.ar  1001  SFP1001     0.0014
     23  C30       22.1130   28.3970   25.6420 C.ar  1001  SFP1001     0.0189
     24  C31       22.3190   27.2950   24.8070 C.ar  1001  SFP1001     0.1123
     25  C32       23.2370   26.2690   25.1250 C.ar  1001  SFP1001     0.0189
     26  S2        18.0950   27.4980   36.1410 S.3   1001  SFP1001     0.0421
     27  O5        17.2430   28.5390   35.6510 O.3   1001  SFP1001    -0.0650
     28  O6        18.4080   27.6960   37.5150 O.3   1001  SFP1001    -0.0650
     29  O7        17.4300   26.1250   35.9280 O.3   1001  SFP1001    -0.0650
     30  S4        21.4420   27.1510   23.3080 S.3   1001  SFP1001     0.0421
     31  O11       22.3500   27.4330   22.2650 O.3   1001  SFP1001    -0.0650
     32  O12       20.3390   28.0710   23.2660 O.3   1001  SFP1001    -0.0650
     33  O13       20.9530   25.7200   23.2290 O.3   1001  SFP1001    -0.0650
@<TRIPOS>BOND
     1    31    30    1
     2    33    30    1
     3    32    30    1
     4    30    24    1
     5    24    25   ar
     6    24    23   ar
     7    25    20   ar
     8    23    22   ar
     9    20    21   ar
    10    22    21   ar
    11    21     4    1
    12     1     2    1
    13     2     4    2
    14     2     3    1
    15     4     5    1
    16     5     6    1
    17     5     9    2
    18     6     7    2
    19     9     8    2
    20     7     8    1
    21     8    10    1
    22    10    11    2
    23    10    19    1
    24    13    11    1
    25    14    19   ar
    26    14    15   ar
    27    11    12    1
    28    19    18   ar
    29    15    16   ar
    30    18    17   ar
    31    16    17   ar
    32    16    26    1
    33    27    26    1
    34    29    26    1
    35    26    28    1
