@<TRIPOS>MOLECULE
1jn4_139_A_1.pdb
 42 46 0 0 0
SMALL
GASTEIGER

@<TRIPOS>ATOM
      1  PA        38.2920   -4.5690   21.3040 P.3   901  139901      0.2189
      2  O1A       39.5180   -5.4320   21.6050 O.3   901  139901     -0.4371
      3  O2A       38.6310   -3.1840   20.8300 O.2   901  139901     -0.5170
      4  O5D       37.3170   -5.2440   20.2290 O.3   901  139901     -0.3112
      5  PB        36.6710   -3.1780   23.3400 P.3   901  139901      0.2188
      6  O1B       35.7040   -2.6350   22.3290 O.2   901  139901     -0.5170
      7  O2B       36.1520   -3.7130   24.6280 O.3   901  139901     -0.4371
      8  O3A       37.4460   -4.3870   22.6440 O.3   901  139901     -0.2703
      9  N9A       36.2080   -6.0370   15.8320 N.pl3 901  139901     -0.1439
     10  C4A       36.7040   -4.7590   15.6500 C.2   901  139901      0.3518
     11  N3A       37.6880   -4.1340   16.3470 N.2   901  139901     -0.0055
     12  C2A       37.8970   -2.8860   15.8740 C.3   901  139901      0.5254
     13  N1A       37.2730   -2.2500   14.8570 N.2   901  139901      0.0021
     14  C6A       36.3030   -2.9170   14.1700 C.2   901  139901      0.4393
     15  N6A       35.7030   -2.3140   13.1430 N.pl3 901  139901      0.2180
     16  C5A       35.9840   -4.2330   14.5780 C.2   901  139901      0.2526
     17  N7A       35.0540   -5.1480   14.1080 N.2   901  139901     -0.2095
     18  C8A       35.2170   -6.1880   14.8880 C.3   901  139901      0.3377
     19  C5D       36.9230   -6.6140   20.3560 C.3   901  139901      0.1813
     20  C4D       37.0740   -7.3420   19.0340 C.3   901  139901      0.1821
     21  O4D       36.1360   -6.8020   18.0740 O.3   901  139901     -0.3135
     22  C1D       36.6090   -7.0940   16.7740 C.3   901  139901      0.3186
     23  C2D       38.0860   -7.5090   16.8650 C.3   901  139901      0.2570
     24  O2D       38.2470   -8.8820   16.5280 O.3   901  139901     -0.2130
     25  C3D       38.4210   -7.2040   18.3290 C.3   901  139901      0.2184
     26  O3D       39.4730   -8.0630   18.8260 O.3   901  139901     -0.2174
     27  O5B       39.5470    1.6130   21.9190 O.3   901  139901     -0.2176
     28  C5B       40.1740    0.5400   22.6430 C.3   901  139901      0.2140
     29  C4B       39.1940   -0.0860   23.6090 C.3   901  139901      0.1774
     30  O4B       38.5010    0.9770   24.3210 O.3   901  139901     -0.3339
     31  C1B       37.0970    0.8160   24.1780 C.3   901  139901      0.2089
     32  C2B       36.9050   -0.0220   22.9250 C.3   901  139901      0.0845
     33  C3B       38.1070   -0.9510   22.9570 C.3   901  139901      0.1557
     34  O3B       37.8550   -2.1310   23.7490 O.3   901  139901     -0.3137
     35  N1U       36.4630    2.1460   24.0960 N.am  901  139901     -0.1790
     36  C6U       36.9770    3.1570   23.2860 C.2   901  139901      0.0928
     37  C2U       35.2930    2.3490   24.8400 C.1   901  139901      0.2844
     38  O2U       34.8100    1.5030   25.5720 O.2   901  139901     -0.1918
     39  N3U       34.7060    3.5830   24.6720 N.2   901  139901     -0.2452
     40  C4U       35.1330    4.6110   23.8430 C.1   901  139901      0.2182
     41  O4U       34.3720    5.5600   23.6340 O.2   901  139901     -0.2085
     42  C5U       36.3680    4.3450   23.1350 C.2   901  139901      0.1242
@<TRIPOS>BOND
     1    15    14    1
     2    17    16    2
     3    17    18    1
     4    14    16    1
     5    14    13    2
     6    16    10    1
     7    13    12    1
     8    18     9    1
     9    10     9    1
    10    10    11    2
    11     9    22    1
    12    12    11    1
    13    24    23    1
    14    22    23    1
    15    22    21    1
    16    23    25    1
    17    21    20    1
    18    25    26    1
    19    25    20    1
    20    20    19    1
    21     4    19    1
    22     4     1    1
    23     3     1    2
    24     1     2    1
    25     1     8    1
    26    27    28    1
    27     6     5    2
    28    28    29    1
    29     8     5    1
    30    32    33    1
    31    32    31    1
    32    33    29    1
    33    33    34    1
    34    42    36    2
    35    42    40    1
    36    36    35    1
    37     5    34    1
    38     5     7    1
    39    29    30    1
    40    41    40    2
    41    40    39    2
    42    35    31    1
    43    35    37   am
    44    31    30    1
    45    39    37    2
    46    37    38    2
