@<TRIPOS>MOLECULE
1jn5_III_C_1.pdb
 39 40 0 0 0
SMALL
GASTEIGER

@<TRIPOS>ATOM
      1  N         23.4820   -7.3110   45.5600 N.3     3  PRO3       -0.2102
      2  CA        23.4500   -5.8480   45.7230 C.3     3  PRO3        0.1504
      3  C         22.4160   -5.0620   44.9630 C.2     3  PRO3        0.2576
      4  O         22.7690   -4.3720   44.0070 O.2     3  PRO3       -0.2718
      5  CB        24.8150   -5.3800   45.2320 C.3     3  PRO3        0.0282
      6  CG        25.4910   -6.6270   44.6530 C.3     3  PRO3        0.0208
      7  CD        24.4990   -7.7450   44.5830 C.3     3  PRO3        0.0893
      8  N         21.1780   -5.1240   45.4180 N.am    4  GLY4       -0.1943
      9  CA        20.0660   -4.4160   44.8150 C.3     4  GLY4        0.2014
     10  C         19.8940   -3.2250   45.7170 C.2     4  GLY4        0.2639
     11  O         20.0900   -3.3540   46.9160 O.2     4  GLY4       -0.2714
     12  N         19.5600   -2.0660   45.1700 N.am    5  PHE5       -0.1959
     13  CA        19.4080   -0.9130   46.0320 C.3     5  PHE5        0.1771
     14  C         18.2160   -1.1610   46.9410 C.2     5  PHE5        0.2620
     15  O         17.0920   -1.3070   46.4750 O.2     5  PHE5       -0.2715
     16  CB        19.1950    0.3820   45.2210 C.3     5  PHE5        0.0574
     17  CG        19.2290    1.6300   46.0640 C.ar    5  PHE5       -0.0200
     18  CD1       20.3700    1.9580   46.7770 C.ar    5  PHE5       -0.0042
     19  CD2       18.1180    2.4650   46.1580 C.ar    5  PHE5       -0.0042
     20  CE1       20.4030    3.0840   47.5850 C.ar    5  PHE5       -0.0003
     21  CE2       18.1440    3.5990   46.9690 C.ar    5  PHE5       -0.0003
     22  CZ        19.2880    3.9110   47.6760 C.ar    5  PHE5       -0.0000
     23  N         18.4690   -1.2570   48.2440 N.am    6  GLY6       -0.1940
     24  CA        17.3840   -1.4660   49.2080 C.3     6  GLY6        0.2014
     25  C         17.2560   -2.8300   49.8860 C.2     6  GLY6        0.2639
     26  O         17.0310   -2.9140   51.1000 O.2     6  GLY6       -0.2714
     27  N         17.4040   -3.8900   49.1120 N.am    7  GLN7       -0.1963
     28  CA        17.3160   -5.2590   49.6060 C.3     7  GLN7        0.1733
     29  C         18.4130   -5.8990   50.4900 C.2     7  GLN7        0.2616
     30  O         19.5310   -6.1430   50.0210 O.2     7  GLN7       -0.2715
     31  CB        17.1280   -6.0860   48.3460 C.3     7  GLN7        0.0408
     32  CG        16.0290   -5.5120   47.4350 C.3     7  GLN7        0.0908
     33  CD        16.3120   -5.6300   45.9360 C.2     7  GLN7        0.2608
     34  OE1       17.3380   -6.1720   45.5200 O.2     7  GLN7       -0.2717
     35  NE2       15.3920   -5.1080   45.1200 N.am    7  GLN7       -0.0878
     36  N         18.0960   -6.2020   51.7500 N.am    8  GLY8       -0.1955
     37  CA        19.0610   -6.8290   52.6570 C.3     8  GLY8        0.1869
     38  C         18.5690   -6.9020   54.0860 C.2     8  GLY8        0.2309
     39  O         19.2670   -6.4850   55.0130 O.2     8  GLY8       -0.2863
@<TRIPOS>BOND
     1     4     3    2
     2     7     6    1
     3     7     1    1
     4     6     5    1
     5     9     8    1
     6     9    10    1
     7     3     8   am
     8     3     2    1
     9    35    33   am
    10    12    10   am
    11    12    13    1
    12    16    13    1
    13    16    17    1
    14     5     2    1
    15    34    33    2
    16     1     2    1
    17    10    11    2
    18    33    32    1
    19    13    14    1
    20    17    19   ar
    21    17    18   ar
    22    19    21   ar
    23    15    14    2
    24    18    20   ar
    25    14    23   am
    26    21    22   ar
    27    32    31    1
    28    20    22   ar
    29    23    24    1
    30    31    28    1
    31    27    28    1
    32    27    25   am
    33    24    25    1
    34    28    29    1
    35    25    26    2
    36    30    29    2
    37    29    36   am
    38    36    37    1
    39    37    38    1
    40    38    39    2
