@<TRIPOS>MOLECULE
1jne_MAN_A_1.pdb
 11 11 0 0 0
SMALL
GASTEIGER

@<TRIPOS>ATOM
      1  C1        31.7580   -4.5140   31.4700 C.3   3103  MAN3103     0.1777
      2  C2        31.1900   -4.9250   32.8610 C.3   3103  MAN3103     0.2141
      3  C3        29.8740   -5.7340   32.6980 C.3   3103  MAN3103     0.2173
      4  C4        28.9040   -4.8810   31.9020 C.3   3103  MAN3103     0.2142
      5  C5        29.5060   -4.5060   30.5540 C.3   3103  MAN3103     0.1810
      6  C6        28.6020   -3.4770   29.9040 C.3   3103  MAN3103     0.2141
      7  O2        30.9290   -3.7230   33.5770 O.3   3103  MAN3103    -0.2176
      8  O3        29.3060   -6.0060   33.9870 O.3   3103  MAN3103    -0.2175
      9  O4        27.6450   -5.5090   31.7640 O.3   3103  MAN3103    -0.2176
     10  O5        30.7660   -3.8230   30.7150 O.3   3103  MAN3103    -0.3481
     11  O6        29.3300   -2.2780   29.6980 O.3   3103  MAN3103    -0.2176
@<TRIPOS>BOND
     1    11     6    1
     2     6     5    1
     3     5    10    1
     4     5     4    1
     5    10     1    1
     6     1     2    1
     7     9     4    1
     8     4     3    1
     9     3     2    1
    10     3     8    1
    11     2     7    1
