@<TRIPOS>MOLECULE
1jnh_ECO_B_1.pdb
 26 29 0 0 0
SMALL
GASTEIGER

@<TRIPOS>ATOM
      1  C1        46.9070   43.7960   -3.1380 C.ar  351  ECO351     -0.0010
      2  C2        47.6720   44.6540   -2.2960 C.ar  351  ECO351      0.0417
      3  C3        47.4790   46.0710   -2.3650 C.ar  351  ECO351      0.1958
      4  O3        48.2310   46.8900   -1.5400 O.3   351  ECO351     -0.2866
      5  C4        46.5260   46.6400   -3.2720 C.ar  351  ECO351      0.0430
      6  C5        45.7380   45.7910   -4.1420 C.ar  351  ECO351      0.0159
      7  C6        44.7310   46.4570   -5.1120 C.2   351  ECO351      0.0968
      8  C7        43.9560   45.4160   -6.0260 C.3   351  ECO351      0.0494
      9  C8        43.6940   44.0460   -5.3380 C.3   351  ECO351      0.0101
     10  C9        45.1020   43.3770   -4.9790 C.3   351  ECO351      0.0227
     11  C10       45.9310   44.3200   -4.0730 C.ar  351  ECO351     -0.0210
     12  C11       44.8270   41.9840   -4.2830 C.3   351  ECO351      0.0044
     13  C12       43.9920   40.9960   -5.1310 C.3   351  ECO351      0.0028
     14  C13       42.6300   41.6160   -5.5150 C.3   351  ECO351      0.0282
     15  C14       42.8970   43.0190   -6.2660 C.3   351  ECO351      0.0031
     16  C15       41.4900   43.3290   -6.7840 C.3   351  ECO351      0.0027
     17  C16       41.0810   41.9560   -7.4480 C.3   351  ECO351      0.0329
     18  C17       41.8480   40.8590   -6.6260 C.3   351  ECO351      0.1519
     19  O17       40.9120   39.8560   -6.1680 O.3   351  ECO351     -0.2232
     20  C18       41.7040   41.7160   -4.2160 C.3   351  ECO351      0.0025
     21  N19       45.0850   47.7380   -5.4810 N.2   351  ECO351     -0.0872
     22  O19       44.9610   48.5090   -6.7390 O.2   351  ECO351     -0.3689
     23  C19       44.4420   47.9770   -7.9290 C.3   351  ECO351      0.3374
     24  C20       45.4010   47.8670   -9.1330 C.3   351  ECO351      0.4716
     25  O20       46.0980   48.9020   -9.2790 O.2   351  ECO351     -0.2626
     26  O21       44.8460   47.4100  -10.1520 O.2   351  ECO351     -0.2626
@<TRIPOS>BOND
     1    26    24    1
     2    25    24    1
     3    24    23    1
     4    23    22    1
     5    17    16    1
     6    17    18    1
     7    16    15    1
     8    22    21    1
     9    18    19    1
    10    18    14    1
    11    15    14    1
    12    15     9    1
    13     8     9    1
    14     8     7    1
    15    14    13    1
    16    14    20    1
    17    21     7    2
    18     9    10    1
    19    13    12    1
    20     7     6    1
    21    10    12    1
    22    10    11    1
    23     6    11   ar
    24     6     5   ar
    25    11     1   ar
    26     5     3   ar
    27     1     2   ar
    28     3     2   ar
    29     3     4    1
