@<TRIPOS>MOLECULE
1jni_HEM_A_1.pdb
 43 50 0 0 0
SMALL
GASTEIGER

@<TRIPOS>ATOM
      1 FE          9.3480   26.1630    3.7610 Fe    125  HEM125      0.0000
      2  CHA        7.1840   28.7980    3.7050 C.2   125  HEM125      0.0000
      3  CHB       11.3250   27.7710    6.0090 C.2   125  HEM125      0.0000
      4  CHC       11.1910   23.2820    4.2100 C.2   125  HEM125      0.0000
      5  CHD        7.7150   24.7190    1.1370 C.2   125  HEM125      0.0000
      6  NA         9.3120   27.9280    4.6210 N.2   125  HEM125      0.0000
      7  C1A        8.2890   28.8730    4.5420 C.2   125  HEM125      0.0000
      8  C2A        8.5620   30.0370    5.4050 C.2   125  HEM125      0.0000
      9  C3A        9.7600   29.7510    6.0110 C.2   125  HEM125      0.0000
     10  C4A       10.1920   28.4510    5.5100 C.2   125  HEM125      0.0000
     11  CMA       10.5070   30.5620    7.0690 C.3   125  HEM125      0.0000
     12  CAA        7.6120   31.2200    5.6780 C.3   125  HEM125      0.0000
     13  CBA        6.6930   30.9990    6.9120 C.3   125  HEM125      0.0000
     14  CGA        5.8320   29.7940    6.6360 C.2   125  HEM125      0.0000
     15  O1A        4.8640   29.9540    5.8580 O.co2 125  HEM125      0.0000
     16  O2A        6.0740   28.6390    7.1280 O.co2 125  HEM125      0.0000
     17  NB        10.9110   25.6510    4.8580 N.ar  125  HEM125      0.0000
     18  C1B       11.6460   26.4680    5.6860 C.ar  125  HEM125      0.0000
     19  C2B       12.7130   25.7170    6.3740 C.ar  125  HEM125      0.0000
     20  C3B       12.5920   24.4080    5.9620 C.ar  125  HEM125      0.0000
     21  C4B       11.4640   24.3960    5.0210 C.ar  125  HEM125      0.0000
     22  CMB       13.7570   26.3410    7.3300 C.3   125  HEM125      0.0000
     23  CAB       13.3030   23.2710    6.4390 C.3   125  HEM125      0.0000
     24  CBB       13.2550   22.9810    7.9070 C.3   125  HEM125      0.0000
     25  NC         9.4430   24.3850    2.8330 N.2   125  HEM125      0.0000
     26  C1C       10.2580   23.3100    3.1630 C.2   125  HEM125      0.0000
     27  C2C       10.1470   22.2580    2.1680 C.2   125  HEM125      0.0000
     28  C3C        9.2260   22.6740    1.2720 C.2   125  HEM125      0.0000
     29  C4C        8.7200   23.9640    1.7440 C.2   125  HEM125      0.0000
     30  CMC       11.0200   20.9850    2.1370 C.3   125  HEM125      0.0000
     31  CAC        8.7670   22.0400    0.0830 C.3   125  HEM125      0.0000
     32  CBC        8.0340   20.7630    0.2410 C.3   125  HEM125      0.0000
     33  ND         7.7950   26.6450    2.6360 N.ar  125  HEM125      0.0000
     34  C1D        7.2030   25.9160    1.6140 C.ar  125  HEM125      0.0000
     35  C2D        6.0630   26.6170    1.0970 C.ar  125  HEM125      0.0000
     36  C3D        5.9150   27.7660    1.8100 C.ar  125  HEM125      0.0000
     37  C4D        7.0120   27.7700    2.7610 C.ar  125  HEM125      0.0000
     38  CMD        5.1810   26.1910   -0.0780 C.3   125  HEM125      0.0000
     39  CAD        4.7370   28.7420    1.6120 C.3   125  HEM125      0.0000
     40  CBD        3.7830   28.8730    2.7460 C.3   125  HEM125      0.0000
     41  CGD        3.5250   27.6720    3.6280 C.2   125  HEM125      0.0000
     42  O1D        3.7430   27.8100    4.8410 O.co2 125  HEM125      0.0000
     43  O2D        3.1200   26.6180    3.1410 O.co2 125  HEM125      0.0000
@<TRIPOS>BOND
     1    38    35    1
     2    31    32    1
     3    31    28    1
     4    35    34   ar
     5    35    36   ar
     6     5    34    2
     7     5    29    1
     8    28    29    1
     9    28    27    2
    10    39    36    1
    11    39    40    1
    12    34    33   ar
    13    29    25    2
    14    36    37   ar
    15    30    27    1
    16    27    26    1
    17    33    37   ar
    18    33     1    1
    19    40    41    1
    20    37     2    2
    21    25    26    1
    22    25     1    1
    23    43    41   ar
    24    26     4    2
    25    41    42   ar
    26     2     7    1
    27     1     6    1
    28     1    17    1
    29     4    21    1
    30     7     6    2
    31     7     8    1
    32     6    10    1
    33    17    21   ar
    34    17    18   ar
    35    21    20   ar
    36     8    12    1
    37     8     9    2
    38    10     3    2
    39    10     9    1
    40    12    13    1
    41    18     3    1
    42    18    19   ar
    43    15    14   ar
    44    20    19   ar
    45    20    23    1
    46     9    11    1
    47    19    22    1
    48    23    24    1
    49    14    13    1
    50    14    16   ar
