@<TRIPOS>MOLECULE
1jnk_ANP_A_1.pdb
 31 33 0 0 0
SMALL
GASTEIGER

@<TRIPOS>ATOM
      1  PG        23.8080   17.9530   28.3500 P.3   1001  ANP1001     0.4884
      2  O1G       25.3210   17.8220   27.9600 O.3   1001  ANP1001    -0.1240
      3  O2G       22.8350   17.5870   27.1980 O.2   1001  ANP1001    -0.2331
      4  O3G       23.6380   19.4690   28.7500 O.3   1001  ANP1001    -0.1240
      5  PB        23.0320   17.1720   31.0150 P.3   1001  ANP1001     0.4669
      6  O1B       23.9840   18.0460   31.8640 O.3   1001  ANP1001    -0.1253
      7  O2B       21.5580   17.6540   31.0950 O.2   1001  ANP1001    -0.2351
      8  N3B       23.5100   16.9960   29.5340 N.3   1001  ANP1001    -0.0163
      9  PA        22.2960   14.5840   31.1430 P.3   1001  ANP1001     0.2220
     10  O1A       20.9690   14.4660   31.8230 O.3   1001  ANP1001    -0.4370
     11  O2A       21.7540   14.7390   29.7430 O.2   1001  ANP1001    -0.5170
     12  O3A       23.2080   15.7510   31.6490 O.3   1001  ANP1001    -0.2360
     13  O5'       23.1170   13.3030   31.3210 O.3   1001  ANP1001    -0.3111
     14  C5'       24.3210   13.0450   30.5570 C.3   1001  ANP1001     0.1813
     15  C4'       24.4180   11.5390   30.2790 C.3   1001  ANP1001     0.1821
     16  O4'       24.0900   10.7830   31.4640 O.3   1001  ANP1001    -0.3135
     17  C3'       23.3990   11.1090   29.1800 C.3   1001  ANP1001     0.2184
     18  O3'       23.9980   11.1370   27.8740 O.3   1001  ANP1001    -0.2174
     19  C2'       23.1350    9.6320   29.5370 C.3   1001  ANP1001     0.2570
     20  O2'       24.2240    8.8020   29.0630 O.3   1001  ANP1001    -0.2130
     21  C1'       23.2060    9.7470   31.0790 C.3   1001  ANP1001     0.3186
     22  N9        22.0070    9.6110   31.8440 N.pl3 1001  ANP1001    -0.1439
     23  C8        21.2170   10.6870   32.1550 C.3   1001  ANP1001     0.3377
     24  N7        20.0240   10.2350   32.6130 N.2   1001  ANP1001    -0.2095
     25  C5        20.0470    8.8480   32.6060 C.2   1001  ANP1001     0.2526
     26  C6        19.1890    7.7950   32.9490 C.2   1001  ANP1001     0.4393
     27  N6        17.9320    8.0330   33.5180 N.pl3 1001  ANP1001     0.2180
     28  N1        19.5880    6.5170   32.7770 N.2   1001  ANP1001     0.0021
     29  C2        20.7860    6.1870   32.3010 C.3   1001  ANP1001     0.5254
     30  N3        21.7130    7.0620   31.9490 N.2   1001  ANP1001    -0.0055
     31  C4        21.3470    8.4070   32.1000 C.2   1001  ANP1001     0.3518
@<TRIPOS>BOND
     1     3     1    2
     2    18    17    1
     3     2     1    1
     4     1     4    1
     5     1     8    1
     6    20    19    1
     7    17    19    1
     8    17    15    1
     9     8     5    1
    10    19    21    1
    11    11     9    2
    12    15    14    1
    13    15    16    1
    14    14    13    1
    15     5     7    2
    16     5    12    1
    17     5     6    1
    18    21    16    1
    19    21    22    1
    20     9    13    1
    21     9    12    1
    22     9    10    1
    23    22    31    1
    24    22    23    1
    25    30    31    2
    26    30    29    1
    27    31    25    1
    28    23    24    1
    29    29    28    1
    30    25    24    2
    31    25    26    1
    32    28    26    2
    33    26    27    1
