@<TRIPOS>MOLECULE
1jnn_EST_H_1.pdb
 20 23 0 0 0
SMALL
GASTEIGER

@<TRIPOS>ATOM
      1  C1        37.6390   37.2150   28.2600 C.ar  350  EST350     -0.0013
      2  C2        36.9690   36.3760   27.3440 C.ar  350  EST350      0.0417
      3  C3        37.5690   35.1690   26.9350 C.ar  350  EST350      0.1954
      4  O3        36.8940   34.3660   26.0400 O.3   350  EST350     -0.2866
      5  C4        38.8410   34.7840   27.4370 C.ar  350  EST350      0.0375
      6  C5        39.5380   35.6220   28.3670 C.ar  350  EST350     -0.0230
      7  C6        40.9060   35.1900   28.8940 C.3   350  EST350      0.0261
      8  C7        41.5760   36.1750   29.8940 C.3   350  EST350      0.0050
      9  C8        40.5740   36.9670   30.7450 C.3   350  EST350      0.0044
     10  C9        39.6500   37.7930   29.7900 C.3   350  EST350      0.0220
     11  C10       38.9220   36.8680   28.7920 C.ar  350  EST350     -0.0263
     12  C11       38.6490   38.5910   30.6720 C.3   350  EST350      0.0044
     13  C12       39.3030   39.5350   31.6930 C.3   350  EST350      0.0028
     14  C13       40.2590   38.7690   32.6180 C.3   350  EST350      0.0282
     15  C14       41.2930   37.9710   31.7330 C.3   350  EST350      0.0028
     16  C15       42.2530   37.4860   32.8140 C.3   350  EST350      0.0027
     17  C16       42.5240   38.8120   33.6220 C.3   350  EST350      0.0329
     18  C17       41.2140   39.6460   33.4600 C.3   350  EST350      0.1519
     19  O17       40.6940   40.0030   34.7600 O.3   350  EST350     -0.2232
     20  C18       39.4450   37.8580   33.6060 C.3   350  EST350      0.0025
@<TRIPOS>BOND
     1     4     3    1
     2     3     2   ar
     3     3     5   ar
     4     2     1   ar
     5     5     6   ar
     6     1    11   ar
     7     6    11   ar
     8     6     7    1
     9    11    10    1
    10     7     8    1
    11    10    12    1
    12    10     9    1
    13     8     9    1
    14    12    13    1
    15     9    15    1
    16    13    14    1
    17    15    14    1
    18    15    16    1
    19    14    18    1
    20    14    20    1
    21    16    17    1
    22    18    17    1
    23    18    19    1
