@<TRIPOS>MOLECULE
1jnq_EGT_A_1.pdb
 22 24 0 0 0
SMALL
GASTEIGER

@<TRIPOS>ATOM
      1  O1        21.9960    4.5370   20.0880 O.3   871  EGT871     -0.4722
      2  C2        21.2800    4.4580   21.3100 C.3   871  EGT871      0.2187
      3  C3        20.0180    5.3470   21.0750 C.3   871  EGT871      0.2004
      4  C4        19.1680    4.5750   20.0110 C.3   871  EGT871      0.0697
      5  C5        20.0060    4.5180   18.7390 C.ar  871  EGT871      0.0535
      6  C6        19.4280    4.5220   17.4660 C.ar  871  EGT871      0.1979
      7  C7        20.2280    4.7180   16.3390 C.ar  871  EGT871      0.0839
      8  C8        21.5970    4.8980   16.4780 C.ar  871  EGT871      0.2019
      9  C9        22.1930    4.8650   17.7340 C.ar  871  EGT871      0.0788
     10  C10       21.4150    4.6660   18.8580 C.ar  871  EGT871      0.1413
     11  C11       20.9770    2.9530   21.4330 C.ar  871  EGT871      0.0263
     12  C12       20.2410    2.4680   22.5170 C.ar  871  EGT871      0.0449
     13  C13       19.8690    1.1210   22.5680 C.ar  871  EGT871      0.2373
     14  C14       20.2350    0.2490   21.5540 C.ar  871  EGT871      0.2727
     15  C15       20.9800    0.7250   20.4940 C.ar  871  EGT871      0.2373
     16  C16       21.3360    2.0630   20.4470 C.ar  871  EGT871      0.0449
     17  O17       19.2840    5.5380   22.2630 O.3   871  EGT871     -0.2185
     18  O18       18.0990    4.3050   17.3010 O.3   871  EGT871     -0.2867
     19  O19       22.3440    5.1750   15.3970 O.3   871  EGT871     -0.2864
     20  O20       19.1480    0.6590   23.6030 O.3   871  EGT871     -0.2830
     21  O21       19.8380   -1.0450   21.5810 O.3   871  EGT871     -0.2797
     22  O22       21.4050   -0.1230   19.5260 O.3   871  EGT871     -0.2830
@<TRIPOS>BOND
     1    19     8    1
     2     7     8   ar
     3     7     6   ar
     4     8     9   ar
     5    18     6    1
     6     6     5   ar
     7     9    10   ar
     8     5    10   ar
     9     5     4    1
    10    10     1    1
    11    22    15    1
    12     4     3    1
    13     1     2    1
    14    16    15   ar
    15    16    11   ar
    16    15    14   ar
    17     3     2    1
    18     3    17    1
    19     2    11    1
    20    11    12   ar
    21    14    21    1
    22    14    13   ar
    23    12    13   ar
    24    13    20    1
