@<TRIPOS>MOLECULE
1jnu_FMN_A_1.pdb
 31 33 0 0 0
SMALL
GASTEIGER

@<TRIPOS>ATOM
      1  N1        -5.8860   54.8640   -1.3820 N.2   1033  FMN1033    -0.2940
      2  C2        -5.6130   55.6980   -2.4430 C.1   1033  FMN1033     0.3663
      3  O2        -6.4290   56.4700   -2.8800 O.2   1033  FMN1033    -0.1745
      4  N3        -4.3230   55.6390   -3.0750 N.2   1033  FMN1033    -0.2346
      5  C4        -3.3120   54.8220   -2.6440 C.1   1033  FMN1033     0.2239
      6  O4        -2.2620   54.7420   -3.2490 O.2   1033  FMN1033    -0.2109
      7  C4A       -3.4820   54.1940   -1.2590 C.3   1033  FMN1033     0.2878
      8  N5        -2.7520   52.9400   -1.1540 N.2   1033  FMN1033    -0.2491
      9  C5A       -3.0230   52.0880   -0.0740 C.2   1033  FMN1033     0.0774
     10  C6        -2.0820   51.1330    0.3870 C.2   1033  FMN1033     0.0117
     11  C7        -2.3570   50.2550    1.4560 C.2   1033  FMN1033    -0.0248
     12  C7M       -1.2940   49.2690    1.8840 C.3   1033  FMN1033     0.0307
     13  C8        -3.6400   50.3270    2.0970 C.2   1033  FMN1033    -0.0280
     14  C8M       -4.0540   49.4400    3.2480 C.3   1033  FMN1033     0.0304
     15  C9        -4.5840   51.2680    1.6480 C.2   1033  FMN1033    -0.0052
     16  C9A       -4.3010   52.1580    0.5750 C.3   1033  FMN1033     0.1368
     17  N10       -5.2770   53.1560    0.0800 N.pl3 1033  FMN1033    -0.2737
     18  C10       -4.9760   54.0200   -0.9250 C.2   1033  FMN1033     0.2159
     19  C1'       -6.6280   53.1980    0.6820 C.3   1033  FMN1033     0.1291
     20  C2'       -6.8660   54.2220    1.7700 C.3   1033  FMN1033     0.2044
     21  O2'       -5.8360   54.2900    2.7380 O.3   1033  FMN1033    -0.2185
     22  C3'       -8.1880   53.8760    2.4860 C.3   1033  FMN1033     0.2164
     23  O3'       -8.1740   52.4360    2.7930 O.3   1033  FMN1033    -0.2175
     24  C4'       -9.4220   54.1880    1.6450 C.3   1033  FMN1033     0.2147
     25  O4'       -9.4410   55.6000    1.3150 O.3   1033  FMN1033    -0.2176
     26  C5'      -10.7690   53.8370    2.2900 C.3   1033  FMN1033     0.1892
     27  O5'      -10.7830   54.1700    3.6960 O.3   1033  FMN1033    -0.2674
     28  P        -11.3580   55.5330    4.2630 P.3   1033  FMN1033     0.5327
     29  O1P      -10.6100   56.6710    3.5980 O.2   1033  FMN1033    -0.2224
     30  O2P      -11.2020   55.5390    5.7690 O.3   1033  FMN1033    -0.1145
     31  O3P      -12.8660   55.5000    3.7980 O.3   1033  FMN1033    -0.1145
@<TRIPOS>BOND
     1     6     5    2
     2     4     5    2
     3     4     2    2
     4     3     2    2
     5     5     7    1
     6     2     1    2
     7     1    18    2
     8     7     8    1
     9     7    18    1
    10     8     9    2
    11    18    17    1
    12     9    10    1
    13     9    16    1
    14    17    16    1
    15    17    19    1
    16    10    11    2
    17    16    15    1
    18    19    20    1
    19    25    24    1
    20    11    12    1
    21    11    13    1
    22    24    26    1
    23    24    22    1
    24    15    13    2
    25    20    22    1
    26    20    21    1
    27    13    14    1
    28    26    27    1
    29    22    23    1
    30    29    28    2
    31    27    28    1
    32    31    28    1
    33    28    30    1
