@<TRIPOS>MOLECULE
1jnw_FMN_A_1.pdb
 31 33 0 0 0
SMALL
GASTEIGER

@<TRIPOS>ATOM
      1  N1        48.2140   29.6470   32.7840 N.2   250  FMN250     -0.2890
      2  C2        49.2660   29.0760   32.1560 C.1   250  FMN250      0.3669
      3  O2        49.8130   28.0990   32.5420 O.2   250  FMN250     -0.1744
      4  N3        49.7700   29.6560   30.9130 N.2   250  FMN250     -0.2300
      5  C4        49.2220   30.8130   30.3420 C.1   250  FMN250      0.2513
      6  O4        49.6790   31.2350   29.2780 O.2   250  FMN250     -0.2057
      7  C4A       48.1340   31.4650   31.0330 C.2   250  FMN250      0.2700
      8  N5        47.5740   32.6260   30.6150 N.2   250  FMN250     -0.3878
      9  C5A       46.4770   33.2690   31.2090 C.2   250  FMN250      0.1320
     10  C6        45.9560   34.4980   30.6600 C.2   250  FMN250      0.0250
     11  C7        44.7720   35.0950   31.2060 C.2   250  FMN250     -0.0238
     12  C7M       44.1940   36.4110   30.6250 C.3   250  FMN250      0.0308
     13  C8        44.0620   34.4000   32.3290 C.2   250  FMN250     -0.0280
     14  C8M       42.7590   34.8440   32.8970 C.3   250  FMN250      0.0304
     15  C9        44.6300   33.2280   32.8940 C.2   250  FMN250     -0.0041
     16  C9A       45.8360   32.6410   32.3920 C.3   250  FMN250      0.1497
     17  N10       46.5070   31.4360   32.8670 N.pl3 250  FMN250     -0.2691
     18  C10       47.6070   30.8130   32.2870 C.2   250  FMN250      0.2416
     19  C1'       45.9590   30.7720   34.1160 C.3   250  FMN250      0.1294
     20  C2'       45.0690   29.5350   33.6500 C.3   250  FMN250      0.2044
     21  O2'       43.8350   30.1170   33.3290 O.3   250  FMN250     -0.2185
     22  C3'       44.8850   28.4210   34.6480 C.3   250  FMN250      0.2164
     23  O3'       44.3030   28.9370   35.8520 O.3   250  FMN250     -0.2175
     24  C4'       46.1900   27.6900   35.0030 C.3   250  FMN250      0.2147
     25  O4'       46.9560   27.3990   33.8570 O.3   250  FMN250     -0.2176
     26  C5'       45.9710   26.3490   35.7240 C.3   250  FMN250      0.1892
     27  O5'       44.9840   25.4540   34.8530 O.3   250  FMN250     -0.2674
     28  P         44.9430   23.9180   35.0790 P.3   250  FMN250      0.5327
     29  O1P       43.7390   23.4610   34.2710 O.2   250  FMN250     -0.2224
     30  O2P       46.1090   23.1530   34.6970 O.3   250  FMN250     -0.1145
     31  O3P       44.7670   23.7330   36.5940 O.3   250  FMN250     -0.1145
@<TRIPOS>BOND
     1     6     5    2
     2     5     4    2
     3     5     7    1
     4     8     7    2
     5     8     9    2
     6    12    11    1
     7    10    11    2
     8    10     9    1
     9     4     2    2
    10     7    18    1
    11    11    13    1
    12     9    16    1
    13     2     3    2
    14     2     1    2
    15    18     1    2
    16    18    17    1
    17    13    15    2
    18    13    14    1
    19    16    17    1
    20    16    15    1
    21    17    19    1
    22    21    20    1
    23    20    19    1
    24    20    22    1
    25    25    24    1
    26    29    28    2
    27    22    24    1
    28    22    23    1
    29    30    28    1
    30    27    28    1
    31    27    26    1
    32    24    26    1
    33    28    31    1
