@<TRIPOS>MOLECULE
1jnw_PLP_A_1.pdb
 16 16 0 0 0
SMALL
GASTEIGER

@<TRIPOS>ATOM
      1  N1        51.6790   31.5920   33.2160 N.ar  260  PLP260     -0.2452
      2  C2        50.5420   31.9900   33.9510 C.ar  260  PLP260      0.0982
      3  C2A       50.1460   31.2280   35.2020 C.3   260  PLP260      0.0555
      4  C3        49.7770   33.1000   33.5270 C.ar  260  PLP260      0.2120
      5  O3        48.6750   33.4870   34.2480 O.3   260  PLP260     -0.2852
      6  C4        50.1580   33.8130   32.3460 C.ar  260  PLP260      0.0822
      7  C4A       49.3500   35.0510   31.8430 C.2   260  PLP260      0.2372
      8  O4A       48.3460   35.4300   32.4890 O.2   260  PLP260     -0.2830
      9  C5        51.2930   33.4080   31.6280 C.ar  260  PLP260      0.0333
     10  C6        52.0730   32.2940   32.0560 C.ar  260  PLP260      0.0969
     11  C5A       51.6690   34.2160   30.3960 C.3   260  PLP260      0.1819
     12  O4P       52.8700   33.7810   29.8690 O.3   260  PLP260     -0.2653
     13  P         54.0040   34.8160   30.3650 P.3   260  PLP260      0.5329
     14  O1P       53.6170   36.2440   29.7500 O.2   260  PLP260     -0.2224
     15  O2P       55.4530   34.3420   29.8890 O.3   260  PLP260     -0.1145
     16  O3P       53.9730   34.9530   31.9480 O.3   260  PLP260     -0.1145
@<TRIPOS>BOND
     1    14    13    2
     2    12    13    1
     3    12    11    1
     4    15    13    1
     5    13    16    1
     6    11     9    1
     7     9    10   ar
     8     9     6   ar
     9     7     6    1
    10     7     8    2
    11    10     1   ar
    12     6     4   ar
    13     1     2   ar
    14     4     2   ar
    15     4     5    1
    16     2     3    1
