@<TRIPOS>MOLECULE
1jny_GDP_A_1.pdb
 28 30 0 0 0
SMALL
GASTEIGER

@<TRIPOS>ATOM
      1  PB        40.2800   14.6380    4.3970 P.3   500  GDP500      0.5373
      2  O1B       38.9550   15.3180    4.2610 O.3   500  GDP500     -0.1143
      3  O2B       40.7970   14.4180    5.6890 O.3   500  GDP500     -0.1143
      4  O3B       40.4750   13.4560    3.2790 O.2   500  GDP500     -0.2221
      5  O3A       41.2610   15.7550    3.8660 O.3   500  GDP500     -0.2261
      6  PA        42.7360   16.3140    4.4300 P.3   500  GDP500      0.2231
      7  O1A       43.7840   15.2470    4.4110 O.2   500  GDP500     -0.5169
      8  O2A       42.4350   17.0180    5.7300 O.3   500  GDP500     -0.4370
      9  O5'       43.0830   17.3670    3.3380 O.3   500  GDP500     -0.3111
     10  C5'       43.2020   17.0760    1.9120 C.3   500  GDP500      0.1813
     11  C4'       44.2460   17.8320    1.2340 C.3   500  GDP500      0.1799
     12  O4'       43.8270   19.2710    1.2030 O.3   500  GDP500     -0.3326
     13  C3'       45.6050   17.9050    2.0490 C.3   500  GDP500      0.2158
     14  O3'       46.6380   17.9940    1.0100 O.3   500  GDP500     -0.2175
     15  C2'       45.5520   19.2590    2.8200 C.3   500  GDP500      0.2310
     16  O2'       46.6960   19.9460    3.3260 O.3   500  GDP500     -0.2158
     17  C1'       44.7420   20.2070    1.9090 C.3   500  GDP500      0.2293
     18  N9        43.8910   21.1740    2.6310 N.pl3 500  GDP500     -0.2354
     19  C8        42.9350   20.7270    3.6890 C.3   500  GDP500      0.2246
     20  N7        42.3570   22.0020    3.8370 N.2   500  GDP500     -0.2322
     21  C5        42.8650   23.0500    3.1700 C.2   500  GDP500      0.2182
     22  C6        42.7950   24.4370    2.9360 C.1   500  GDP500      0.2372
     23  O6        41.9710   25.1450    3.7130 O.2   500  GDP500     -0.2069
     24  N1        43.4900   25.1330    2.0360 N.2   500  GDP500     -0.2485
     25  C2        44.6130   24.4130    1.3670 C.1   500  GDP500      0.2531
     26  N2        45.2750   25.2920    0.6290 N.pl3 500  GDP500     -0.0226
     27  N3        44.7590   23.1840    1.5670 N.2   500  GDP500     -0.3074
     28  C4        43.9320   22.5030    2.3690 C.2   500  GDP500      0.2300
@<TRIPOS>BOND
     1    26    25    1
     2    14    13    1
     3    12    11    1
     4    12    17    1
     5    11    10    1
     6    11    13    1
     7    25    27    2
     8    25    24    2
     9    27    28    2
    10    17    18    1
    11    17    15    1
    12    10     9    1
    13    24    22    2
    14    13    15    1
    15    28    18    1
    16    28    21    1
    17    18    19    1
    18    15    16    1
    19    22    21    1
    20    22    23    2
    21    21    20    2
    22     4     1    2
    23     9     6    1
    24    19    20    1
    25     5     1    1
    26     5     6    1
    27     2     1    1
    28     1     3    1
    29     7     6    2
    30     6     8    1
