@<TRIPOS>MOLECULE
1joc_ITP_A_1.pdb
 20 20 0 0 0
SMALL
GASTEIGER

@<TRIPOS>ATOM
      1  C1        30.0040   17.1000   10.6390 C.3   101  ITP101      0.1918
      2  O1        28.9960   17.9910   11.1490 O.3   101  ITP101     -0.2673
      3  C2        29.6480   15.6800   11.0510 C.3   101  ITP101      0.2121
      4  O2        29.4800   15.6300   12.4800 O.3   101  ITP101     -0.2177
      5  C3        30.7310   14.6940   10.6330 C.3   101  ITP101      0.1918
      6  O3        30.3660   13.3990   11.0850 O.3   101  ITP101     -0.2673
      7  C4        32.0830   15.0690   11.2280 C.3   101  ITP101      0.2148
      8  O4        33.0840   14.1700   10.7450 O.3   101  ITP101     -0.2176
      9  C5        32.4770   16.4900   10.8640 C.3   101  ITP101      0.2173
     10  O5        33.6630   16.8180   11.5840 O.3   101  ITP101     -0.2175
     11  C6        31.3720   17.5060   11.2020 C.3   101  ITP101      0.2148
     12  O6        31.7240   18.7920   10.6780 O.3   101  ITP101     -0.2176
     13  P1        27.7340   18.5010   10.2700 P.3   101  ITP101      0.5327
     14  OP1       27.5730   19.9320   10.5990 O.3   101  ITP101     -0.1145
     15  OP2       26.5740   17.6920   10.6930 O.3   101  ITP101     -0.1145
     16  OP3       28.0880   18.2730    8.8360 O.2   101  ITP101     -0.2224
     17  P3        30.4040   12.1450   10.1020 P.3   101  ITP101      0.5327
     18  O10       29.8750   11.0020   10.8720 O.3   101  ITP101     -0.1145
     19  O11       29.5600   12.4850    8.9370 O.2   101  ITP101     -0.2224
     20  O12       31.8330   11.9720    9.7440 O.3   101  ITP101     -0.1145
@<TRIPOS>BOND
     1    16    13    2
     2    19    17    2
     3    20    17    1
     4    17    18    1
     5    17     6    1
     6    13    14    1
     7    13    15    1
     8    13     2    1
     9     5     3    1
    10     5     6    1
    11     5     7    1
    12     1     3    1
    13     1     2    1
    14     1    11    1
    15    12    11    1
    16     8     7    1
    17     9    11    1
    18     9     7    1
    19     9    10    1
    20     3     4    1
