@<TRIPOS>MOLECULE
1jof_PIN_B_1.pdb
 18 18 0 0 0
SMALL
GASTEIGER

@<TRIPOS>ATOM
      1  C1        49.3140  -11.0300   13.7470 C.3   9012  PIN9012     0.1225
      2  C2        48.1170  -10.9680   12.8090 C.3   9012  PIN9012     0.0939
      3  N1        47.6710  -12.2990   12.4610 N.3   9012  PIN9012    -0.2689
      4  C3        48.4150  -12.7950   11.3380 C.3   9012  PIN9012     0.0897
      5  C4        46.2080  -12.3810   12.2470 C.3   9012  PIN9012     0.0897
      6  C1'       46.5150  -15.6660    8.8220 C.3   9012  PIN9012     0.1225
      7  C2'       46.0810  -15.5630   10.2610 C.3   9012  PIN9012     0.0939
      8  N1'       46.5260  -14.2900   10.6790 N.3   9012  PIN9012    -0.2689
      9  C3'       45.7400  -13.8110   11.8300 C.3   9012  PIN9012     0.0897
     10  C4'       48.0080  -14.2200   10.9390 C.3   9012  PIN9012     0.0897
     11  S1        49.9760   -9.5600   14.1610 S.3   9012  PIN9012    -0.1946
     12  S1'       46.0730  -17.0510    8.0100 S.3   9012  PIN9012    -0.1946
     13  O1        51.1290   -9.7940   14.9500 O.3   9012  PIN9012    -0.3074
     14  O2        48.9530   -8.6550   14.6790 O.3   9012  PIN9012    -0.3074
     15  O3        50.5000   -9.0220   12.6570 O.3   9012  PIN9012    -0.3074
     16  O1'       44.6530  -17.2130    7.9230 O.3   9012  PIN9012    -0.3074
     17  O2'       46.8460  -18.1560    8.6430 O.3   9012  PIN9012    -0.3074
     18  O3'       46.7050  -16.7920    6.5250 O.3   9012  PIN9012    -0.3074
@<TRIPOS>BOND
     1    18    12    1
     2    16    12    1
     3    12    17    1
     4    12     6    1
     5     6     7    1
     6     7     8    1
     7     8    10    1
     8     8     9    1
     9    10     4    1
    10     4     3    1
    11     9     5    1
    12     5     3    1
    13     3     2    1
    14    15    11    1
    15     2     1    1
    16     1    11    1
    17    11    14    1
    18    11    13    1
