@<TRIPOS>MOLECULE
1jok_THP_A_1.pdb
 37 38 0 0 0
SMALL
GASTEIGER

@<TRIPOS>ATOM
      1  P2       113.2580    2.7160   -2.9870 P.3   150  THP150      0.5320
      2  O4P      114.3280    3.5420   -3.5890 O.2   150  THP150     -0.2224
      3  O5P      113.8250    1.5880   -2.2150 O.3   150  THP150     -0.1145
      4  O6P      112.3590    3.5380   -2.1460 O.3   150  THP150     -0.1145
      5  P1       107.2030    2.5670   -4.9090 P.3   150  THP150      0.5322
      6  O1P      107.9860    3.7680   -5.2790 O.3   150  THP150     -0.1145
      7  O2P      105.8240    2.6470   -5.4400 O.2   150  THP150     -0.2224
      8  O3P      107.1990    2.3650   -3.4430 O.3   150  THP150     -0.1145
      9  O5'      112.3800    2.0990   -4.1860 O.3   150  THP150     -0.2809
     10  C5'      111.1160    1.4850   -3.9180 C.3   150  THP150      0.0879
     11  C4'      110.2270    1.5700   -5.1630 C.3   150  THP150      0.1117
     12  O4'      110.8870    1.0580   -6.3140 O.3   150  THP150     -0.3483
     13  C3'      109.0290    0.6570   -4.9410 C.3   150  THP150      0.1026
     14  O3'      107.9160    1.2890   -5.5800 O.3   150  THP150     -0.2775
     15  C2'      109.3560   -0.6890   -5.5920 C.3   150  THP150      0.0222
     16  C1'      110.3440   -0.2170   -6.6590 C.3   150  THP150      0.1422
     17  N1       111.5290   -1.0890   -6.7370 N.ar  150  THP150     -0.2737
     18  C2       111.4700   -2.1670   -7.5990 C.ar  150  THP150      0.3313
     19  O2       110.4750   -2.4060   -8.2800 O.2   150  THP150     -0.2464
     20  N3       112.5990   -2.9630   -7.6530 N.ar  150  THP150     -0.2747
     21  C4       113.7630   -2.7760   -6.9290 C.ar  150  THP150      0.2568
     22  O4       114.7110   -3.5480   -7.0560 O.2   150  THP150     -0.2674
     23  C5       113.7330   -1.6250   -6.0550 C.ar  150  THP150      0.0302
     24  C5M      114.9520   -1.3000   -5.1990 C.3   150  THP150     -0.0332
     25  C6       112.6430   -0.8340   -5.9840 C.ar  150  THP150      0.0199
     26 H5'1      111.2890    0.4540   -3.6080 H     150  THP150      0.0592
     27 H5'2      110.6650    1.9800   -3.0590 H     150  THP150      0.0592
     28  H4'      109.8940    2.5940   -5.3160 H     150  THP150      0.0646
     29  H3'      108.8500    0.5240   -3.8750 H     150  THP150      0.0630
     30 H2'1      109.8120   -1.3950   -4.8840 H     150  THP150      0.0335
     31 H2'2      108.4700   -1.1700   -6.0270 H     150  THP150      0.0335
     32  H1'      109.8660   -0.2020   -7.6350 H     150  THP150      0.0840
     33  H3       112.5710   -3.7550   -8.2790 H     150  THP150      0.1734
     34  H51      114.8770   -0.2750   -4.8340 H     150  THP150      0.0280
     35  H52      115.8560   -1.4050   -5.8000 H     150  THP150      0.0280
     36  H53      114.9960   -1.9850   -4.3530 H     150  THP150      0.0280
     37  H6       112.6500    0.0260   -5.3150 H     150  THP150      0.0816
@<TRIPOS>BOND
     1    19    18    2
     2    33    20    1
     3    20    18   ar
     4    20    21   ar
     5    32    16    1
     6    18    17   ar
     7    22    21    2
     8    21    23   ar
     9    17    16    1
    10    17    25   ar
    11    16    12    1
    12    16    15    1
    13    12    11    1
    14    23    25   ar
    15    23    24    1
    16    31    15    1
    17    25    37    1
    18    35    24    1
    19    15    13    1
    20    15    30    1
    21    14    13    1
    22    14     5    1
    23     7     5    2
    24    28    11    1
    25     6     5    1
    26    24    34    1
    27    24    36    1
    28    11    13    1
    29    11    10    1
    30    13    29    1
    31     5     8    1
    32     9    10    1
    33     9     1    1
    34    10    26    1
    35    10    27    1
    36     2     1    2
    37     1     3    1
    38     1     4    1
