@<TRIPOS>MOLECULE
1jol_FFO_A_1.pdb
 34 36 0 0 0
SMALL
GASTEIGER

@<TRIPOS>ATOM
      1  N1        22.8110   57.3440   22.6750 N.2   161  FFO161     -0.2723
      2  C2        23.6120   57.8160   23.6190 C.1   161  FFO161      0.2603
      3  NA2       24.8200   58.2070   23.3610 N.pl3 161  FFO161     -0.0221
      4  N3        23.1090   57.9500   24.9480 N.2   161  FFO161     -0.2512
      5  C4        21.8490   57.6100   25.2980 C.1   161  FFO161      0.2256
      6  O4        21.4670   57.7900   26.4830 O.2   161  FFO161     -0.2106
      7  C4A       21.0250   57.0470   24.2060 C.3   161  FFO161      0.2939
      8  N5        19.6860   56.7030   24.3830 N.am  161  FFO161     -0.2448
      9  C6        18.8690   56.8600   23.2840 C.3   161  FFO161      0.1243
     10  C7        19.5390   56.3250   22.1220 C.3   161  FFO161      0.1586
     11  N8        20.7820   56.6950   21.8230 N.2   161  FFO161     -0.2090
     12  C8A       21.5260   56.9510   22.9350 C.1   161  FFO161      0.1088
     13  C9        18.5170   58.3270   23.2160 C.3   161  FFO161      0.1340
     14  N10       17.8900   58.8510   24.4970 N.pl3 161  FFO161     -0.2358
     15  C11       18.3830   62.9800   25.2670 C.ar  161  FFO161      0.0551
     16  C12       17.7930   62.1160   26.2040 C.ar  161  FFO161      0.0059
     17  C13       17.6120   60.7630   25.9960 C.ar  161  FFO161      0.0162
     18  C14       18.0480   60.2220   24.7590 C.ar  161  FFO161      0.0654
     19  C15       18.6230   61.0190   23.8550 C.ar  161  FFO161      0.0162
     20  C16       18.7890   62.3890   24.0830 C.ar  161  FFO161      0.0059
     21  C         18.5300   64.4290   25.5280 C.2   161  FFO161      0.2652
     22  O         17.7090   64.9830   26.2990 O.2   161  FFO161     -0.2684
     23  N         19.4540   65.1770   24.8950 N.am  161  FFO161     -0.1918
     24  CA        19.6280   66.6820   24.9640 C.3   161  FFO161      0.1986
     25  CB        20.8050   67.0120   25.9540 C.3   161  FFO161      0.0451
     26  CG        20.1780   68.2460   26.7840 C.3   161  FFO161      0.1164
     27  CD        20.5780   67.5930   28.0920 C.2   161  FFO161      0.3649
     28  OE1       19.6280   67.5100   28.9230 O.co2 161  FFO161     -0.2457
     29  OE2       21.6820   67.0200   27.9870 O.co2 161  FFO161     -0.2457
     30  CT        19.9280   67.0280   23.5530 C.2   161  FFO161      0.3842
     31  O1        20.4070   66.1170   22.8130 O.co2 161  FFO161     -0.2437
     32  O2        19.5330   68.1520   23.1920 O.co2 161  FFO161     -0.2437
     33  C5A       18.8860   56.2230   25.3150 C.2   161  FFO161      0.3045
     34  O5B       19.2950   55.2560   25.9470 O.2   161  FFO161     -0.2649
@<TRIPOS>BOND
     1    11    10    1
     2    11    12    2
     3    10     9    1
     4     1    12    2
     5     1     2    2
     6    31    30   ar
     7    12     7    1
     8    32    30   ar
     9    13     9    1
    10    13    14    1
    11     9     8    1
    12     3     2    1
    13    30    24    1
    14     2     4    2
    15    19    20   ar
    16    19    18   ar
    17    20    15   ar
    18     7     8    1
    19     7     5    1
    20     8    33   am
    21    14    18    1
    22    18    17   ar
    23    23    24    1
    24    23    21   am
    25     4     5    2
    26    24    25    1
    27    15    21    1
    28    15    16   ar
    29     5     6    2
    30    33    34    2
    31    21    22    2
    32    25    26    1
    33    17    16   ar
    34    26    27    1
    35    29    27   ar
    36    27    28   ar
