@<TRIPOS>MOLECULE
1jom_FFO_A_1.pdb
 34 36 0 0 0
SMALL
GASTEIGER

@<TRIPOS>ATOM
      1  N1         6.1200   35.9790   20.2000 N.2   161  FFO161     -0.2723
      2  C2         5.8050   34.9980   21.0580 C.1   161  FFO161      0.2603
      3  NA2        5.1470   33.9490   20.7780 N.pl3 161  FFO161     -0.0221
      4  N3         6.2180   35.1020   22.4030 N.2   161  FFO161     -0.2512
      5  C4         6.9360   36.1760   22.8710 C.1   161  FFO161      0.2256
      6  O4         7.2830   36.2550   24.0660 O.2   161  FFO161     -0.2106
      7  C4A        7.2970   37.2340   21.8880 C.3   161  FFO161      0.2939
      8  N5         7.9580   38.3790   22.2930 N.am  161  FFO161     -0.2448
      9  C6         8.6200   38.9640   21.2570 C.3   161  FFO161      0.1243
     10  C7         7.7990   39.0660   20.1010 C.3   161  FFO161      0.1586
     11  N8         7.2020   37.9890   19.6290 N.2   161  FFO161     -0.2090
     12  C8A        6.8810   37.0970   20.6060 C.1   161  FFO161      0.1088
     13  C9         9.8070   38.1350   20.8810 C.3   161  FFO161      0.1340
     14  N10       10.6740   38.1110   22.0900 N.pl3 161  FFO161     -0.2358
     15  C11       13.0880   34.8270   23.0540 C.ar  161  FFO161      0.0551
     16  C12       13.0900   35.9710   23.8510 C.ar  161  FFO161      0.0059
     17  C13       12.2780   37.0230   23.4720 C.ar  161  FFO161      0.0162
     18  C14       11.4430   36.9710   22.3090 C.ar  161  FFO161      0.0654
     19  C15       11.4250   35.8770   21.5510 C.ar  161  FFO161      0.0162
     20  C16       12.2730   34.8180   21.9400 C.ar  161  FFO161      0.0059
     21  C         13.8960   33.6200   23.2820 C.2   161  FFO161      0.2652
     22  O         14.7830   33.5750   24.1310 O.2   161  FFO161     -0.2684
     23  N         13.6870   32.5130   22.5860 N.am  161  FFO161     -0.1918
     24  CA        14.6450   31.3250   22.5520 C.3   161  FFO161      0.1986
     25  CB        14.0210   30.0410   23.1810 C.3   161  FFO161      0.0451
     26  CG        15.0410   29.2310   24.1300 C.3   161  FFO161      0.1164
     27  CD        14.5050   29.5100   25.5460 C.2   161  FFO161      0.3649
     28  OE1       13.3730   28.9680   25.6640 O.co2 161  FFO161     -0.2457
     29  OE2       15.0950   30.2320   26.3810 O.co2 161  FFO161     -0.2457
     30  CT        14.7680   30.9650   21.0980 C.2   161  FFO161      0.3842
     31  O1        13.8620   31.3580   20.3660 O.co2 161  FFO161     -0.2437
     32  O2        15.7560   30.3660   20.6290 O.co2 161  FFO161     -0.2437
     33  C5A        7.6080   39.2740   23.1990 C.2   161  FFO161      0.3045
     34  O5B        6.6850   38.9810   23.9790 O.2   161  FFO161     -0.2649
@<TRIPOS>BOND
     1    11    10    1
     2    11    12    2
     3    10     9    1
     4     1    12    2
     5     1     2    2
     6    31    30   ar
     7    12     7    1
     8    32    30   ar
     9     3     2    1
    10    13     9    1
    11    13    14    1
    12     2     4    2
    13    30    24    1
    14     9     8    1
    15    19    20   ar
    16    19    18   ar
    17     7     8    1
    18     7     5    1
    19    20    15   ar
    20    14    18    1
    21     8    33   am
    22    18    17   ar
    23     4     5    2
    24    24    23    1
    25    24    25    1
    26    23    21   am
    27     5     6    2
    28    15    21    1
    29    15    16   ar
    30    25    26    1
    31    33    34    2
    32    21    22    2
    33    17    16   ar
    34    26    27    1
    35    27    28   ar
    36    27    29   ar
