@<TRIPOS>MOLECULE
1joq_THP_A_1.pdb
 35 36 0 0 0
SMALL
GASTEIGER

@<TRIPOS>ATOM
      1  P2        -8.6280    2.7400   -3.9570 P.3   150  THP150      0.5323
      2  O4P       -7.4930    3.3340   -4.6990 O.2   150  THP150     -0.2224
      3  O5P       -8.1560    1.7400   -2.9730 O.3   150  THP150     -0.1145
      4  O6P       -9.4430    3.7880   -3.3030 O.3   150  THP150     -0.1145
      5  P1       -14.7060    2.8290   -5.5130 P.3   150  THP150      0.5322
      6  O1P      -13.8590    3.9110   -6.0640 O.2   150  THP150     -0.2224
      7  O2P      -16.1110    2.9810   -5.9520 O.3   150  THP150     -0.1145
      8  O3P      -14.6120    2.7760   -4.0370 O.3   150  THP150     -0.1145
      9  O5'       -9.5660    1.9780   -5.0200 O.3   150  THP150     -0.2749
     10  C5'      -10.8510    1.4840   -4.6330 C.3   150  THP150      0.1279
     11  C4'      -11.8070    1.5350   -5.8300 C.3   150  THP150      0.1173
     12  O4'      -11.2680    0.8600   -6.9610 O.3   150  THP150     -0.3476
     13  C3'      -13.0650    0.7580   -5.4570 C.3   150  THP150      0.1063
     14  O3'      -14.1560    1.4310   -6.0910 O.3   150  THP150     -0.2772
     15  C2'      -12.8970   -0.6630   -5.9970 C.3   150  THP150      0.0433
     16  C1'      -11.9580   -0.3730   -7.1680 C.3   150  THP150      0.1455
     17  N1       -10.8750   -1.3680   -7.2680 N.ar  150  THP150     -0.2734
     18  C2       -11.1050   -2.4820   -8.0530 C.ar  150  THP150      0.3313
     19  O2       -12.1680   -2.6580   -8.6440 O.2   150  THP150     -0.2464
     20  N3       -10.0660   -3.3910   -8.1330 N.ar  150  THP150     -0.2747
     21  C4        -8.8370   -3.2820   -7.5060 C.ar  150  THP150      0.2568
     22  O4        -7.9810   -4.1540   -7.6490 O.2   150  THP150     -0.2674
     23  C5        -8.6890   -2.0860   -6.7080 C.ar  150  THP150      0.0302
     24  C5M       -7.3820   -1.8400   -5.9620 C.3   150  THP150     -0.0332
     25  C6        -9.6870   -1.1850   -6.6140 C.ar  150  THP150      0.0199
     26 H5'2      -10.7320    0.4710   -4.2460 H     150  THP150      0.0656
     27  H4'      -12.0600    2.5650   -6.0650 H     150  THP150      0.0650
     28  H3'      -13.1860    0.7380   -4.3750 H     150  THP150      0.0633
     29 H2'2      -12.4470   -1.3400   -5.2580 H     150  THP150      0.0376
     30  H1'      -12.5120   -0.3750   -8.1040 H     150  THP150      0.0843
     31  H3       -10.2190   -4.2120   -8.7030 H     150  THP150      0.1734
     32  H51       -7.4550   -2.2550   -4.9560 H     150  THP150      0.0280
     33  H52       -7.1950   -0.7680   -5.8990 H     150  THP150      0.0280
     34  H53       -6.5620   -2.3210   -6.4950 H     150  THP150      0.0280
     35  H6        -9.5450   -0.2930   -6.0040 H     150  THP150      0.0816
@<TRIPOS>BOND
     1    31    20    1
     2    19    18    2
     3    20    18   ar
     4    20    21   ar
     5    30    16    1
     6    18    17   ar
     7    22    21    2
     8    21    23   ar
     9    17    16    1
    10    17    25   ar
    11    16    12    1
    12    16    15    1
    13    12    11    1
    14    23    25   ar
    15    23    24    1
    16    25    35    1
    17    34    24    1
    18    14     5    1
    19    14    13    1
    20    27    11    1
    21     6     5    2
    22    15    13    1
    23    15    29    1
    24    24    33    1
    25    24    32    1
    26     7     5    1
    27    11    13    1
    28    11    10    1
    29     5     8    1
    30    13    28    1
    31     9    10    1
    32     9     1    1
    33     2     1    2
    34    10    26    1
    35     1     4    1
    36     1     3    1
