@<TRIPOS>MOLECULE
1jot_A2G_A_1.pdb
 15 15 0 0 0
SMALL
GASTEIGER

@<TRIPOS>ATOM
      1  O         11.7530   27.2470   19.8720 O.3   135  A2G135     -0.3242
      2  C1        12.9790   27.0890   20.6220 C.3   135  A2G135      0.2917
      3  O1        13.6550   28.3320   20.6190 O.3   135  A2G135     -0.1879
      4  C2        13.8690   26.0240   19.9820 C.3   135  A2G135      0.1871
      5  N2        15.1190   25.9320   20.7120 N.am  135  A2G135     -0.1991
      6  C3        14.1390   26.3710   18.5080 C.3   135  A2G135      0.2095
      7  O3        14.8670   25.2980   17.8930 O.3   135  A2G135     -0.2183
      8  C4        12.8140   26.5670   17.7820 C.3   135  A2G135      0.2136
      9  O4        12.1110   25.3320   17.7890 O.3   135  A2G135     -0.2176
     10  C5        11.9840   27.6410   18.4980 C.3   135  A2G135      0.1835
     11  C6        10.6450   27.8530   17.7940 C.3   135  A2G135      0.2142
     12  O6         9.6670   26.9710   18.3320 O.3   135  A2G135     -0.2176
     13  C7        15.6470   24.7450   21.0030 C.2   135  A2G135      0.2421
     14  O7        15.1280   23.6790   20.6750 O.2   135  A2G135     -0.2733
     15  C8        16.9560   24.7420   21.7780 C.3   135  A2G135      0.0964
@<TRIPOS>BOND
     1     8     9    1
     2     8    10    1
     3     8     6    1
     4    11    12    1
     5    11    10    1
     6     7     6    1
     7    10     1    1
     8     6     4    1
     9     1     2    1
    10     4     2    1
    11     4     5    1
    12     3     2    1
    13    14    13    2
    14     5    13   am
    15    13    15    1
