@<TRIPOS>MOLECULE
1jp3_EGC_A_1.pdb
 12 11 0 0 0
SMALL
GASTEIGER

@<TRIPOS>ATOM
      1  O1        45.7240   29.5000   55.1440 O.3   701  EGC701     -0.2176
      2  C2        45.8650   30.3780   56.2450 C.3   701  EGC701      0.2140
      3  C3        45.8620   31.8170   55.7680 C.3   701  EGC701      0.1777
      4  O4        44.6050   32.4250   56.0790 O.3   701  EGC701     -0.3483
      5  C5        44.4960   33.7430   55.5360 C.3   701  EGC701      0.1742
      6  C6        43.5310   33.7470   54.3540 C.3   701  EGC701      0.1742
      7  O7        43.3720   35.0860   53.8530 O.3   701  EGC701     -0.3484
      8  C8        44.6160   35.6530   53.3960 C.3   701  EGC701      0.1742
      9  C9        44.6510   35.6840   51.8740 C.3   701  EGC701      0.1741
     10  O10       44.6790   37.0410   51.4140 O.3   701  EGC701     -0.3511
     11  C11       45.4640   37.1930   50.2230 C.3   701  EGC701      0.1424
     12  C12       46.6150   38.1630   50.4750 C.3   701  EGC701      0.0346
@<TRIPOS>BOND
     1    11    12    1
     2    11    10    1
     3    10     9    1
     4     9     8    1
     5     8     7    1
     6     7     6    1
     7     6     5    1
     8     1     2    1
     9     5     4    1
    10     3     4    1
    11     3     2    1
