@<TRIPOS>MOLECULE
1jp4_AMP_A_1.pdb
 23 25 0 0 0
SMALL
GASTEIGER

@<TRIPOS>ATOM
      1  P         52.7050    4.9730    0.1220 P.3   601  AMP601      0.5327
      2  O1P       54.1690    4.8210    0.0770 O.3   601  AMP601     -0.1145
      3  O2P       52.3360    6.2290    0.9350 O.3   601  AMP601     -0.1145
      4  O3P       52.0260    4.9400   -1.2780 O.2   601  AMP601     -0.2224
      5  O5'       52.2020    3.6710    0.9140 O.3   601  AMP601     -0.2675
      6  C5'       50.8390    3.5490    1.2490 C.3   601  AMP601      0.1860
      7  C4'       50.7040    3.1870    2.7240 C.3   601  AMP601      0.1823
      8  O4'       51.3540    1.9390    2.9360 O.3   601  AMP601     -0.3135
      9  C3'       51.3760    4.1740    3.6630 C.3   601  AMP601      0.2184
     10  O3'       50.7210    4.0980    4.9080 O.3   601  AMP601     -0.2174
     11  C2'       52.7630    3.6290    3.8200 C.3   601  AMP601      0.2570
     12  O2'       53.4210    4.0410    4.9990 O.3   601  AMP601     -0.2130
     13  C1'       52.4840    2.1350    3.7680 C.3   601  AMP601      0.3186
     14  N9        53.6280    1.4390    3.1820 N.pl3 601  AMP601     -0.1439
     15  C8        53.8490    1.0930    1.8730 C.3   601  AMP601      0.3377
     16  N7        55.0100    0.4390    1.7940 N.2   601  AMP601     -0.2095
     17  C5        55.5490    0.3880    3.0320 C.2   601  AMP601      0.2526
     18  C6        56.7300   -0.1600    3.4820 C.2   601  AMP601      0.4393
     19  N6        57.5560   -0.7550    2.6110 N.pl3 601  AMP601      0.2180
     20  N1        57.0330   -0.0730    4.8270 N.2   601  AMP601      0.0021
     21  C2        56.1480    0.5400    5.7010 C.3   601  AMP601      0.5254
     22  N3        54.9830    1.1160    5.2380 N.2   601  AMP601     -0.0055
     23  C4        54.6860    1.0070    3.9200 C.2   601  AMP601      0.3518
@<TRIPOS>BOND
     1     4     1    2
     2     2     1    1
     3     1     5    1
     4     1     3    1
     5     5     6    1
     6     6     7    1
     7    16    15    1
     8    16    17    2
     9    15    14    1
    10    19    18    1
    11     7     8    1
    12     7     9    1
    13     8    13    1
    14    17    18    1
    15    17    23    1
    16    14    13    1
    17    14    23    1
    18    18    20    2
    19     9    11    1
    20     9    10    1
    21    13    11    1
    22    11    12    1
    23    23    22    2
    24    20    21    1
    25    22    21    1
