@<TRIPOS>MOLECULE
1jp6_HEM_A_1.pdb
 43 50 0 0 0
SMALL
GASTEIGER

@<TRIPOS>ATOM
      1 FE         14.8210   27.9550    4.7450 Fe    200  HEM200      0.0000
      2  CHA       16.1260   31.0910    4.9920 C.2   200  HEM200      0.0000
      3  CHB       13.9930   28.0520    8.0560 C.2   200  HEM200      0.0000
      4  CHC       13.5590   24.7920    4.5160 C.2   200  HEM200      0.0000
      5  CHD       15.7010   27.8590    1.4910 C.2   200  HEM200      0.0000
      6  NA        15.0090   29.2920    6.2160 N.2   200  HEM200      0.0000
      7  C1A       15.5720   30.5460    6.1380 C.2   200  HEM200      0.0000
      8  C2A       15.5100   31.2230    7.4300 C.2   200  HEM200      0.0000
      9  C3A       14.9020   30.3390    8.2850 C.2   200  HEM200      0.0000
     10  C4A       14.6030   29.1650    7.5390 C.2   200  HEM200      0.0000
     11  CMA       14.5850   30.5280    9.7540 C.3   200  HEM200      0.0000
     12  CAA       16.0210   32.5930    7.6840 C.3   200  HEM200      0.0000
     13  CBA       14.8740   33.6520    7.8370 C.3   200  HEM200      0.0000
     14  CGA       13.8790   33.5790    6.7090 C.2   200  HEM200      0.0000
     15  O1A       14.1740   33.9600    5.5630 O.co2 200  HEM200      0.0000
     16  O2A       12.7220   33.1110    6.9800 O.co2 200  HEM200      0.0000
     17  NB        13.9500   26.6720    6.0030 N.ar  200  HEM200      0.0000
     18  C1B       13.6890   26.8910    7.3510 C.ar  200  HEM200      0.0000
     19  C2B       13.0370   25.7010    7.9200 C.ar  200  HEM200      0.0000
     20  C3B       12.9180   24.8050    6.9390 C.ar  200  HEM200      0.0000
     21  C4B       13.4880   25.4200    5.7650 C.ar  200  HEM200      0.0000
     22  CMB       12.6190   25.6070    9.3620 C.3   200  HEM200      0.0000
     23  CAB       12.3200   23.4130    6.9810 C.2   200  HEM200      0.0000
     24  CBB       12.6800   22.4910    7.8530 C.2   200  HEM200      0.0000
     25  NC        14.6580   26.5980    3.2730 N.2   200  HEM200      0.0000
     26  C1C       14.1030   25.3260    3.3560 C.2   200  HEM200      0.0000
     27  C2C       14.1840   24.6560    2.0880 C.2   200  HEM200      0.0000
     28  C3C       14.7960   25.5320    1.2520 C.2   200  HEM200      0.0000
     29  C4C       15.0760   26.7310    1.9990 C.2   200  HEM200      0.0000
     30  CMC       13.6800   23.2670    1.8360 C.3   200  HEM200      0.0000
     31  CAC       15.1800   25.4190   -0.1890 C.2   200  HEM200      0.0000
     32  CBC       14.9900   24.3860   -0.9710 C.2   200  HEM200      0.0000
     33  ND        15.7360   29.2350    3.4660 N.ar  200  HEM200      0.0000
     34  C1D       16.0160   29.0270    2.1540 C.ar  200  HEM200      0.0000
     35  C2D       16.6760   30.1510    1.5810 C.ar  200  HEM200      0.0000
     36  C3D       16.8060   31.0720    2.5920 C.ar  200  HEM200      0.0000
     37  C4D       16.2060   30.4930    3.7680 C.ar  200  HEM200      0.0000
     38  CMD       17.1440   30.2730    0.1510 C.3   200  HEM200      0.0000
     39  CAD       17.4710   32.4150    2.4780 C.3   200  HEM200      0.0000
     40  CBD       19.0050   32.1550    2.7380 C.3   200  HEM200      0.0000
     41  CGD       19.8980   33.3580    2.6750 C.2   200  HEM200      0.0000
     42  O1D       20.1780   33.9310    1.5980 O.co2 200  HEM200      0.0000
     43  O2D       20.3840   33.7660    3.7670 O.co2 200  HEM200      0.0000
@<TRIPOS>BOND
     1    32    31    2
     2    31    28    1
     3    38    35    1
     4    28    29    1
     5    28    27    2
     6     5    29    1
     7     5    34    2
     8    35    34   ar
     9    35    36   ar
    10    42    41   ar
    11    30    27    1
    12    29    25    2
    13    27    26    1
    14    34    33   ar
    15    39    36    1
    16    39    40    1
    17    36    37   ar
    18    41    40    1
    19    41    43   ar
    20    25    26    1
    21    25     1    1
    22    26     4    2
    23    33    37   ar
    24    33     1    1
    25    37     2    2
    26     4    21    1
    27     1    17    1
    28     1     6    1
    29     2     7    1
    30    15    14   ar
    31    21    17   ar
    32    21    20   ar
    33    17    18   ar
    34     7     6    2
    35     7     8    1
    36     6    10    1
    37    14    16   ar
    38    14    13    1
    39    20    23    1
    40    20    19   ar
    41    23    24    2
    42    18    19   ar
    43    18     3    1
    44     8    12    1
    45     8     9    2
    46    10     3    2
    47    10     9    1
    48    12    13    1
    49    19    22    1
    50     9    11    1
