@<TRIPOS>MOLECULE
1jp8_HEM_A_1.pdb
 43 50 0 0 0
SMALL
GASTEIGER

@<TRIPOS>ATOM
      1 FE         14.6960   27.9860    4.7750 Fe    200  HEM200      0.0000
      2  CHA       15.9840   31.1340    5.0800 C.2   200  HEM200      0.0000
      3  CHB       13.8720   28.0210    8.1010 C.2   200  HEM200      0.0000
      4  CHC       13.4720   24.8150    4.5260 C.2   200  HEM200      0.0000
      5  CHD       15.5820   27.9230    1.5360 C.2   200  HEM200      0.0000
      6  NA        14.8730   29.3000    6.2780 N.2   200  HEM200      0.0000
      7  C1A       15.4290   30.5640    6.2250 C.2   200  HEM200      0.0000
      8  C2A       15.3580   31.2100    7.5440 C.2   200  HEM200      0.0000
      9  C3A       14.7550   30.3030    8.3700 C.2   200  HEM200      0.0000
     10  C4A       14.4680   29.1450    7.6010 C.2   200  HEM200      0.0000
     11  CMA       14.4390   30.4640    9.8380 C.3   200  HEM200      0.0000
     12  CAA       15.8550   32.5780    7.8580 C.3   200  HEM200      0.0000
     13  CBA       14.6870   33.6060    8.0410 C.3   200  HEM200      0.0000
     14  CGA       13.6710   33.4690    6.9390 C.2   200  HEM200      0.0000
     15  O1A       13.8920   33.9230    5.8060 O.co2 200  HEM200      0.0000
     16  O2A       12.5820   32.8580    7.2140 O.co2 200  HEM200      0.0000
     17  NB        13.8420   26.6780    6.0280 N.ar  200  HEM200      0.0000
     18  C1B       13.5810   26.8740    7.3820 C.ar  200  HEM200      0.0000
     19  C2B       12.9470   25.6630    7.9390 C.ar  200  HEM200      0.0000
     20  C3B       12.8370   24.7810    6.9450 C.ar  200  HEM200      0.0000
     21  C4B       13.3940   25.4240    5.7770 C.ar  200  HEM200      0.0000
     22  CMB       12.5350   25.5330    9.3820 C.3   200  HEM200      0.0000
     23  CAB       12.2640   23.3830    6.9720 C.2   200  HEM200      0.0000
     24  CBB       12.6370   22.4560    7.8460 C.2   200  HEM200      0.0000
     25  NC        14.5460   26.6350    3.3010 N.2   200  HEM200      0.0000
     26  C1C       14.0070   25.3620    3.3760 C.2   200  HEM200      0.0000
     27  C2C       14.0950   24.6990    2.1140 C.2   200  HEM200      0.0000
     28  C3C       14.7020   25.5850    1.2830 C.2   200  HEM200      0.0000
     29  C4C       14.9640   26.7820    2.0350 C.2   200  HEM200      0.0000
     30  CMC       13.6050   23.3010    1.8640 C.3   200  HEM200      0.0000
     31  CAC       15.0980   25.4940   -0.1550 C.2   200  HEM200      0.0000
     32  CBC       14.9340   24.4780   -0.9550 C.2   200  HEM200      0.0000
     33  ND        15.6030   29.2860    3.5200 N.ar  200  HEM200      0.0000
     34  C1D       15.8860   29.0890    2.2090 C.ar  200  HEM200      0.0000
     35  C2D       16.5380   30.2180    1.6500 C.ar  200  HEM200      0.0000
     36  C3D       16.6630   31.1290    2.6650 C.ar  200  HEM200      0.0000
     37  C4D       16.0660   30.5450    3.8370 C.ar  200  HEM200      0.0000
     38  CMD       17.0070   30.3530    0.2260 C.3   200  HEM200      0.0000
     39  CAD       17.3250   32.4650    2.5510 C.3   200  HEM200      0.0000
     40  CBD       18.8350   32.1980    2.8760 C.3   200  HEM200      0.0000
     41  CGD       19.7380   33.3860    2.8290 C.2   200  HEM200      0.0000
     42  O1D       20.1670   33.8500    1.7580 O.co2 200  HEM200      0.0000
     43  O2D       20.0740   33.8960    3.9340 O.co2 200  HEM200      0.0000
@<TRIPOS>BOND
     1    32    31    2
     2    31    28    1
     3    38    35    1
     4    28    29    1
     5    28    27    2
     6     5    29    1
     7     5    34    2
     8    35    34   ar
     9    35    36   ar
    10    42    41   ar
    11    30    27    1
    12    29    25    2
    13    27    26    1
    14    34    33   ar
    15    39    36    1
    16    39    40    1
    17    36    37   ar
    18    41    40    1
    19    41    43   ar
    20    25    26    1
    21    25     1    1
    22    26     4    2
    23    33    37   ar
    24    33     1    1
    25    37     2    2
    26     4    21    1
    27     1    17    1
    28     1     6    1
    29     2     7    1
    30    21    17   ar
    31    21    20   ar
    32    15    14   ar
    33    17    18   ar
    34     7     6    2
    35     7     8    1
    36     6    10    1
    37    14    16   ar
    38    14    13    1
    39    20    23    1
    40    20    19   ar
    41    23    24    2
    42    18    19   ar
    43    18     3    1
    44     8    12    1
    45     8     9    2
    46    10     3    2
    47    10     9    1
    48    12    13    1
    49    19    22    1
    50     9    11    1
