@<TRIPOS>MOLECULE
1jp9_HEM_A_1.pdb
 43 50 0 0 0
SMALL
GASTEIGER

@<TRIPOS>ATOM
      1 FE         14.6270   28.1210    4.7950 Fe    200  HEM200      0.0000
      2  CHA       15.8820   31.2700    5.0370 C.2   200  HEM200      0.0000
      3  CHB       13.8950   28.1750    8.1470 C.2   200  HEM200      0.0000
      4  CHC       13.4510   24.9230    4.6100 C.2   200  HEM200      0.0000
      5  CHD       15.4520   28.0440    1.5470 C.2   200  HEM200      0.0000
      6  NA        14.8300   29.4430    6.2810 N.2   200  HEM200      0.0000
      7  C1A       15.3690   30.7070    6.2030 C.2   200  HEM200      0.0000
      8  C2A       15.3330   31.3660    7.5160 C.2   200  HEM200      0.0000
      9  C3A       14.7700   30.4650    8.3700 C.2   200  HEM200      0.0000
     10  C4A       14.4670   29.2980    7.6190 C.2   200  HEM200      0.0000
     11  CMA       14.5000   30.6340    9.8470 C.3   200  HEM200      0.0000
     12  CAA       15.8240   32.7390    7.7940 C.3   200  HEM200      0.0000
     13  CBA       14.6510   33.7650    7.9330 C.3   200  HEM200      0.0000
     14  CGA       13.7960   33.7940    6.6970 C.2   200  HEM200      0.0000
     15  O1A       14.2470   34.2010    5.6150 O.co2 200  HEM200      0.0000
     16  O2A       12.5990   33.3800    6.8100 O.co2 200  HEM200      0.0000
     17  NB        13.8210   26.8120    6.0790 N.ar  200  HEM200      0.0000
     18  C1B       13.5940   27.0170    7.4390 C.ar  200  HEM200      0.0000
     19  C2B       12.9870   25.8120    8.0250 C.ar  200  HEM200      0.0000
     20  C3B       12.8610   24.9180    7.0540 C.ar  200  HEM200      0.0000
     21  C4B       13.3870   25.5470    5.8550 C.ar  200  HEM200      0.0000
     22  CMB       12.6170   25.7000    9.4780 C.3   200  HEM200      0.0000
     23  CAB       12.3040   23.5180    7.1330 C.2   200  HEM200      0.0000
     24  CBB       12.6030   22.6700    8.1090 C.2   200  HEM200      0.0000
     25  NC        14.4730   26.7580    3.3390 N.2   200  HEM200      0.0000
     26  C1C       13.9590   25.4710    3.4380 C.2   200  HEM200      0.0000
     27  C2C       14.0450   24.7950    2.1750 C.2   200  HEM200      0.0000
     28  C3C       14.6140   25.6790    1.3270 C.2   200  HEM200      0.0000
     29  C4C       14.8650   26.8960    2.0650 C.2   200  HEM200      0.0000
     30  CMC       13.5870   23.3840    1.9400 C.3   200  HEM200      0.0000
     31  CAC       14.9880   25.5640   -0.1210 C.2   200  HEM200      0.0000
     32  CBC       14.8300   24.5220   -0.9000 C.2   200  HEM200      0.0000
     33  ND        15.4910   29.4170    3.5110 N.ar  200  HEM200      0.0000
     34  C1D       15.7480   29.2120    2.1970 C.ar  200  HEM200      0.0000
     35  C2D       16.3690   30.3430    1.6090 C.ar  200  HEM200      0.0000
     36  C3D       16.5000   31.2720    2.6170 C.ar  200  HEM200      0.0000
     37  C4D       15.9430   30.6790    3.8060 C.ar  200  HEM200      0.0000
     38  CMD       16.7950   30.4610    0.1750 C.3   200  HEM200      0.0000
     39  CAD       17.1180   32.6330    2.4930 C.3   200  HEM200      0.0000
     40  CBD       18.6420   32.5310    2.8130 C.3   200  HEM200      0.0000
     41  CGD       19.3660   33.8360    2.7260 C.2   200  HEM200      0.0000
     42  O1D       19.0070   34.7660    1.9620 O.co2 200  HEM200      0.0000
     43  O2D       20.3760   33.9610    3.4690 O.co2 200  HEM200      0.0000
@<TRIPOS>BOND
     1    32    31    2
     2    31    28    1
     3    38    35    1
     4    28    29    1
     5    28    27    2
     6     5    29    1
     7     5    34    2
     8    35    34   ar
     9    35    36   ar
    10    30    27    1
    11    42    41   ar
    12    29    25    2
    13    27    26    1
    14    34    33   ar
    15    39    36    1
    16    39    40    1
    17    36    37   ar
    18    41    40    1
    19    41    43   ar
    20    25    26    1
    21    25     1    1
    22    26     4    2
    23    33    37   ar
    24    33     1    1
    25    37     2    2
    26     4    21    1
    27     1    17    1
    28     1     6    1
    29     2     7    1
    30    15    14   ar
    31    21    17   ar
    32    21    20   ar
    33    17    18   ar
    34     7     6    2
    35     7     8    1
    36     6    10    1
    37    14    16   ar
    38    14    13    1
    39    20    23    1
    40    20    19   ar
    41    23    24    2
    42    18    19   ar
    43    18     3    1
    44     8    12    1
    45     8     9    2
    46    10     3    2
    47    10     9    1
    48    12    13    1
    49    19    22    1
    50     9    11    1
