@<TRIPOS>MOLECULE
1jpa_ANP_A_1.pdb
 10 11 0 0 0
SMALL
GASTEIGER

@<TRIPOS>ATOM
      1  N9        -0.8510  -10.7980    5.2590 N.2   400  ANP400     -0.1914
      2  C8        -1.7960  -10.2560    4.4220 C.3   400  ANP400      0.2618
      3  N7        -1.5790  -10.4720    3.1610 N.2   400  ANP400     -0.2267
      4  C5        -0.4350  -11.1940    3.1400 C.2   400  ANP400      0.2303
      5  C6         0.3150  -11.7320    2.0940 C.2   400  ANP400      0.4393
      6  N6        -0.0640  -11.5710    0.8200 N.pl3 400  ANP400      0.2185
      7  N1         1.4430  -12.4230    2.4530 N.2   400  ANP400     -0.0265
      8  C2         1.7650  -12.5440    3.7430 C.3   400  ANP400      0.4008
      9  N3         1.1490  -12.0870    4.8160 N.2   400  ANP400     -0.1640
     10  C4         0.0370  -11.4110    4.4230 C.1   400  ANP400      0.0579
@<TRIPOS>BOND
     1     6     5    1
     2     5     7    2
     3     5     4    1
     4     7     8    1
     5     4     3    2
     6     4    10    1
     7     3     2    1
     8     8     9    1
     9     2     1    1
    10    10     9    2
    11    10     1    2
