@<TRIPOS>MOLECULE
1jpb_HEM_A_1.pdb
 43 50 0 0 0
SMALL
GASTEIGER

@<TRIPOS>ATOM
      1 FE         14.5780   28.0740    4.7600 Fe    200  HEM200      0.0000
      2  CHA       15.8400   31.2290    5.0040 C.2   200  HEM200      0.0000
      3  CHB       13.8170   28.1390    8.1100 C.2   200  HEM200      0.0000
      4  CHC       13.3890   24.8810    4.5740 C.2   200  HEM200      0.0000
      5  CHD       15.4230   27.9890    1.5180 C.2   200  HEM200      0.0000
      6  NA        14.7730   29.4020    6.2450 N.2   200  HEM200      0.0000
      7  C1A       15.3150   30.6680    6.1660 C.2   200  HEM200      0.0000
      8  C2A       15.2690   31.3280    7.4750 C.2   200  HEM200      0.0000
      9  C3A       14.6980   30.4320    8.3280 C.2   200  HEM200      0.0000
     10  C4A       14.3980   29.2610    7.5810 C.2   200  HEM200      0.0000
     11  CMA       14.4180   30.6090    9.8030 C.3   200  HEM200      0.0000
     12  CAA       15.7600   32.7020    7.7540 C.3   200  HEM200      0.0000
     13  CBA       14.5830   33.7140    7.9640 C.3   200  HEM200      0.0000
     14  CGA       13.6450   33.7150    6.7910 C.2   200  HEM200      0.0000
     15  O1A       14.0040   34.1470    5.6880 O.co2 200  HEM200      0.0000
     16  O2A       12.4750   33.2500    6.9800 O.co2 200  HEM200      0.0000
     17  NB        13.7570   26.7700    6.0440 N.ar  200  HEM200      0.0000
     18  C1B       13.5190   26.9770    7.4030 C.ar  200  HEM200      0.0000
     19  C2B       12.9040   25.7700    7.9800 C.ar  200  HEM200      0.0000
     20  C3B       12.7880   24.8770    7.0020 C.ar  200  HEM200      0.0000
     21  C4B       13.3220   25.5070    5.8160 C.ar  200  HEM200      0.0000
     22  CMB       12.5190   25.6520    9.4290 C.3   200  HEM200      0.0000
     23  CAB       12.2320   23.4750    7.0630 C.2   200  HEM200      0.0000
     24  CBB       12.5360   22.6220    8.0270 C.2   200  HEM200      0.0000
     25  NC        14.4270   26.7100    3.3100 N.2   200  HEM200      0.0000
     26  C1C       13.9070   25.4270    3.4040 C.2   200  HEM200      0.0000
     27  C2C       13.9970   24.7520    2.1400 C.2   200  HEM200      0.0000
     28  C3C       14.5770   25.6330    1.3000 C.2   200  HEM200      0.0000
     29  C4C       14.8300   26.8460    2.0380 C.2   200  HEM200      0.0000
     30  CMC       13.5340   23.3430    1.8940 C.3   200  HEM200      0.0000
     31  CAC       14.9570   25.5160   -0.1400 C.2   200  HEM200      0.0000
     32  CBC       14.7970   24.4720   -0.9130 C.2   200  HEM200      0.0000
     33  ND        15.4520   29.3660    3.4790 N.ar  200  HEM200      0.0000
     34  C1D       15.7200   29.1580    2.1660 C.ar  200  HEM200      0.0000
     35  C2D       16.3460   30.2860    1.5800 C.ar  200  HEM200      0.0000
     36  C3D       16.4720   31.2120    2.5860 C.ar  200  HEM200      0.0000
     37  C4D       15.9050   30.6310    3.7720 C.ar  200  HEM200      0.0000
     38  CMD       16.7870   30.4060    0.1500 C.3   200  HEM200      0.0000
     39  CAD       17.0960   32.5670    2.4640 C.3   200  HEM200      0.0000
     40  CBD       18.6250   32.4120    2.7160 C.3   200  HEM200      0.0000
     41  CGD       19.3850   33.6910    2.6390 C.2   200  HEM200      0.0000
     42  O1D       19.2780   34.4880    1.6770 O.co2 200  HEM200      0.0000
     43  O2D       20.1540   33.9370    3.6060 O.co2 200  HEM200      0.0000
@<TRIPOS>BOND
     1    32    31    2
     2    31    28    1
     3    38    35    1
     4    28    29    1
     5    28    27    2
     6     5    29    1
     7     5    34    2
     8    35    34   ar
     9    35    36   ar
    10    42    41   ar
    11    30    27    1
    12    29    25    2
    13    27    26    1
    14    34    33   ar
    15    39    36    1
    16    39    40    1
    17    36    37   ar
    18    41    40    1
    19    41    43   ar
    20    25    26    1
    21    25     1    1
    22    26     4    2
    23    33    37   ar
    24    33     1    1
    25    37     2    2
    26     4    21    1
    27     1    17    1
    28     1     6    1
    29     2     7    1
    30    15    14   ar
    31    21    17   ar
    32    21    20   ar
    33    17    18   ar
    34     7     6    2
    35     7     8    1
    36     6    10    1
    37    14    16   ar
    38    14    13    1
    39    20    23    1
    40    20    19   ar
    41    23    24    2
    42    18    19   ar
    43    18     3    1
    44     8    12    1
    45     8     9    2
    46    10     3    2
    47    10     9    1
    48    12    13    1
    49    19    22    1
    50     9    11    1
