@<TRIPOS>MOLECULE
1jpc_MAN_A_1.pdb
 11 11 0 0 0
SMALL
GASTEIGER

@<TRIPOS>ATOM
      1  C1        54.5190   28.3060    8.5060 C.3   111  MAN111      0.1777
      2  C2        53.9210   29.1950    7.4200 C.3   111  MAN111      0.2141
      3  C3        54.8460   29.2290    6.1960 C.3   111  MAN111      0.2173
      4  C4        56.2740   29.6070    6.6040 C.3   111  MAN111      0.2142
      5  C5        56.7620   28.7340    7.7610 C.3   111  MAN111      0.1810
      6  C6        58.0970   29.1820    8.3220 C.3   111  MAN111      0.2141
      7  O2        53.7480   30.5070    7.9300 O.3   111  MAN111     -0.2176
      8  O3        54.3640   30.1780    5.2550 O.3   111  MAN111     -0.2175
      9  O4        57.1420   29.4490    5.4900 O.3   111  MAN111     -0.2176
     10  O5        55.8130   28.7740    8.8490 O.3   111  MAN111     -0.3481
     11  O6        58.2660   28.7390    9.6620 O.3   111  MAN111     -0.2176
@<TRIPOS>BOND
     1     8     3    1
     2     9     4    1
     3     3     4    1
     4     3     2    1
     5     4     5    1
     6     2     7    1
     7     2     1    1
     8     5     6    1
     9     5    10    1
    10     6    11    1
    11     1    10    1
