@<TRIPOS>MOLECULE
1jpj_GNP_A_1.pdb
 32 34 0 0 0
SMALL
GASTEIGER

@<TRIPOS>ATOM
      1  PG        48.8030   12.4240   29.9990 P.3   967  GNP967      0.4884
      2  O1G       48.0790   12.3940   28.6810 O.2   967  GNP967     -0.2331
      3  O2G       47.8450   12.6620   31.1310 O.3   967  GNP967     -0.1240
      4  O3G       49.8580   13.4920   29.9830 O.3   967  GNP967     -0.1240
      5  N3B       49.5910   10.9180   30.2580 N.3   967  GNP967     -0.0163
      6  PB        49.1540    9.4180   29.5360 P.3   967  GNP967      0.4669
      7  O1B       49.2590    8.3510   30.5810 O.3   967  GNP967     -0.1253
      8  O2B       47.8690    9.5570   28.7850 O.2   967  GNP967     -0.2351
      9  O3A       50.3580    9.2430   28.4870 O.3   967  GNP967     -0.2360
     10  PA        51.0620   10.3270   27.5290 P.3   967  GNP967      0.2220
     11  O1A       50.0450   11.3560   27.1410 O.2   967  GNP967     -0.5170
     12  O2A       52.3460   10.7740   28.1630 O.3   967  GNP967     -0.4370
     13  O5'       51.4130    9.4470   26.2280 O.3   967  GNP967     -0.3111
     14  C5'       50.4820    8.4530   25.7090 C.3   967  GNP967      0.1813
     15  C4'       51.2470    7.4250   24.8470 C.3   967  GNP967      0.1799
     16  O4'       51.7880    8.0720   23.6750 O.3   967  GNP967     -0.3326
     17  C3'       52.4280    6.7020   25.5600 C.3   967  GNP967      0.2158
     18  O3'       52.3670    5.2830   25.2810 O.3   967  GNP967     -0.2175
     19  C2'       53.6550    7.3960   24.9530 C.3   967  GNP967      0.2310
     20  O2'       54.7650    6.5040   24.8190 O.3   967  GNP967     -0.2158
     21  C1'       53.1730    7.7510   23.5360 C.3   967  GNP967      0.2293
     22  N9        53.8770    8.9280   22.9530 N.pl3 967  GNP967     -0.2354
     23  C8        54.1370   10.1790   23.5190 C.3   967  GNP967      0.2246
     24  N7        54.7740   11.0090   22.7550 N.2   967  GNP967     -0.2322
     25  C5        54.9730   10.2800   21.5580 C.2   967  GNP967      0.2182
     26  C6        55.6260   10.6450   20.2970 C.1   967  GNP967      0.2372
     27  O6        56.1680   11.7100   19.9850 O.2   967  GNP967     -0.2069
     28  N1        55.5990    9.6010   19.3540 N.2   967  GNP967     -0.2485
     29  C2        55.0230    8.3400   19.5510 C.1   967  GNP967      0.2531
     30  N2        55.0830    7.4530   18.5390 N.pl3 967  GNP967     -0.0226
     31  N3        54.4170    7.9970   20.7170 N.2   967  GNP967     -0.3074
     32  C4        54.4220    8.9980   21.6770 C.2   967  GNP967      0.2300
@<TRIPOS>BOND
     1    30    29    1
     2    28    29    2
     3    28    26    2
     4    29    31    2
     5    27    26    2
     6    26    25    1
     7    31    32    2
     8    25    32    1
     9    25    24    2
    10    32    22    1
    11    24    23    1
    12    22    23    1
    13    22    21    1
    14    21    16    1
    15    21    19    1
    16    16    15    1
    17    20    19    1
    18    15    17    1
    19    15    14    1
    20    19    17    1
    21    18    17    1
    22    14    13    1
    23    13    10    1
    24    11    10    2
    25    10    12    1
    26    10     9    1
    27     9     6    1
    28     2     1    2
    29     8     6    2
    30     6     5    1
    31     6     7    1
    32     4     1    1
    33     1     5    1
    34     1     3    1
