@<TRIPOS>MOLECULE
1jpn_GNP_A_1.pdb
 32 34 0 0 0
SMALL
GASTEIGER

@<TRIPOS>ATOM
      1  PG        74.0910   31.5730   11.0590 P.3   911  GNP911      0.4884
      2  O1G       73.1470   32.1610   12.0610 O.3   911  GNP911     -0.1240
      3  O2G       74.4590   32.5930   10.0230 O.2   911  GNP911     -0.2331
      4  O3G       73.4740   30.3740   10.4100 O.3   911  GNP911     -0.1240
      5  N3B       75.5220   31.0750   11.8530 N.3   911  GNP911     -0.0163
      6  PB        75.8810   31.4080   13.4940 P.3   911  GNP911      0.4669
      7  O1B       77.3670   31.5600   13.6380 O.2   911  GNP911     -0.2351
      8  O2B       74.9890   32.5060   13.9940 O.3   911  GNP911     -0.1253
      9  O3A       75.4430   30.0240   14.1800 O.3   911  GNP911     -0.2360
     10  PA        74.0180   29.2910   14.2420 P.3   911  GNP911      0.2220
     11  O1A       72.9460   30.3000   13.9660 O.3   911  GNP911     -0.4370
     12  O2A       74.0790   28.0440   13.4110 O.2   911  GNP911     -0.5170
     13  O5'       73.9470   28.8750   15.7860 O.3   911  GNP911     -0.3111
     14  C5'       74.1620   29.8610   16.8370 C.3   911  GNP911      0.1813
     15  C4'       74.1540   29.1660   18.2160 C.3   911  GNP911      0.1799
     16  O4'       72.8270   28.6770   18.5140 O.3   911  GNP911     -0.3326
     17  C3'       75.1270   27.9530   18.3490 C.3   911  GNP911      0.2158
     18  O3'       75.8200   28.0220   19.6220 O.3   911  GNP911     -0.2175
     19  C2'       74.1560   26.7740   18.2380 C.3   911  GNP911      0.2310
     20  O2'       74.5890   25.6380   18.9820 O.3   911  GNP911     -0.2158
     21  C1'       72.9230   27.3260   18.9490 C.3   911  GNP911      0.2293
     22  N9        71.6780   26.5910   18.6060 N.pl3 911  GNP911     -0.2354
     23  C8        71.1440   26.2780   17.3570 C.3   911  GNP911      0.2246
     24  N7        70.0300   25.6230   17.3870 N.2   911  GNP911     -0.2322
     25  C5        69.7670   25.4700   18.7690 C.2   911  GNP911      0.2182
     26  C6        68.6620   24.8230   19.4810 C.1   911  GNP911      0.2372
     27  O6        67.6740   24.2450   19.0160 O.2   911  GNP911     -0.2069
     28  N1        68.7990   24.9040   20.8760 N.2   911  GNP911     -0.2485
     29  C2        69.8520   25.5210   21.5540 C.1   911  GNP911      0.2531
     30  N2        69.8290   25.5070   22.9000 N.pl3 911  GNP911     -0.0226
     31  N3        70.8810   26.1230   20.8980 N.2   911  GNP911     -0.3074
     32  C4        70.7830   26.0650   19.5190 C.2   911  GNP911      0.2300
@<TRIPOS>BOND
     1     3     1    2
     2     4     1    1
     3     1     5    1
     4     1     2    1
     5     5     6    1
     6    12    10    2
     7     6     7    2
     8     6     8    1
     9     6     9    1
    10    11    10    1
    11     9    10    1
    12    10    13    1
    13    13    14    1
    14    14    15    1
    15    23    24    1
    16    23    22    1
    17    24    25    2
    18    15    17    1
    19    15    16    1
    20    19    17    1
    21    19    21    1
    22    19    20    1
    23    17    18    1
    24    16    21    1
    25    22    21    1
    26    22    32    1
    27    25    26    1
    28    25    32    1
    29    27    26    2
    30    26    28    2
    31    32    31    2
    32    28    29    2
    33    31    29    2
    34    29    30    1
