@<TRIPOS>MOLECULE
1jpz_140_A_1.pdb
 22 21 0 0 0
SMALL
GASTEIGER

@<TRIPOS>ATOM
      1  C1        19.4570    8.2220   26.4550 C.2   1470  1401470     0.3865
      2  O1        19.6250    7.0360   26.1960 O.co2 1470  1401470    -0.2437
      3  O2        20.3960    8.9980   26.7290 O.co2 1470  1401470    -0.2437
      4  C2        18.0030    8.7900   26.4430 C.3   1470  1401470     0.2284
      5  N         17.0170    7.7540   26.1230 N.am  1470  1401470    -0.1932
      6  C3        15.8090    8.0550   25.7060 C.2   1470  1401470     0.2419
      7  O3        15.4160    9.2230   25.5520 O.2   1470  1401470    -0.2733
      8  C4        14.8660    6.8910   25.3940 C.3   1470  1401470     0.0868
      9  C5        15.5420    5.7110   24.6950 C.3   1470  1401470     0.0096
     10  C6        15.9480    6.0510   23.2710 C.3   1470  1401470     0.0005
     11  C7        16.5150    4.8550   22.5590 C.3   1470  1401470     0.0000
     12  C8        16.7670    5.2490   21.1520 C.3   1470  1401470     0.0000
     13  C9        16.7200    4.0980   20.2290 C.3   1470  1401470     0.0000
     14  C10       18.0840    3.5320   20.1200 C.3   1470  1401470     0.0000
     15  C11       18.2070    2.5710   18.9860 C.3   1470  1401470     0.0000
     16  C12       18.5540    1.1690   19.2910 C.3   1470  1401470     0.0000
     17  C13       19.3630    0.3430   18.3330 C.3   1470  1401470     0.0000
     18  C14       20.4330   -0.3950   19.0430 C.3   1470  1401470     0.0000
     19  C15       21.2520   -1.2030   18.0590 C.3   1470  1401470     0.0000
     20  C16       22.5530   -1.5760   18.6660 C.3   1470  1401470     0.0000
     21  C17       23.3860   -2.3870   17.7220 C.3   1470  1401470     0.0000
     22  C18       24.6640   -2.8080   18.3120 C.3   1470  1401470     0.0000
@<TRIPOS>BOND
     1    21    22    1
     2    21    20    1
     3    19    20    1
     4    19    18    1
     5    17    18    1
     6    17    16    1
     7    15    16    1
     8    15    14    1
     9    14    13    1
    10    13    12    1
    11    12    11    1
    12    11    10    1
    13    10     9    1
    14     9     8    1
    15     8     6    1
    16     7     6    2
    17     6     5   am
    18     5     4    1
    19     2     1   ar
    20     4     1    1
    21     1     3   ar
