@<TRIPOS>MOLECULE
1jpz_HEM_A_1.pdb
 43 50 0 0 0
SMALL
GASTEIGER

@<TRIPOS>ATOM
      1 FE         20.3870    0.9430   10.7630 Fe    471  HEM471      0.0000
      2  CHA       22.6180    3.1710   12.1280 C.2   471  HEM471      0.0000
      3  CHB       17.7890    2.9590   11.7870 C.2   471  HEM471      0.0000
      4  CHC       18.1210   -1.3690    9.5600 C.2   471  HEM471      0.0000
      5  CHD       22.9240   -1.3240   10.2490 C.2   471  HEM471      0.0000
      6  NA        20.2320    2.7270   11.7030 N.2   471  HEM471      0.0000
      7  C1A       21.2580    3.5310   12.1720 C.2   471  HEM471      0.0000
      8  C2A       20.7480    4.7480   12.7340 C.2   471  HEM471      0.0000
      9  C3A       19.3890    4.6830   12.6800 C.2   471  HEM471      0.0000
     10  C4A       19.0730    3.4130   12.0330 C.2   471  HEM471      0.0000
     11  CMA       18.3680    5.6820   13.1760 C.3   471  HEM471      0.0000
     12  CAA       21.5930    5.8680   13.3230 C.3   471  HEM471      0.0000
     13  CBA       21.7570    5.7340   14.8570 C.3   471  HEM471      0.0000
     14  CGA       22.3410    6.8390   15.5110 C.2   471  HEM471      0.0000
     15  O1A       22.6200    6.6380   16.7530 O.co2 471  HEM471      0.0000
     16  O2A       22.5650    7.9560   14.9680 O.co2 471  HEM471      0.0000
     17  NB        18.3790    0.8210   10.6870 N.ar  471  HEM471      0.0000
     18  C1B       17.4600    1.7390   11.1520 C.ar  471  HEM471      0.0000
     19  C2B       16.0900    1.3040   10.8990 C.ar  471  HEM471      0.0000
     20  C3B       16.1760    0.0940   10.2590 C.ar  471  HEM471      0.0000
     21  C4B       17.6010   -0.2000   10.1440 C.ar  471  HEM471      0.0000
     22  CMB       14.8610    2.0920   11.2940 C.3   471  HEM471      0.0000
     23  CAB       15.0720   -0.8230    9.7620 C.3   471  HEM471      0.0000
     24  CBB       13.9980   -0.1600    8.8680 C.3   471  HEM471      0.0000
     25  NC        20.5080   -0.9190   10.0070 N.2   471  HEM471      0.0000
     26  C1C       19.4570   -1.7130    9.5040 C.2   471  HEM471      0.0000
     27  C2C       19.9720   -2.9590    8.9210 C.2   471  HEM471      0.0000
     28  C3C       21.3190   -2.9360    9.1430 C.2   471  HEM471      0.0000
     29  C4C       21.6320   -1.6980    9.8270 C.2   471  HEM471      0.0000
     30  CMC       19.0860   -4.0210    8.2560 C.3   471  HEM471      0.0000
     31  CAC       22.3960   -3.9890    8.7890 C.3   471  HEM471      0.0000
     32  CBC       22.1980   -4.7120    7.4240 C.3   471  HEM471      0.0000
     33  ND        22.3630    0.9330   11.1240 N.ar  471  HEM471      0.0000
     34  C1D       23.2640   -0.0940   10.8620 C.ar  471  HEM471      0.0000
     35  C2D       24.6200    0.2640   11.2890 C.ar  471  HEM471      0.0000
     36  C3D       24.5410    1.5220   11.7460 C.ar  471  HEM471      0.0000
     37  C4D       23.1190    1.9340   11.6760 C.ar  471  HEM471      0.0000
     38  CMD       25.8230   -0.6460   11.1810 C.3   471  HEM471      0.0000
     39  CAD       25.6500    2.4010   12.2550 C.3   471  HEM471      0.0000
     40  CBD       26.2550    3.1910   11.0080 C.3   471  HEM471      0.0000
     41  CGD       27.3930    3.9740   11.3340 C.2   471  HEM471      0.0000
     42  O1D       27.3050    4.8650   12.2410 O.co2 471  HEM471      0.0000
     43  O2D       28.4730    3.8150   10.7040 O.co2 471  HEM471      0.0000
@<TRIPOS>BOND
     1    32    31    1
     2    30    27    1
     3    31    28    1
     4    24    23    1
     5    27    28    2
     6    27    26    1
     7    28    29    1
     8    26     4    2
     9    26    25    1
    10     4    21    1
    11    23    20    1
    12    29    25    2
    13    29     5    1
    14    25     1    1
    15    21    20   ar
    16    21    17   ar
    17     5    34    2
    18    20    19   ar
    19    17     1    1
    20    17    18   ar
    21    43    41   ar
    22     1    33    1
    23     1     6    1
    24    34    33   ar
    25    34    35   ar
    26    19    18   ar
    27    19    22    1
    28    40    41    1
    29    40    39    1
    30    33    37   ar
    31    18     3    1
    32    38    35    1
    33    35    36   ar
    34    41    42   ar
    35    37    36   ar
    36    37     2    2
    37     6    10    1
    38     6     7    2
    39    36    39    1
    40     3    10    2
    41    10     9    1
    42     2     7    1
    43     7     8    1
    44     9     8    2
    45     9    11    1
    46     8    12    1
    47    12    13    1
    48    13    14    1
    49    16    14   ar
    50    14    15   ar
