@<TRIPOS>MOLECULE
1jq3_AAT_A_1.pdb
 29 31 0 0 0
SMALL
GASTEIGER

@<TRIPOS>ATOM
      1  N         21.5780   41.0790   14.0790 N.3   800  AAT800     -0.1314
      2  CA        22.7460   40.4890   14.5240 C.3   800  AAT800      0.1102
      3  CB        22.7760   39.0760   14.1700 C.3   800  AAT800      0.0313
      4  CG        22.4580   38.8830   12.7540 C.3   800  AAT800      0.0492
      5  SD        21.0460   37.7910   12.6310 S.3   800  AAT800     -0.1384
      6  C5'       21.0340   37.2430   10.9120 C.3   800  AAT800      0.0899
      7  C4'       19.6960   36.7540   10.4430 C.3   800  AAT800      0.1630
      8  O4'       19.6780   36.7320    9.1150 O.3   800  AAT800     -0.3153
      9  C3'       19.3830   35.3960   10.8900 C.3   800  AAT800      0.2168
     10  O3'       18.2600   35.5530   11.6940 O.3   800  AAT800     -0.2175
     11  C2'       19.0260   34.5680    9.5690 C.3   800  AAT800      0.2569
     12  O2'       17.9960   33.5940    9.6040 O.3   800  AAT800     -0.2130
     13  C1'       18.8480   35.7300    8.6020 C.3   800  AAT800      0.3185
     14  N9        19.3350   35.5300    7.2670 N.pl3 800  AAT800     -0.1439
     15  C8        20.1150   34.5520    6.7210 C.3   800  AAT800      0.3377
     16  N7        19.8700   34.2260    5.4320 N.2   800  AAT800     -0.2095
     17  C5        18.8730   34.9980    5.1040 C.2   800  AAT800      0.2526
     18  C6        18.1520   35.1230    3.8090 C.2   800  AAT800      0.4393
     19  N6        18.4770   34.3680    2.6830 N.pl3 800  AAT800      0.2180
     20  N1        17.0850   36.0300    3.6670 N.2   800  AAT800      0.0021
     21  C2        16.7850   36.7660    4.8110 C.3   800  AAT800      0.5254
     22  N3        17.4070   36.7240    6.0650 N.2   800  AAT800     -0.0055
     23  C4        18.4790   35.8210    6.1990 C.2   800  AAT800      0.3518
     24  C11       23.6410   38.2720   12.0430 C.3   800  AAT800      0.0112
     25  C12       25.0800   38.7400   12.0320 C.3   800  AAT800      0.0056
     26  C13       25.9720   37.9360   12.9580 C.3   800  AAT800      0.0275
     27  C14       27.3170   37.4020   12.5000 C.2   800  AAT800     -0.0067
     28  C15       28.2250   36.6020   13.4140 C.2   800  AAT800      0.1012
     29  N16       29.4990   36.0030   13.2320 N.pl3 800  AAT800     -0.1270
@<TRIPOS>BOND
     1    19    18    1
     2    20    18    2
     3    20    21    1
     4    18    17    1
     5    21    22    1
     6    17    16    2
     7    17    23    1
     8    16    15    1
     9    22    23    2
    10    23    14    1
    11    15    14    1
    12    14    13    1
    13    13     8    1
    14    13    11    1
    15     8     7    1
    16    11    12    1
    17    11     9    1
    18     7     9    1
    19     7     6    1
    20     9    10    1
    21     6     5    1
    22    25    24    1
    23    25    26    1
    24    24     4    1
    25    27    26    1
    26    27    28    2
    27     5     4    1
    28     4     3    1
    29    29    28    1
    30     1     2    1
    31     3     2    1
