@<TRIPOS>MOLECULE
1jq5_NAD_A_1.pdb
 44 48 0 0 0
SMALL
GASTEIGER

@<TRIPOS>ATOM
      1  PA        25.7980   30.8690   24.4520 P.3   401  NAD401      0.2189
      2  O1A       26.7510   31.1600   23.3590 O.2   401  NAD401     -0.5170
      3  O2A       25.4160   32.1060   25.1990 O.3   401  NAD401     -0.4371
      4  O5B       26.3580   29.9540   25.5620 O.3   401  NAD401     -0.3112
      5  C5B       26.8270   28.6950   25.3730 C.3   401  NAD401      0.1813
      6  C4B       27.2480   28.3210   26.7470 C.3   401  NAD401      0.1821
      7  O4B       27.7550   26.9870   26.6700 O.3   401  NAD401     -0.3135
      8  C3B       28.3970   29.2060   27.3000 C.3   401  NAD401      0.2184
      9  O3B       28.2170   29.4430   28.7180 O.3   401  NAD401     -0.2174
     10  C2B       29.6140   28.3650   26.9480 C.3   401  NAD401      0.2570
     11  O2B       30.7100   28.5730   27.8790 O.3   401  NAD401     -0.2130
     12  C1B       29.0640   26.9560   27.0800 C.3   401  NAD401      0.3186
     13  N9A       29.7340   26.0260   26.2440 N.pl3 401  NAD401     -0.1439
     14  C8A       30.0380   26.0740   24.8990 C.3   401  NAD401      0.3377
     15  N7A       30.7000   24.9690   24.4760 N.2   401  NAD401     -0.2095
     16  C5A       30.8030   24.1990   25.6370 C.2   401  NAD401      0.2526
     17  C6A       31.3850   22.9270   25.8870 C.2   401  NAD401      0.4393
     18  N6A       31.9800   22.2010   24.9360 N.pl3 401  NAD401      0.2180
     19  N1A       31.3130   22.4400   27.1870 N.2   401  NAD401      0.0021
     20  C2A       30.6790   23.2130   28.1470 C.3   401  NAD401      0.5254
     21  N3A       30.1180   24.3890   27.9920 N.2   401  NAD401     -0.0055
     22  C4A       30.2100   24.8370   26.7190 C.2   401  NAD401      0.3518
     23  O3        24.5210   30.1010   23.9980 O.3   401  NAD401     -0.2703
     24  PN        24.0680   29.4230   22.5730 P.3   401  NAD401      0.2189
     25  O1N       22.7790   28.7370   22.8600 O.3   401  NAD401     -0.4371
     26  O2N       25.1200   28.4710   22.0560 O.2   401  NAD401     -0.5170
     27  O5D       23.9120   30.7370   21.7320 O.3   401  NAD401     -0.3112
     28  C5D       22.7900   31.5970   21.9000 C.3   401  NAD401      0.1813
     29  C4D       23.0890   32.7400   20.9920 C.3   401  NAD401      0.1799
     30  O4D       23.0190   32.2990   19.6090 O.3   401  NAD401     -0.3327
     31  C3D       22.1140   33.9260   21.1200 C.3   401  NAD401      0.2158
     32  O3D       22.7510   35.1890   21.4470 O.3   401  NAD401     -0.2175
     33  C2D       21.3560   33.8710   19.7500 C.3   401  NAD401      0.2309
     34  O2D       20.9020   35.1740   19.3620 O.3   401  NAD401     -0.2158
     35  C1D       22.4250   33.3260   18.8550 C.3   401  NAD401      0.2263
     36  N1N       21.9500   32.7550   17.5980 N.pl3 401  NAD401     -0.2787
     37  C2N       22.4590   33.4700   16.5630 C.3   401  NAD401      0.1244
     38  C3N       22.0980   33.1120   15.3640 C.2   401  NAD401      0.0544
     39  C7N       22.5220   33.7350   14.1010 C.2   401  NAD401      0.2818
     40  O7N       22.0230   33.2420   13.0650 O.2   401  NAD401     -0.2670
     41  N7N       23.4020   34.7850   14.0760 N.am  401  NAD401     -0.0839
     42  C4N       21.1730   31.9570   15.0590 C.2   401  NAD401      0.0033
     43  C5N       20.7410   31.2860   16.2430 C.2   401  NAD401      0.0157
     44  C6N       21.0850   31.6280   17.5450 C.2   401  NAD401      0.0633
@<TRIPOS>BOND
     1    40    39    2
     2    41    39   am
     3    39    38    1
     4    42    38    2
     5    42    43    1
     6    38    37    1
     7    43    44    2
     8    37    36    1
     9    44    36    1
    10    36    35    1
    11    35    30    1
    12    35    33    1
    13    34    33    1
    14    30    29    1
    15    33    31    1
    16    29    31    1
    17    29    28    1
    18    31    32    1
    19    27    28    1
    20    27    24    1
    21    26    24    2
    22    24    25    1
    23    24    23    1
    24     2     1    2
    25    23     1    1
    26     1     3    1
    27     1     4    1
    28    15    14    1
    29    15    16    2
    30    14    13    1
    31    18    17    1
    32     5     4    1
    33     5     6    1
    34    16    17    1
    35    16    22    1
    36    17    19    2
    37    13    22    1
    38    13    12    1
    39     7     6    1
    40     7    12    1
    41    22    21    2
    42     6     8    1
    43    10    12    1
    44    10     8    1
    45    10    11    1
    46    19    20    1
    47     8     9    1
    48    21    20    1
