@<TRIPOS>MOLECULE
1jq7_0FP_A_1.pdb
 43 43 0 0 0
SMALL
GASTEIGER

@<TRIPOS>ATOM
      1  N         41.6170   26.6720   85.1760 N.3   261  0FP261     -0.1231
      2  CA1       41.0300   26.6710   83.8350 C.3   261  0FP261      0.1692
      3  CB1       42.1580   26.6140   82.7300 C.3   261  0FP261      0.0248
      4  CG1       43.3800   25.8670   83.2730 C.3   261  0FP261      0.0019
      5  CG2       41.6400   25.8830   81.4660 C.3   261  0FP261      0.0019
      6  CG3       42.5710   28.0390   82.3380 C.3   261  0FP261      0.0019
      7  C1        40.0500   25.4980   83.6750 C.2   261  0FP261      0.2592
      8  O1        40.2280   24.4520   84.3040 O.2   261  0FP261     -0.2718
      9  N1        39.0230   25.6710   82.8400 N.am  261  0FP261     -0.1966
     10  CA2       38.0100   24.6200   82.6140 C.3   261  0FP261      0.1726
     11  CB2       36.7630   25.1640   81.8730 C.3   261  0FP261      0.0270
     12 CG11       37.2030   25.8660   80.5800 C.3   261  0FP261      0.0022
     13 CG21       35.8540   23.9860   81.5210 C.3   261  0FP261      0.0022
     14 CG31       35.9970   26.1570   82.7700 C.3   261  0FP261      0.0022
     15  C2        38.4750   23.3980   81.8110 C.2   261  0FP261      0.2616
     16  O2        39.0930   23.5370   80.7450 O.2   261  0FP261     -0.2715
     17  N2        38.1480   22.2070   82.3170 N.am  261  0FP261     -0.1958
     18  CA3       38.4980   20.9520   81.6490 C.3   261  0FP261      0.1818
     19  CB3       39.2970   20.0410   82.5930 C.3   261  0FP261      0.1163
     20  CG4       40.7980   20.2360   82.4520 C.2   261  0FP261      0.2280
     21  OD1       41.2730   20.5670   81.3630 O.2   261  0FP261     -0.2748
     22  ND2       41.5660   20.0050   83.5440 N.am  261  0FP261     -0.2760
     23  CE1       41.0990   19.5440   84.8650 C.3   261  0FP261      0.1149
     24  CE2       43.0270   20.2260   83.5130 C.3   261  0FP261      0.1149
     25  C3        37.2360   20.2260   81.1530 C.2   261  0FP261      0.2618
     26  O3        36.3710   19.8280   81.9540 O.2   261  0FP261     -0.2715
     27  N3        37.1400   20.0470   79.8330 N.am  261  0FP261     -0.2026
     28  CA4       35.9850   19.3820   79.2210 C.3   261  0FP261      0.1347
     29  C4        36.2460   17.8760   78.8800 C.3   261  0FP261      0.2487
     30  O4        35.0820   17.3570   78.3050 O.3   261  0FP261     -0.2113
     31  CB4       35.5830   20.1290   77.9460 C.3   261  0FP261      0.0267
     32  C11       36.6460   17.0560   80.1330 C.2   261  0FP261      0.2739
     33  O11       37.7210   17.2700   80.6730 O.2   261  0FP261     -0.2705
     34  N21       35.8320   16.1010   80.5910 N.am  261  0FP261     -0.2005
     35  C31       36.1630   15.3060   81.7890 C.3   261  0FP261      0.1175
     36 C311       37.4580   14.4850   81.5870 C.3   261  0FP261      0.0262
     37  C32       37.1710   13.1050   80.9710 C.3   261  0FP261      0.0022
     38  C41       35.0380   14.3810   82.1940 C.ar  261  0FP261     -0.0026
     39  C5        34.0440   14.0140   81.3010 C.ar  261  0FP261     -0.0026
     40  C6        33.0300   13.1290   81.6980 C.ar  261  0FP261     -0.0003
     41  C7        33.0100   12.6060   82.9970 C.ar  261  0FP261     -0.0000
     42  C8        33.9950   12.9690   83.8870 C.ar  261  0FP261     -0.0003
     43  C9        35.0020   13.8530   83.4860 C.ar  261  0FP261     -0.0026
@<TRIPOS>BOND
     1    31    28    1
     2    30    29    1
     3    29    28    1
     4    29    32    1
     5    28    27    1
     6    27    25   am
     7    32    34   am
     8    32    33    2
     9    12    11    1
    10    34    35    1
    11    16    15    2
    12    37    36    1
    13    25    18    1
    14    25    26    2
    15    39    40   ar
    16    39    38   ar
    17    21    20    2
    18     5     3    1
    19    13    11    1
    20    36    35    1
    21    18    17    1
    22    18    19    1
    23    40    41   ar
    24    35    38    1
    25    15    17   am
    26    15    10    1
    27    11    10    1
    28    11    14    1
    29    38    43   ar
    30     6     3    1
    31    20    19    1
    32    20    22   am
    33    10     9    1
    34     3     4    1
    35     3     2    1
    36     9     7   am
    37    41    42   ar
    38    43    42   ar
    39    24    22    1
    40    22    23    1
    41     7     2    1
    42     7     8    2
    43     2     1    1
