@<TRIPOS>MOLECULE
1jq8_III_P_1.pdb
 40 40 0 0 0
SMALL
GASTEIGER

@<TRIPOS>ATOM
      1  N          9.9060   15.7700   37.3930 N.3     1  LEU1       -0.1231
      2  CA         9.0230   16.9600   37.4950 C.3     1  LEU1        0.1693
      3  C          9.8540   18.1800   37.8930 C.2     1  LEU1        0.2592
      4  O         11.0100   18.0540   38.3070 O.2     1  LEU1       -0.2718
      5  CB         7.9390   16.7100   38.5480 C.3     1  LEU1        0.0284
      6  CG         6.5120   17.2500   38.3840 C.3     1  LEU1        0.0019
      7  CD1        6.4390   18.2960   37.2830 C.3     1  LEU1        0.0001
      8  CD2        5.5880   16.0870   38.0710 C.3     1  LEU1        0.0001
      9  N          9.2600   19.3600   37.7560 N.am    2  ALA2       -0.1966
     10  CA         9.9280   20.6050   38.1120 C.3     2  ALA2        0.1728
     11  C         10.4790   20.4350   39.5250 C.2     2  ALA2        0.2616
     12  O          9.8690   19.7440   40.3240 O.2     2  ALA2       -0.2715
     13  CB         8.9300   21.7390   38.0720 C.3     2  ALA2        0.0334
     14  N         11.6160   21.0590   39.8340 N.am    3  ILE3       -0.1963
     15  CA        12.2350   20.9540   41.1670 C.3     3  ILE3        0.1727
     16  C         12.7110   22.3290   41.6560 C.2     3  ILE3        0.2616
     17  O         12.6620   23.3020   40.9070 O.2     3  ILE3       -0.2715
     18  CB        13.4940   20.0800   41.1310 C.3     3  ILE3        0.0290
     19  CG1       13.9330   19.7280   42.5570 C.3     3  ILE3        0.0022
     20  CG2       14.6040   20.8460   40.4160 C.3     3  ILE3        0.0023
     21  CD1       15.4090   19.4820   42.7380 C.3     3  ILE3        0.0001
     22  N         13.1440   22.4150   42.9030 N.am    4  TYR4       -0.1960
     23  CA        13.7030   23.6520   43.3930 C.3     4  TYR4        0.1771
     24  C         15.1970   23.5630   43.0690 C.2     4  TYR4        0.2621
     25  O         15.9720   22.9800   43.8170 O.2     4  TYR4       -0.2715
     26  CB        13.3650   23.8970   44.8820 C.3     4  TYR4        0.0574
     27  CG        14.4860   23.7370   45.9200 C.ar    4  TYR4       -0.0198
     28  CD1       15.6310   24.5330   45.9230 C.ar    4  TYR4       -0.0009
     29  CD2       14.3710   22.7480   46.8990 C.ar    4  TYR4       -0.0009
     30  CE1       16.6390   24.3360   46.8690 C.ar    4  TYR4        0.0417
     31  CE2       15.3650   22.5490   47.8410 C.ar    4  TYR4        0.0417
     32  CZ        16.4930   23.3370   47.8180 C.ar    4  TYR4        0.1957
     33  OH        17.4860   23.1350   48.7540 O.3     4  TYR4       -0.2866
     34  N         15.5340   24.1240   41.9310 N.am    5  SER5       -0.1914
     35  CA        16.8960   24.1240   41.3970 C.3     5  SER5        0.2304
     36  C         17.9590   24.4720   42.4230 C.2     5  SER5        0.3869
     37  O         17.6670   24.6320   43.6050 O.co2   5  SER5       -0.2437
     38  CB        16.5780   24.7590   40.0370 C.3     5  SER5        0.2152
     39  OG        17.9160   25.1700   39.8350 O.3     5  SER5       -0.2179
     40  OXT       19.2190   24.0740   42.0110 O.co2   5  SER5       -0.2437
@<TRIPOS>BOND
     1     7     6    1
     2     1     2    1
     3     2     3    1
     4     2     5    1
     5     9     3   am
     6     9    10    1
     7     3     4    2
     8     8     6    1
     9    13    10    1
    10    10    11    1
    11     6     5    1
    12    11    14   am
    13    11    12    2
    14    14    15    1
    15    39    38    1
    16    38    35    1
    17    20    18    1
    18    17    16    2
    19    18    15    1
    20    18    19    1
    21    15    16    1
    22    35    34    1
    23    35    36    1
    24    16    22   am
    25    34    24   am
    26    40    36   ar
    27    36    37   ar
    28    19    21    1
    29    22    23    1
    30    24    23    1
    31    24    25    2
    32    23    26    1
    33    26    27    1
    34    27    28   ar
    35    27    29   ar
    36    28    30   ar
    37    30    32   ar
    38    29    31   ar
    39    32    31   ar
    40    32    33    1
