@<TRIPOS>MOLECULE
1jq9_III_P_1.pdb
 47 48 0 0 0
SMALL
GASTEIGER

@<TRIPOS>ATOM
      1  N          8.5750   15.7090   38.3060 N.3     1  PHE1       -0.1227
      2  CA         9.6020   15.8610   37.2350 C.3     1  PHE1        0.1736
      3  C          9.8300   17.3450   36.9780 C.2     1  PHE1        0.2595
      4  O          9.8030   17.7720   35.8240 O.2     1  PHE1       -0.2718
      5  CB         9.1170   15.2150   35.9330 C.3     1  PHE1        0.0547
      6  CG         8.0920   14.1340   36.1310 C.ar    1  PHE1       -0.0202
      7  CD1        8.4280   12.9400   36.7600 C.ar    1  PHE1       -0.0042
      8  CD2        6.7800   14.3170   35.7000 C.ar    1  PHE1       -0.0042
      9  CE1        7.4730   11.9440   36.9590 C.ar    1  PHE1       -0.0003
     10  CE2        5.8180   13.3280   35.8960 C.ar    1  PHE1       -0.0003
     11  CZ         6.1640   12.1390   36.5260 C.ar    1  PHE1       -0.0000
     12  N         10.1140   17.7640   38.5350 N.am    2  LEU2       -0.1966
     13  CA        10.3180   19.2050   38.4100 C.3     2  LEU2        0.1728
     14  C         10.7950   20.0580   39.5860 C.2     2  LEU2        0.2617
     15  O         10.3390   21.1900   39.7310 O.2     2  LEU2       -0.2715
     16  CB         9.0340   19.8430   37.8730 C.3     2  LEU2        0.0311
     17  CG         7.6400   19.5000   38.4290 C.3     2  LEU2        0.0022
     18  CD1        7.2160   18.1030   38.0040 C.3     2  LEU2        0.0001
     19  CD2        7.6400   19.6160   39.9250 C.3     2  LEU2        0.0001
     20  N         11.7100   19.5640   40.4120 N.am    3  SER3       -0.1936
     21  CA        12.1740   20.3780   41.5350 C.3     3  SER3        0.2055
     22  C         13.6800   20.6050   41.5720 C.2     3  SER3        0.2643
     23  O         14.4560   19.6990   41.2890 O.2     3  SER3       -0.2714
     24  CB        11.7240   19.7650   42.8580 C.3     3  SER3        0.2130
     25  OG        12.1760   20.5610   43.9390 O.3     3  SER3       -0.2179
     26  N         14.0810   21.8210   41.9330 N.am    4  TYR4       -0.1959
     27  CA        15.4940   22.1830   42.0050 C.3     4  TYR4        0.1771
     28  C         15.9400   22.1160   43.4620 C.2     4  TYR4        0.2620
     29  O         15.3160   21.4330   44.2750 O.2     4  TYR4       -0.2715
     30  CB        15.6850   23.6030   41.4590 C.3     4  TYR4        0.0574
     31  CG        17.0160   23.8740   40.7800 C.ar    4  TYR4       -0.0198
     32  CD1       18.0890   24.4260   41.4820 C.ar    4  TYR4       -0.0009
     33  CD2       17.1870   23.6100   39.4210 C.ar    4  TYR4       -0.0009
     34  CE1       19.2980   24.7160   40.8420 C.ar    4  TYR4        0.0417
     35  CE2       18.3870   23.8930   38.7750 C.ar    4  TYR4        0.0417
     36  CZ        19.4360   24.4480   39.4880 C.ar    4  TYR4        0.1957
     37  OH        20.6120   24.7520   38.8410 O.3     4  TYR4       -0.2866
     38  N         17.0230   22.8160   43.7850 N.am    5  LYS5       -0.1941
     39  CA        17.4770   22.8520   45.1510 C.3     5  LYS5        0.1978
     40  C         18.0450   21.5090   45.6040 C.2     5  LYS5        0.3842
     41  O         17.9440   21.1520   46.7730 O.co2   5  LYS5       -0.2437
     42  CB        16.3280   23.2500   46.0730 C.3     5  LYS5        0.0333
     43  CG        16.6650   24.4650   46.8830 C.3     5  LYS5        0.0039
     44  CD        18.0620   24.4670   47.2200 C.3     5  LYS5        0.0206
     45  CE        18.8530   25.1120   46.5700 C.3     5  LYS5        0.1093
     46  NZ        19.9650   25.8140   47.2620 N.3     5  LYS5       -0.1314
     47  OXT       18.9400   20.9320   44.9460 O.co2   5  LYS5       -0.2437
@<TRIPOS>BOND
     1     8    10   ar
     2     8     6   ar
     3     4     3    2
     4    10    11   ar
     5     5     6    1
     6     5     2    1
     7     6     7   ar
     8    11     9   ar
     9     7     9   ar
    10     3     2    1
    11     3    12   am
    12     2     1    1
    13    16    13    1
    14    16    17    1
    15    18    17    1
    16    13    12    1
    17    13    14    1
    18    17    19    1
    19    35    33   ar
    20    35    36   ar
    21    37    36    1
    22    33    31   ar
    23    36    34   ar
    24    14    15    2
    25    14    20   am
    26    20    21    1
    27    31    30    1
    28    31    32   ar
    29    34    32   ar
    30    23    22    2
    31    30    27    1
    32    21    22    1
    33    21    24    1
    34    22    26   am
    35    26    27    1
    36    27    28    1
    37    24    25    1
    38    28    38   am
    39    28    29    2
    40    38    39    1
    41    47    40   ar
    42    39    40    1
    43    39    42    1
    44    40    41   ar
    45    42    43    1
    46    45    44    1
    47    45    46    1
    48    43    44    1
