@<TRIPOS>MOLECULE
1jqd_SAH_A_1.pdb
 26 28 0 0 0
SMALL
GASTEIGER

@<TRIPOS>ATOM
      1  N         41.9950  -23.2310   -0.6930 N.3   400  SAH400     -0.1208
      2  CA        43.3370  -23.9400   -0.3730 C.3   400  SAH400      0.1952
      3  CB        43.2460  -25.4210   -0.8620 C.3   400  SAH400      0.0422
      4  CG        42.2290  -26.1880   -0.1680 C.3   400  SAH400      0.0597
      5  SD        42.8660  -27.4470    0.8810 S.3   400  SAH400     -0.1375
      6  C         44.4870  -23.3630   -1.1810 C.2   400  SAH400      0.3819
      7  O         44.2200  -23.0940   -2.3970 O.co2 400  SAH400     -0.2441
      8  OXT       45.6610  -23.6460   -0.8290 O.co2 400  SAH400     -0.2441
      9  C5'       41.2850  -27.6290    1.7190 C.3   400  SAH400      0.0899
     10  C4'       41.0400  -26.5490    2.7860 C.3   400  SAH400      0.1630
     11  O4'       39.6880  -26.7880    3.2020 O.3   400  SAH400     -0.3153
     12  C3'       41.9820  -26.7020    4.0540 C.3   400  SAH400      0.2168
     13  O3'       42.5470  -25.4180    4.5000 O.3   400  SAH400     -0.2175
     14  C2'       40.9480  -27.2130    5.0190 C.3   400  SAH400      0.2569
     15  O2'       41.1780  -26.9930    6.3780 O.3   400  SAH400     -0.2130
     16  C1'       39.6510  -26.5530    4.5570 C.3   400  SAH400      0.3185
     17  N9        38.3840  -27.1530    4.9780 N.pl3 400  SAH400     -0.1439
     18  C8        38.1510  -28.5230    5.3180 C.3   400  SAH400      0.3377
     19  N7        36.9270  -28.7490    5.5670 N.2   400  SAH400     -0.2095
     20  C5        36.2710  -27.5280    5.4160 C.2   400  SAH400      0.2526
     21  C6        34.8990  -27.1010    5.5240 C.2   400  SAH400      0.4393
     22  N6        33.9370  -28.0030    5.7500 N.pl3 400  SAH400      0.2180
     23  N1        34.5590  -25.7330    5.3580 N.2   400  SAH400      0.0021
     24  C2        35.5600  -24.8210    5.0320 C.3   400  SAH400      0.5254
     25  N3        36.8400  -25.1480    4.8430 N.2   400  SAH400     -0.0055
     26  C4        37.1600  -26.5080    5.0670 C.2   400  SAH400      0.3518
@<TRIPOS>BOND
     1     7     6   ar
     2     6     8   ar
     3     6     2    1
     4     3     2    1
     5     3     4    1
     6     1     2    1
     7     4     5    1
     8     5     9    1
     9     9    10    1
    10    10    11    1
    11    10    12    1
    12    11    16    1
    13    12    13    1
    14    12    14    1
    15    16    17    1
    16    16    14    1
    17    25    24    1
    18    25    26    2
    19    17    26    1
    20    17    18    1
    21    14    15    1
    22    24    23    1
    23    26    20    1
    24    18    19    1
    25    23    21    2
    26    20    21    1
    27    20    19    2
    28    21    22    1
