@<TRIPOS>MOLECULE
1jqe_SAH_A_1.pdb
 26 28 0 0 0
SMALL
GASTEIGER

@<TRIPOS>ATOM
      1  N         41.2960  -23.4260   -0.5900 N.3   400  SAH400     -0.1159
      2  CA        42.7670  -23.8350   -0.2350 C.3   400  SAH400      0.2168
      3  CB        42.9260  -25.2870    0.1900 C.2   400  SAH400      0.0105
      4  CG        41.9510  -25.8420    0.8900 C.2   400  SAH400      0.0284
      5  SD        42.1370  -27.6000    1.2930 S.3   400  SAH400     -0.1108
      6  C         43.6550  -23.8510   -1.4330 C.2   400  SAH400      0.3860
      7  O         43.0590  -24.2940   -2.4860 O.co2 400  SAH400     -0.2437
      8  OXT       44.8990  -23.9530   -1.2580 O.co2 400  SAH400     -0.2437
      9  C5'       40.4370  -27.6680    1.9580 C.3   400  SAH400      0.0945
     10  C4'       40.1370  -26.6110    3.0160 C.3   400  SAH400      0.1634
     11  O4'       38.7830  -26.7910    3.3750 O.3   400  SAH400     -0.3152
     12  C3'       41.0630  -26.7430    4.2950 C.3   400  SAH400      0.2168
     13  O3'       41.7720  -25.5420    4.6460 O.3   400  SAH400     -0.2175
     14  C2'       40.0310  -27.1570    5.2810 C.3   400  SAH400      0.2569
     15  O2'       40.3090  -26.9610    6.6140 O.3   400  SAH400     -0.2130
     16  C1'       38.7480  -26.5240    4.7380 C.3   400  SAH400      0.3185
     17  N9        37.4750  -27.1330    5.1210 N.pl3 400  SAH400     -0.1439
     18  C8        37.2060  -28.5090    5.4240 C.3   400  SAH400      0.3377
     19  N7        35.9660  -28.6910    5.6790 N.2   400  SAH400     -0.2095
     20  C5        35.3680  -27.4800    5.5610 C.2   400  SAH400      0.2526
     21  C6        34.0140  -27.0040    5.7100 C.2   400  SAH400      0.4393
     22  N6        33.0100  -27.8580    6.0230 N.pl3 400  SAH400      0.2180
     23  N1        33.7010  -25.6390    5.5250 N.2   400  SAH400      0.0021
     24  C2        34.7070  -24.7690    5.1980 C.3   400  SAH400      0.5254
     25  N3        36.0320  -25.1050    5.0160 N.2   400  SAH400     -0.0055
     26  C4        36.3000  -26.4720    5.2130 C.2   400  SAH400      0.3518
@<TRIPOS>BOND
     1     7     6   ar
     2     6     8   ar
     3     6     2    1
     4     1     2    1
     5     2     3    1
     6     3     4    2
     7     4     5    1
     8     5     9    1
     9     9    10    1
    10    10    11    1
    11    10    12    1
    12    11    16    1
    13    12    13    1
    14    12    14    1
    15    16    17    1
    16    16    14    1
    17    25    24    1
    18    25    26    2
    19    17    26    1
    20    17    18    1
    21    24    23    1
    22    26    20    1
    23    14    15    1
    24    18    19    1
    25    23    21    2
    26    20    19    2
    27    20    21    1
    28    21    22    1
