@<TRIPOS>MOLECULE
1jqe_QUN_A_1.pdb
 28 30 0 0 0
SMALL
GASTEIGER

@<TRIPOS>ATOM
      1  C1        41.6650  -31.1290    4.2750 C.2   500  QUN500      0.1353
      2  C2        40.4360  -30.7000    5.0250 C.2   500  QUN500      0.0389
      3  C3        39.4220  -31.7070    5.4890 C.2   500  QUN500      0.0313
      4  C4        39.6240  -33.1750    5.2080 C.2   500  QUN500      0.1182
      5  C5        40.9070  -33.6220    4.4270 C.3   500  QUN500      0.1145
      6  C6        41.8640  -32.5680    4.0010 C.2   500  QUN500      0.0232
      7  N1        38.6510  -34.1250    5.6560 N.2   500  QUN500     -0.4055
      8  C7        38.8290  -35.5270    5.3920 C.ar  500  QUN500      0.1328
      9  C8        40.0720  -36.0780    4.6280 C.ar  500  QUN500      0.0411
     10  C9        41.1140  -35.1620    4.1350 C.2   500  QUN500      0.0559
     11  C10       37.8190  -36.5020    5.8680 C.ar  500  QUN500      0.0434
     12  C11       38.0080  -37.9840    5.5990 C.ar  500  QUN500      0.0602
     13  C12       39.1880  -38.4890    4.8670 C.ar  500  QUN500      0.0116
     14  C13       40.2050  -37.5440    4.3850 C.ar  500  QUN500      0.0044
     15 CL         36.8820  -39.0590    6.1370 Cl    500  QUN500     -0.0822
     16  O         42.6930  -30.0960    3.7940 O.2   500  QUN500     -0.4717
     17  C14       43.5960  -29.6970    4.7700 C.3   500  QUN500      0.2525
     18  N2        42.3760  -35.8550    3.3560 N.pl3 500  QUN500     -0.2428
     19  C15       42.9940  -35.5190    1.9830 C.3   500  QUN500      0.0922
     20  C16       43.9280  -34.3130    2.0780 C.3   500  QUN500      0.0233
     21  C17       41.9070  -35.3260    1.0170 C.3   500  QUN500      0.0230
     22  C18       42.2820  -34.9680   -0.3890 C.3   500  QUN500      0.0191
     23  C19       40.9470  -34.8860   -0.9480 C.3   500  QUN500      0.0721
     24  N3        40.7170  -34.4950   -2.3570 N.3   500  QUN500     -0.2727
     25  C20       39.2470  -34.5690   -2.4480 C.3   500  QUN500      0.0721
     26  C21       41.3410  -35.3620   -3.4010 C.3   500  QUN500      0.0721
     27  C22       38.5020  -35.9590   -2.2620 C.3   500  QUN500      0.0188
     28  C23       41.0260  -34.7940   -4.8390 C.3   500  QUN500      0.0188
@<TRIPOS>BOND
     1    28    26    1
     2    26    24    1
     3    25    24    1
     4    25    27    1
     5    24    23    1
     6    23    22    1
     7    22    21    1
     8    21    19    1
     9    19    20    1
    10    19    18    1
    11    18    10    1
    12    16     1    1
    13    16    17    1
    14     6     1    2
    15     6     5    1
    16    10     5    1
    17    10     9    2
    18     1     2    1
    19    14     9   ar
    20    14    13   ar
    21     5     4    1
    22     9     8   ar
    23    13    12   ar
    24     2     3    2
    25     4     3    1
    26     4     7    2
    27     8     7    2
    28     8    11   ar
    29    12    11   ar
    30    12    15    1
