@<TRIPOS>MOLECULE
1jqh_ANP_A_1.pdb
 31 33 0 0 0
SMALL
GASTEIGER

@<TRIPOS>ATOM
      1  PG       -23.9100   56.0970   -5.9130 P.3   301  ANP301      0.4884
      2  O1G      -23.2720   54.9410   -5.1540 O.3   301  ANP301     -0.1240
      3  O2G      -25.0450   56.7610   -5.1950 O.3   301  ANP301     -0.1240
      4  O3G      -22.8790   57.1270   -6.3800 O.2   301  ANP301     -0.2331
      5  PB       -26.1700   55.2090   -7.7190 P.3   301  ANP301      0.4669
      6  O1B      -26.6580   54.5370   -6.4220 O.3   301  ANP301     -0.1253
      7  O2B      -26.4960   54.4080   -8.8700 O.2   301  ANP301     -0.2351
      8  N3B      -24.5780   55.4140   -7.3170 N.3   301  ANP301     -0.0163
      9  PA       -26.6130   58.1460   -8.1030 P.3   301  ANP301      0.2220
     10  O1A      -26.9000   58.9250   -6.7800 O.3   301  ANP301     -0.4370
     11  O2A      -25.1780   58.2320   -8.4190 O.2   301  ANP301     -0.5170
     12  O3A      -27.0250   56.6090   -7.8440 O.3   301  ANP301     -0.2360
     13  O5'      -27.5480   58.7960   -9.1670 O.3   301  ANP301     -0.3111
     14  C5'      -27.5800   58.3240  -10.5020 C.3   301  ANP301      0.1813
     15  C4'      -28.5460   59.3070  -11.2680 C.3   301  ANP301      0.1821
     16  O4'      -29.9040   59.0700  -10.9590 O.3   301  ANP301     -0.3135
     17  C3'      -28.4580   60.7670  -10.9380 C.3   301  ANP301      0.2184
     18  O3'      -28.7850   61.4660  -12.1140 O.3   301  ANP301     -0.2174
     19  C2'      -29.5460   61.0100   -9.8950 C.3   301  ANP301      0.2570
     20  O2'      -30.1360   62.2860   -9.8340 O.3   301  ANP301     -0.2130
     21  C1'      -30.6060   60.0480  -10.1870 C.3   301  ANP301      0.3186
     22  N9       -31.4050   59.5700   -8.9810 N.pl3 301  ANP301     -0.1439
     23  C8       -31.0910   58.5760   -8.1260 C.3   301  ANP301      0.3377
     24  N7       -32.0410   58.4310   -7.1880 N.2   301  ANP301     -0.2095
     25  C5       -32.9750   59.3570   -7.4610 C.2   301  ANP301      0.2526
     26  C6       -34.2440   59.6630   -6.7730 C.2   301  ANP301      0.4393
     27  N6       -34.6350   58.9470   -5.6670 N.pl3 301  ANP301      0.2180
     28  N1       -35.0520   60.6980   -7.2750 N.2   301  ANP301      0.0021
     29  C2       -34.5970   61.3680   -8.3810 C.3   301  ANP301      0.5254
     30  N3       -33.4310   61.0870   -9.0080 N.2   301  ANP301     -0.0055
     31  C4       -32.5850   60.0890   -8.5880 C.2   301  ANP301      0.3518
@<TRIPOS>BOND
     1    18    17    1
     2    15    16    1
     3    15    17    1
     4    15    14    1
     5    16    21    1
     6    17    19    1
     7    14    13    1
     8    21    19    1
     9    21    22    1
    10    19    20    1
    11    13     9    1
    12    30    31    2
    13    30    29    1
    14    22    31    1
    15    22    23    1
    16     7     5    2
    17    31    25    1
    18    11     9    2
    19    29    28    1
    20    23    24    1
    21     9    12    1
    22     9    10    1
    23    12     5    1
    24     5     8    1
    25     5     6    1
    26    25    24    2
    27    25    26    1
    28     8     1    1
    29    28    26    2
    30    26    27    1
    31     4     1    2
    32     1     3    1
    33     1     2    1
