@<TRIPOS>MOLECULE
1jqn_DCO_A_1.pdb
 12 11 0 0 0
SMALL
GASTEIGER

@<TRIPOS>ATOM
      1  O1        20.5520   34.1650  -12.0600 O.co2 901  DCO901     -0.2408
      2  C1        21.2720   33.3200  -12.8360 C.2   901  DCO901      0.3859
      3  O2        20.6550   32.6060  -13.7260 O.co2 901  DCO901     -0.2408
      4  C2        22.7270   33.2520  -12.7480 C.2   901  DCO901      0.0860
      5  C3        23.4970   33.2910  -14.0470 C.3   901  DCO901      0.0936
      6  P1        23.9990   31.5620  -14.7330 P.3   901  DCO901      0.1218
      7  O3        22.7030   30.5710  -14.7620 O.3   901  DCO901     -0.3569
      8  O4        24.5310   31.9860  -16.2840 O.2   901  DCO901     -0.4598
      9  O5        25.2330   31.0270  -13.7870 O.3   901  DCO901     -0.3569
     10  C4        23.3580   33.3180  -11.5290 C.2   901  DCO901      0.1177
     11 CL1        22.4610   33.4600  -10.0780 Cl    901  DCO901     -0.0699
     12 CL2        25.0570   33.2410  -11.2710 Cl    901  DCO901     -0.0699
@<TRIPOS>BOND
     1     8     6    2
     2     7     6    1
     3     6     5    1
     4     6     9    1
     5     5     4    1
     6     3     2   ar
     7     2     4    1
     8     2     1   ar
     9     4    10    2
    10    10    12    1
    11    10    11    1
