@<TRIPOS>MOLECULE
1jqv_FMN_A_1.pdb
 31 33 0 0 0
SMALL
GASTEIGER

@<TRIPOS>ATOM
      1  N1        14.6140   15.7860   14.2710 N.2   1312  FMN1312    -0.2890
      2  C2        13.6330   16.6360   13.8250 C.1   1312  FMN1312     0.3669
      3  O2        13.0750   16.5080   12.7550 O.2   1312  FMN1312    -0.1744
      4  N3        13.3220   17.6880   14.7110 N.2   1312  FMN1312    -0.2300
      5  C4        13.9050   17.9460   15.9650 C.1   1312  FMN1312     0.2513
      6  O4        13.4940   18.9360   16.5990 O.2   1312  FMN1312    -0.2057
      7  C4A       14.9410   16.9690   16.3110 C.2   1312  FMN1312     0.2700
      8  N5        15.5810   17.1720   17.5320 N.2   1312  FMN1312    -0.3878
      9  C5A       16.6000   16.3130   17.9420 C.2   1312  FMN1312     0.1320
     10  C6        17.2210   16.5800   19.1480 C.2   1312  FMN1312     0.0250
     11  C7        18.2720   15.7240   19.5560 C.2   1312  FMN1312    -0.0238
     12  C7M       19.0360   15.9900   20.9200 C.3   1312  FMN1312     0.0308
     13  C8        18.6640   14.6020   18.7260 C.2   1312  FMN1312    -0.0280
     14  C8M       19.8110   13.6630   19.1550 C.3   1312  FMN1312     0.0304
     15  C9        18.0290   14.3470   17.5310 C.2   1312  FMN1312    -0.0041
     16  C9A       16.9940   15.1860   17.1050 C.3   1312  FMN1312     0.1497
     17  N10       16.3030   14.9810   15.8430 N.pl3 1312  FMN1312    -0.2691
     18  C10       15.3060   15.8610   15.4540 C.2   1312  FMN1312     0.2416
     19  C1'       16.6010   13.9400   14.9920 C.3   1312  FMN1312     0.1294
     20  C2'       17.7150   14.3170   13.9820 C.3   1312  FMN1312     0.2044
     21  O2'       17.3600   15.3460   13.0830 O.3   1312  FMN1312    -0.2185
     22  C3'       18.3120   13.0940   13.3060 C.3   1312  FMN1312     0.2164
     23  O3'       17.2520   12.7460   12.3870 O.3   1312  FMN1312    -0.2175
     24  C4'       18.7850   11.9480   14.3160 C.3   1312  FMN1312     0.2147
     25  O4'       19.5600   12.3860   15.4140 O.3   1312  FMN1312    -0.2176
     26  C5'       19.4000   10.8410   13.4630 C.3   1312  FMN1312     0.1892
     27  O5'       20.7140   11.3790   13.0430 O.3   1312  FMN1312    -0.2674
     28  P         22.1490   11.1190   13.7420 P.3   1312  FMN1312     0.5327
     29  O1P       22.3950    9.6630   13.6030 O.3   1312  FMN1312    -0.1145
     30  O2P       21.9980   11.5890   15.1550 O.3   1312  FMN1312    -0.1145
     31  O3P       23.2020   11.8630   13.0030 O.2   1312  FMN1312    -0.2224
@<TRIPOS>BOND
     1    23    22    1
     2     3     2    2
     3    31    28    2
     4    27    26    1
     5    27    28    1
     6    21    20    1
     7    22    20    1
     8    22    24    1
     9    26    24    1
    10    29    28    1
    11    28    30    1
    12     2     1    2
    13     2     4    2
    14    20    19    1
    15     1    18    2
    16    24    25    1
    17     4     5    2
    18    19    17    1
    19    18    17    1
    20    18     7    1
    21    17    16    1
    22     5     7    1
    23     5     6    2
    24     7     8    2
    25    16    15    1
    26    16     9    1
    27    15    13    2
    28     8     9    2
    29     9    10    1
    30    13    14    1
    31    13    11    1
    32    10    11    2
    33    11    12    1
