@<TRIPOS>MOLECULE
1jqv_ORO_A_1.pdb
 11 11 0 0 0
SMALL
GASTEIGER

@<TRIPOS>ATOM
      1  N1        13.7790   14.2510   19.2210 N.2   1313  ORO1313    -0.3044
      2  C2        14.0370   13.4070   18.1180 C.1   1313  ORO1313     0.3651
      3  O2        14.8910   12.5050   18.1470 O.2   1313  ORO1313    -0.1745
      4  N3        13.2480   13.6740   16.9830 N.2   1313  ORO1313    -0.2366
      5  C4        12.2540   14.6750   16.8560 C.1   1313  ORO1313     0.2010
      6  O4        11.6230   14.8240   15.8120 O.2   1313  ORO1313    -0.2129
      7  C5        12.0560   15.5000   18.0520 C.3   1313  ORO1313     0.2022
      8  C6        12.8100   15.2680   19.1760 C.2   1313  ORO1313     0.2212
      9  C7        12.6540   16.0910   20.4540 C.2   1313  ORO1313     0.4149
     10  O71       12.6180   17.3420   20.3420 O.co2 1313  ORO1313    -0.2380
     11  O72       12.5820   15.4200   21.5020 O.co2 1313  ORO1313    -0.2380
@<TRIPOS>BOND
     1     6     5    2
     2     5     4    2
     3     5     7    1
     4     4     2    2
     5     7     8    1
     6     2     3    2
     7     2     1    2
     8     8     1    2
     9     8     9    1
    10    10     9   ar
    11     9    11   ar
