@<TRIPOS>MOLECULE
1jqx_FMN_A_1.pdb
 31 33 0 0 0
SMALL
GASTEIGER

@<TRIPOS>ATOM
      1  N1        14.7270   15.8850   14.2700 N.2   1312  FMN1312    -0.2890
      2  C2        13.7650   16.7430   13.8040 C.1   1312  FMN1312     0.3669
      3  O2        13.2310   16.6090   12.7270 O.2   1312  FMN1312    -0.1744
      4  N3        13.4620   17.8150   14.6710 N.2   1312  FMN1312    -0.2300
      5  C4        14.0320   18.0680   15.9340 C.1   1312  FMN1312     0.2513
      6  O4        13.6480   19.0660   16.5570 O.2   1312  FMN1312    -0.2057
      7  C4A       15.0500   17.0900   16.2940 C.2   1312  FMN1312     0.2700
      8  N5        15.6750   17.2960   17.5220 N.2   1312  FMN1312    -0.3878
      9  C5A       16.6850   16.4330   17.9320 C.2   1312  FMN1312     0.1320
     10  C6        17.3100   16.7030   19.1260 C.2   1312  FMN1312     0.0250
     11  C7        18.3590   15.8460   19.5290 C.2   1312  FMN1312    -0.0238
     12  C7M       19.1300   16.1180   20.8810 C.3   1312  FMN1312     0.0308
     13  C8        18.7520   14.7290   18.7080 C.2   1312  FMN1312    -0.0280
     14  C8M       19.9080   13.8050   19.1330 C.3   1312  FMN1312     0.0304
     15  C9        18.1070   14.4620   17.5260 C.2   1312  FMN1312    -0.0041
     16  C9A       17.0740   15.3000   17.1040 C.3   1312  FMN1312     0.1497
     17  N10       16.3860   15.0840   15.8540 N.pl3 1312  FMN1312    -0.2691
     18  C10       15.3970   15.9610   15.4600 C.2   1312  FMN1312     0.2416
     19  C1'       16.6790   14.0260   15.0190 C.3   1312  FMN1312     0.1294
     20  C2'       17.7920   14.3880   14.0100 C.3   1312  FMN1312     0.2044
     21  O2'       17.4600   15.4470   13.1460 O.3   1312  FMN1312    -0.2185
     22  C3'       18.3690   13.1720   13.3050 C.3   1312  FMN1312     0.2164
     23  O3'       17.2910   12.8290   12.3990 O.3   1312  FMN1312    -0.2175
     24  C4'       18.8230   12.0100   14.2930 C.3   1312  FMN1312     0.2147
     25  O4'       19.5470   12.4230   15.4280 O.3   1312  FMN1312    -0.2176
     26  C5'       19.4520   10.9240   13.4240 C.3   1312  FMN1312     0.1892
     27  O5'       20.7720   11.4690   13.0190 O.3   1312  FMN1312    -0.2674
     28  P         22.2080   11.1860   13.7090 P.3   1312  FMN1312     0.5327
     29  O1P       22.4360    9.7220   13.5610 O.3   1312  FMN1312    -0.1145
     30  O2P       22.0550   11.6440   15.1390 O.3   1312  FMN1312    -0.1145
     31  O3P       23.2690   11.9430   12.9930 O.2   1312  FMN1312    -0.2224
@<TRIPOS>BOND
     1    23    22    1
     2     3     2    2
     3    31    28    2
     4    27    26    1
     5    27    28    1
     6    21    20    1
     7    22    20    1
     8    22    24    1
     9    26    24    1
    10    29    28    1
    11    28    30    1
    12     2     1    2
    13     2     4    2
    14    20    19    1
    15     1    18    2
    16    24    25    1
    17     4     5    2
    18    19    17    1
    19    18    17    1
    20    18     7    1
    21    17    16    1
    22     5     7    1
    23     5     6    2
    24     7     8    2
    25    16    15    1
    26    16     9    1
    27     8     9    2
    28    15    13    2
    29     9    10    1
    30    13    14    1
    31    13    11    1
    32    10    11    2
    33    11    12    1
