@<TRIPOS>MOLECULE
1jqx_ORO_A_1.pdb
 11 11 0 0 0
SMALL
GASTEIGER

@<TRIPOS>ATOM
      1  N1        13.8940   14.3500   19.1940 N.2   1313  ORO1313    -0.3044
      2  C2        14.1790   13.5320   18.0890 C.1   1313  ORO1313     0.3651
      3  O2        15.0550   12.6470   18.1230 O.2   1313  ORO1313    -0.1745
      4  N3        13.3930   13.8060   16.9510 N.2   1313  ORO1313    -0.2366
      5  C4        12.3820   14.7960   16.8410 C.1   1313  ORO1313     0.2010
      6  O4        11.7440   14.9660   15.8040 O.2   1313  ORO1313    -0.2129
      7  C5        12.1710   15.5880   18.0470 C.3   1313  ORO1313     0.2022
      8  C6        12.9120   15.3480   19.1620 C.2   1313  ORO1313     0.2212
      9  C7        12.7190   16.1360   20.4500 C.2   1313  ORO1313     0.4149
     10  O71       12.8320   17.3860   20.3990 O.co2 1313  ORO1313    -0.2380
     11  O72       12.4480   15.4380   21.4440 O.co2 1313  ORO1313    -0.2380
@<TRIPOS>BOND
     1     6     5    2
     2     5     4    2
     3     5     7    1
     4     4     2    2
     5     7     8    1
     6     2     3    2
     7     2     1    2
     8     8     1    2
     9     8     9    1
    10    10     9   ar
    11     9    11   ar
