@<TRIPOS>MOLECULE
1jqy_A32_D_1.pdb
 33 35 0 0 0
SMALL
GASTEIGER

@<TRIPOS>ATOM
      1  C1        50.2040    2.1310   -1.6490 C.3   104  A32104      0.3218
      2  O1        50.4090    0.6840   -1.5200 O.3   104  A32104     -0.4504
      3  C2        50.9120    3.0240   -0.5900 C.3   104  A32104      0.2542
      4  O2        52.3400    3.0370   -0.6630 O.3   104  A32104     -0.2135
      5  C3        50.4950    2.5360    0.8120 C.3   104  A32104      0.2211
      6  O3        50.9900    3.4940    1.7290 O.3   104  A32104     -0.2173
      7  C4        48.9310    2.6760    0.8520 C.3   104  A32104      0.2145
      8  O4        48.5540    4.0360    0.9380 O.3   104  A32104     -0.2176
      9  C5        48.2460    1.9190   -0.2960 C.3   104  A32104      0.1846
     10  O5        48.7850    2.3660   -1.5640 O.3   104  A32104     -0.3157
     11  C6        46.7090    2.0260   -0.3230 C.3   104  A32104      0.2142
     12  O6        46.1300    1.0970   -1.2100 O.3   104  A32104     -0.2176
     13  C1'       50.1220   -0.0160   -2.7540 C.ar  104  A32104      0.1432
     14  C2'       50.9800    0.0950   -3.8470 C.ar  104  A32104      0.0610
     15  C3'       50.6490   -0.6100   -5.0190 C.ar  104  A32104      0.1460
     16  C4'       49.4520   -1.3980   -4.9680 C.ar  104  A32104      0.0288
     17  C5'       48.5990   -1.4910   -3.8490 C.ar  104  A32104      0.0597
     18  C6'       48.9510   -0.7620   -2.6760 C.ar  104  A32104      0.0417
     19  N1'       51.3940   -0.6530   -6.2170 N.pl3 104  A32104      0.0578
     20  O1'       50.8480   -1.3250   -7.1610 O.2   104  A32104     -0.1261
     21  O2'       52.5260   -0.1370   -6.3440 O.2   104  A32104     -0.1261
     22  C7'       47.3860   -2.2250   -3.7440 C.2   104  A32104      0.2649
     23  O3'       46.9910   -2.3330   -2.5240 O.2   104  A32104     -0.2684
     24  N2'       46.7440   -2.6570   -4.7090 N.am  104  A32104     -0.2016
     25  O1B       48.1190   -8.6530   -4.0990 O.2   104  A32104     -0.4692
     26  C2B       49.2480   -7.8630   -4.3650 C.2   104  A32104      0.1880
     27  C3B       49.1440   -6.5630   -5.1240 C.2   104  A32104      0.1021
     28  N4'       47.8810   -6.2430   -5.8710 N.pl3 104  A32104     -0.3006
     29  C5B       46.8980   -7.3800   -5.8230 C.3   104  A32104      0.1386
     30  C6B       46.8440   -8.1320   -4.4960 C.3   104  A32104      0.2269
     31  C7B       47.2470   -4.9070   -5.6470 C.3   104  A32104      0.0929
     32  C8'       47.3240   -3.8610   -6.7500 C.3   104  A32104      0.0448
     33  C9'       46.8690   -2.5160   -6.1120 C.3   104  A32104      0.1172
@<TRIPOS>BOND
     1    20    19    2
     2    32    33    1
     3    32    31    1
     4    21    19    2
     5    19    15    1
     6    33    24    1
     7    28    29    1
     8    28    31    1
     9    28    27    1
    10    29    30    1
    11    27    26    2
    12    15    16   ar
    13    15    14   ar
    14    16    17   ar
    15    24    22   am
    16    30    25    1
    17    26    25    1
    18    17    22    1
    19    17    18   ar
    20    14    13   ar
    21    22    23    2
    22    13    18   ar
    23    13     2    1
    24     1    10    1
    25     1     2    1
    26     1     3    1
    27    10     9    1
    28    12    11    1
    29     4     3    1
    30     3     5    1
    31    11     9    1
    32     9     7    1
    33     5     7    1
    34     5     6    1
    35     7     8    1
