@<TRIPOS>MOLECULE
1jr0_A24_D_1.pdb
 32 34 0 0 0
SMALL
GASTEIGER

@<TRIPOS>ATOM
      1  C1       -10.8990   19.7960    2.1180 C.3   104  A24104      0.3218
      2  O1       -12.2930   20.0930    2.1030 O.3   104  A24104     -0.4504
      3  C2       -10.7810   18.5720    2.9870 C.3   104  A24104      0.2542
      4  O2       -11.5910   17.4990    2.4570 O.3   104  A24104     -0.2135
      5  C3       -11.2230   18.8780    4.4010 C.3   104  A24104      0.2211
      6  O3       -10.8630   17.7330    5.1760 O.3   104  A24104     -0.2173
      7  C4       -10.4750   20.1200    4.9360 C.3   104  A24104      0.2145
      8  O4        -9.0660   19.7830    5.0130 O.3   104  A24104     -0.2176
      9  C5       -10.6650   21.2900    3.9940 C.3   104  A24104      0.1846
     10  O5       -10.2310   20.9530    2.6670 O.3   104  A24104     -0.3157
     11  C6        -9.8470   22.5270    4.3850 C.3   104  A24104      0.2142
     12  O6       -10.1100   23.6100    3.5090 O.3   104  A24104     -0.2176
     13  C1'      -12.6740   21.1320    1.2220 C.ar  104  A24104      0.1432
     14  C2'      -12.9560   20.7680   -0.0770 C.ar  104  A24104      0.0610
     15  C3'      -13.3550   21.8020   -0.9320 C.ar  104  A24104      0.1460
     16  C4'      -13.4480   23.0840   -0.4340 C.ar  104  A24104      0.0288
     17  C5'      -13.1260   23.4490    0.8530 C.ar  104  A24104      0.0597
     18  C6'      -12.7860   22.4140    1.7330 C.ar  104  A24104      0.0417
     19  N1'      -13.6170   21.3530   -2.2470 N.pl3 104  A24104      0.0578
     20  O1'      -14.0320   22.2000   -3.0820 O.2   104  A24104     -0.1261
     21  O2'      -13.3700   20.1030   -2.3500 O.2   104  A24104     -0.1261
     22  C7'      -13.0970   24.7690    1.3760 C.2   104  A24104      0.2650
     23  O3'      -12.8350   24.9380    2.6500 O.2   104  A24104     -0.2684
     24  N2'      -13.3460   25.8430    0.6350 N.am  104  A24104     -0.2002
     25  O1B      -10.6450   25.1630   -4.6380 O.3   104  A24104     -0.3508
     26  C2B      -12.0440   25.3150   -4.7620 C.3   104  A24104      0.1595
     27  C3B      -12.5570   26.5350   -3.9430 C.3   104  A24104      0.1047
     28  N4'      -11.9020   26.7220   -2.6040 N.3   104  A24104     -0.2669
     29  C5B      -11.1520   25.4680   -2.2260 C.3   104  A24104      0.1047
     30  C6B      -10.2020   24.9710   -3.3050 C.3   104  A24104      0.1595
     31  C7B      -12.7000   27.2530   -1.4630 C.3   104  A24104      0.0959
     32  C8'      -13.5980   26.3400   -0.6860 C.3   104  A24104      0.1327
@<TRIPOS>BOND
     1    26    25    1
     2    26    27    1
     3    25    30    1
     4    27    28    1
     5    30    29    1
     6    20    19    2
     7    28    29    1
     8    28    31    1
     9    21    19    2
    10    19    15    1
    11    31    32    1
    12    15    16   ar
    13    15    14   ar
    14    32    24    1
    15    16    17   ar
    16    14    13   ar
    17    24    22   am
    18    17    22    1
    19    17    18   ar
    20    13    18   ar
    21    13     2    1
    22    22    23    2
    23     2     1    1
    24     1    10    1
    25     1     3    1
    26     4     3    1
    27    10     9    1
    28     3     5    1
    29    12    11    1
    30     9    11    1
    31     9     7    1
    32     5     7    1
    33     5     6    1
    34     7     8    1
