@<TRIPOS>MOLECULE
1jr1_IMP_A_1.pdb
 23 25 0 0 0
SMALL
GASTEIGER

@<TRIPOS>ATOM
      1  P         71.2050   71.2060   87.3390 P.3   1331  IMP1331     0.5327
      2  O1P       70.3810   70.0280   86.8850 O.3   1331  IMP1331    -0.1145
      3  O2P       72.6150   71.1440   86.8640 O.2   1331  IMP1331    -0.2224
      4  O3P       71.1720   71.3330   88.8030 O.3   1331  IMP1331    -0.1145
      5  O5'       70.6880   72.5340   86.7980 O.3   1331  IMP1331    -0.2675
      6  C5'       71.5000   73.7260   87.0240 C.3   1331  IMP1331     0.1860
      7  C4'       71.1560   74.6010   85.8310 C.3   1331  IMP1331     0.1823
      8  O4'       69.7580   74.8980   85.8610 O.3   1331  IMP1331    -0.3135
      9  C3'       71.8650   75.9620   85.9340 C.3   1331  IMP1331     0.2184
     10  O3'       73.0780   76.0110   85.2080 O.3   1331  IMP1331    -0.2174
     11  C2'       70.8830   76.9030   85.2100 C.3   1331  IMP1331     0.2570
     12  O2'       70.7520   76.7060   83.8160 O.3   1331  IMP1331    -0.2130
     13  C1'       69.6020   76.3080   85.7610 C.3   1331  IMP1331     0.3186
     14  N9        68.8320   77.2050   86.6120 N.pl3 1331  IMP1331    -0.1435
     15  C8        69.3210   78.0300   87.5990 C.3   1331  IMP1331     0.3382
     16  N7        68.3310   78.5680   88.3220 N.2   1331  IMP1331    -0.2054
     17  C5        67.1700   78.0930   87.8060 C.2   1331  IMP1331     0.2446
     18  C6        65.7990   78.2890   88.1560 C.1   1331  IMP1331     0.1792
     19  O6        65.4120   78.9950   89.0850 O.2   1331  IMP1331    -0.2203
     20  N1        64.9410   77.5790   87.3740 N.2   1331  IMP1331    -0.1458
     21  C2        65.2960   76.7060   86.2990 C.3   1331  IMP1331     0.4017
     22  N3        66.5670   76.5240   85.9570 N.2   1331  IMP1331    -0.0334
     23  C4        67.4980   77.2000   86.6930 C.2   1331  IMP1331     0.3528
@<TRIPOS>BOND
     1    12    11    1
     2    10     9    1
     3    11    13    1
     4    11     9    1
     5    13     8    1
     6    13    14    1
     7     7     8    1
     8     7     9    1
     9     7     6    1
    10    22    21    1
    11    22    23    2
    12    21    20    1
    13    14    23    1
    14    14    15    1
    15    23    17    1
    16     5     6    1
    17     5     1    1
    18     3     1    2
    19     2     1    1
    20     1     4    1
    21    20    18    2
    22    15    16    1
    23    17    18    1
    24    17    16    2
    25    18    19    2
