@<TRIPOS>MOLECULE
1jr1_MOA_A_1.pdb
 23 24 0 0 0
SMALL
GASTEIGER

@<TRIPOS>ATOM
      1  C1        65.4650   77.9460   82.6750 C.2   1332  MOA1332     0.3445
      2  C2        64.9650   82.3900   86.1740 C.2   1332  MOA1332    -0.0296
      3  C3        65.1840   83.6670   86.5070 C.2   1332  MOA1332    -0.0473
      4  C4        64.2870   84.7070   85.8680 C.3   1332  MOA1332     0.0335
      5  C5        65.1370   85.5900   84.9630 C.3   1332  MOA1332     0.1184
      6  C6        65.2530   85.0450   83.5560 C.2   1332  MOA1332     0.3652
      7  C7        69.7740   80.1380   83.5320 C.3   1332  MOA1332     0.0340
      8  C8        68.4340   82.9550   84.9680 C.3   1332  MOA1332     0.2524
      9  C9        66.2890   84.1040   87.4630 C.3   1332  MOA1332     0.0260
     10  C10       67.7520   78.1120   82.1030 C.3   1332  MOA1332     0.2355
     11  C11       67.4530   79.0770   83.2290 C.ar  1332  MOA1332     0.0296
     12  C12       68.3290   79.9770   83.9000 C.ar  1332  MOA1332     0.0117
     13  C13       67.7890   80.7240   84.9530 C.ar  1332  MOA1332     0.1339
     14  C14       66.4470   80.5640   85.3340 C.ar  1332  MOA1332     0.0549
     15  C15       65.5990   79.6820   84.6580 C.ar  1332  MOA1332     0.2009
     16  C16       66.1280   78.9430   83.5880 C.ar  1332  MOA1332     0.1135
     17  C17       65.9220   81.2770   86.5480 C.3   1332  MOA1332     0.0580
     18  O1        64.3260   77.6140   82.5880 O.2   1332  MOA1332    -0.2448
     19  O2        66.4440   77.4740   81.8970 O.3   1332  MOA1332    -0.4404
     20  O3        68.5890   81.6440   85.5490 O.3   1332  MOA1332    -0.4720
     21  O4        64.2880   79.5520   85.1000 O.3   1332  MOA1332    -0.2866
     22  O5        64.2030   84.7050   82.9660 O.co2 1332  MOA1332    -0.2456
     23  O6        66.3930   84.9550   83.0450 O.co2 1332  MOA1332    -0.2456
@<TRIPOS>BOND
     1    19    10    1
     2    19     1    1
     3    10    11    1
     4    18     1    2
     5     1    16    1
     6    22     6   ar
     7    23     6   ar
     8    11    16   ar
     9    11    12   ar
    10     7    12    1
    11     6     5    1
    12    16    15   ar
    13    12    13   ar
    14    15    21    1
    15    15    14   ar
    16    13    14   ar
    17    13    20    1
    18     5     4    1
    19     8    20    1
    20    14    17    1
    21     4     3    1
    22     2     3    2
    23     2    17    1
    24     3     9    1
