@<TRIPOS>MOLECULE
1jr4_CL4_A_1.pdb
 34 37 0 0 0
SMALL
GASTEIGER

@<TRIPOS>ATOM
      1  C1        40.4570   11.1030   17.9400 C.2   301  CL4301     -0.0049
      2  C2        40.8130   10.9260   19.3770 C.3   301  CL4301      0.1413
      3  N3        39.6320   10.5730   20.1280 N.am  301  CL4301     -0.1967
      4  C4        41.3070   11.6990   17.1150 C.2   301  CL4301      0.0028
      5  C5        40.9620   11.9030   15.7080 C.3   301  CL4301      0.1740
      6  O6        41.3790   13.2520   15.3570 O.3   301  CL4301     -0.3116
      7  C7        41.7760   10.9640   14.8470 C.3   301  CL4301      0.2201
      8  O8        41.1010   10.7370   13.6050 O.3   301  CL4301     -0.2172
      9  C9        43.0590   11.7530   14.6210 C.3   301  CL4301      0.2572
     10  O10       43.6010   11.3710   13.3660 O.3   301  CL4301     -0.2130
     11  C11       42.5830   13.2320   14.5610 C.3   301  CL4301      0.3188
     12  N12       43.5930   14.1490   15.1510 N.pl3 301  CL4301     -0.1438
     13  C13       44.2900   13.8680   16.3360 C.3   301  CL4301      0.3377
     14  N14       45.1050   14.8480   16.6960 N.2   301  CL4301     -0.2095
     15  C15       44.9500   15.8060   15.7450 C.2   301  CL4301      0.2526
     16  C16       45.5510   17.0950   15.5780 C.2   301  CL4301      0.4393
     17  N17       46.5070   17.5570   16.4370 N.pl3 301  CL4301      0.2180
     18  N18       45.1720   17.8620   14.5270 N.2   301  CL4301      0.0021
     19  C19       44.2510   17.3810   13.6450 C.3   301  CL4301      0.5254
     20  N20       43.6790   16.1780   13.7150 N.2   301  CL4301     -0.0055
     21  C21       44.0230   15.4160   14.7760 C.2   301  CL4301      0.3518
     22  C22       37.1450    9.9130   21.3220 C.ar  301  CL4301      0.2387
     23  C23       35.9130    9.5000   21.8640 C.ar  301  CL4301      0.2361
     24  C24       35.8390    8.3520   22.6510 C.ar  301  CL4301      0.0694
     25  C25       37.0230    7.6310   22.8900 C.ar  301  CL4301      0.1464
     26  C26       38.2630    8.0290   22.3890 C.ar  301  CL4301      0.0321
     27  C27       38.3330    9.1820   21.5930 C.ar  301  CL4301      0.0988
     28  O28       34.8250   10.2650   21.5980 O.3   301  CL4301     -0.2831
     29  O29       37.1390   11.0330   20.5480 O.3   301  CL4301     -0.2830
     30  C30       39.6220    9.5870   21.0460 C.2   301  CL4301      0.2684
     31  O31       40.6820    9.1020   21.4150 O.2   301  CL4301     -0.2682
     32  N32       36.9410    6.4080   23.6890 N.pl3 301  CL4301      0.0578
     33  O33       35.8180    5.9400   23.9230 O.2   301  CL4301     -0.1261
     34  O34       37.9660    5.8920   24.1700 O.2   301  CL4301     -0.1261
@<TRIPOS>BOND
     1    10     9    1
     2     8     7    1
     3    19    20    1
     4    19    18    1
     5    20    21    2
     6    18    16    2
     7    11     9    1
     8    11    12    1
     9    11     6    1
    10     9     7    1
    11    21    12    1
    12    21    15    1
    13     7     5    1
    14    12    13    1
    15     6     5    1
    16    16    15    1
    17    16    17    1
    18     5     4    1
    19    15    14    2
    20    13    14    1
    21     4     1    2
    22     1     2    1
    23     2     3    1
    24     3    30   am
    25    29    22    1
    26    30    31    2
    27    30    27    1
    28    22    27   ar
    29    22    23   ar
    30    27    26   ar
    31    28    23    1
    32    23    24   ar
    33    26    25   ar
    34    24    25   ar
    35    25    32    1
    36    32    33    2
    37    32    34    2
