@<TRIPOS>MOLECULE
1jrb_ORO_A_1.pdb
 11 11 0 0 0
SMALL
GASTEIGER

@<TRIPOS>ATOM
      1  N1        13.6070   14.1690   19.4580 N.2   1313  ORO1313    -0.3044
      2  C2        13.7630   13.2640   18.3720 C.1   1313  ORO1313     0.3651
      3  O2        14.6990   12.4630   18.3830 O.2   1313  ORO1313    -0.1745
      4  N3        13.0850   13.6680   17.2030 N.2   1313  ORO1313    -0.2366
      5  C4        12.1830   14.7160   17.0600 C.1   1313  ORO1313     0.2010
      6  O4        11.4920   14.8610   16.0300 O.2   1313  ORO1313    -0.2129
      7  C5        11.9180   15.4880   18.2940 C.3   1313  ORO1313     0.2022
      8  C6        12.7620   15.2310   19.3650 C.2   1313  ORO1313     0.2212
      9  C7        12.3260   15.8670   20.7280 C.2   1313  ORO1313     0.4149
     10  O71       12.2910   17.1240   20.6710 O.co2 1313  ORO1313    -0.2380
     11  O72       12.3360   15.1040   21.7250 O.co2 1313  ORO1313    -0.2380
@<TRIPOS>BOND
     1     6     5    2
     2     5     4    2
     3     5     7    1
     4     4     2    2
     5     7     8    1
     6     2     3    2
     7     2     1    2
     8     8     1    2
     9     8     9    1
    10    10     9   ar
    11     9    11   ar
