@<TRIPOS>MOLECULE
1jrb_FMN_A_1.pdb
 31 33 0 0 0
SMALL
GASTEIGER

@<TRIPOS>ATOM
      1  N1        14.4350   15.6830   14.6270 N.2   1312  FMN1312    -0.2887
      2  C2        13.6760   16.6660   14.0610 C.1   1312  FMN1312     0.3669
      3  O2        13.0020   16.5200   13.0660 O.2   1312  FMN1312    -0.1744
      4  N3        13.2440   17.6490   15.0250 N.2   1312  FMN1312    -0.2300
      5  C4        13.8680   17.9010   16.2620 C.1   1312  FMN1312     0.2513
      6  O4        13.4170   18.8820   16.9640 O.2   1312  FMN1312    -0.2057
      7  C4A       14.6340   16.7340   16.6880 C.2   1312  FMN1312     0.2703
      8  N5        15.2000   16.8930   17.9740 N.2   1312  FMN1312    -0.3885
      9  C5A       16.2400   16.0400   18.2610 C.2   1312  FMN1312     0.1233
     10  C6        16.9440   16.4640   19.3690 C.3   1312  FMN1312     0.0606
     11  C7        17.9680   15.5800   19.7190 C.3   1312  FMN1312     0.0111
     12  C7M       18.9690   16.0800   20.8810 C.3   1312  FMN1312     0.0008
     13  C8        18.5700   14.7540   18.7630 C.3   1312  FMN1312     0.0238
     14  C8M       19.6700   13.7870   19.2570 C.3   1312  FMN1312     0.0047
     15  C9        17.8890   14.3750   17.6360 C.2   1312  FMN1312    -0.0093
     16  C9A       16.8070   15.1250   17.3130 C.2   1312  FMN1312     0.0750
     17  N10       16.0280   14.7880   16.1560 N.pl3 1312  FMN1312    -0.2548
     18  C10       15.0970   15.7180   15.8030 C.2   1312  FMN1312     0.2449
     19  C1'       16.3540   13.7750   15.2610 C.3   1312  FMN1312     0.1336
     20  C2'       17.5550   14.1660   14.3680 C.3   1312  FMN1312     0.2048
     21  O2'       17.1340   15.3030   13.5480 O.3   1312  FMN1312    -0.2185
     22  C3'       18.0850   13.0490   13.4080 C.3   1312  FMN1312     0.2165
     23  O3'       16.8620   12.6440   12.7020 O.3   1312  FMN1312    -0.2175
     24  C4'       18.3900   11.8040   14.4640 C.3   1312  FMN1312     0.2147
     25  O4'       19.3090   12.2670   15.5220 O.3   1312  FMN1312    -0.2176
     26  C5'       19.1600   10.8450   13.5320 C.3   1312  FMN1312     0.1892
     27  O5'       20.4830   11.3570   13.2830 O.3   1312  FMN1312    -0.2674
     28  P         21.9360   11.1530   13.9210 P.3   1312  FMN1312     0.5327
     29  O1P       22.2280    9.6770   13.8440 O.3   1312  FMN1312    -0.1145
     30  O2P       21.5980   11.5640   15.3780 O.3   1312  FMN1312    -0.1145
     31  O3P       22.9810   11.8660   13.2280 O.2   1312  FMN1312    -0.2224
@<TRIPOS>BOND
     1    23    22    1
     2     3     2    2
     3    31    28    2
     4    27    26    1
     5    27    28    1
     6    22    20    1
     7    22    24    1
     8    26    24    1
     9    21    20    1
    10    29    28    1
    11    28    30    1
    12     2     1    2
    13     2     4    2
    14    20    19    1
    15    24    25    1
    16     1    18    2
    17     4     5    2
    18    19    17    1
    19    18    17    1
    20    18     7    1
    21    17    16    1
    22     5     7    1
    23     5     6    2
    24     7     8    2
    25    16    15    2
    26    16     9    1
    27    15    13    1
    28     8     9    2
    29     9    10    1
    30    13    14    1
    31    13    11    1
    32    10    11    1
    33    11    12    1
