@<TRIPOS>MOLECULE
1jrc_FMN_A_1.pdb
 31 33 0 0 0
SMALL
GASTEIGER

@<TRIPOS>ATOM
      1  N1        14.4960   15.6920   14.2040 N.2   1312  FMN1312    -0.2887
      2  C2        13.7440   16.6770   13.6340 C.1   1312  FMN1312     0.3669
      3  O2        13.1520   16.5140   12.5800 O.2   1312  FMN1312    -0.1744
      4  N3        13.3300   17.7320   14.4990 N.2   1312  FMN1312    -0.2300
      5  C4        13.9090   17.9420   15.7510 C.1   1312  FMN1312     0.2513
      6  O4        13.6020   18.9730   16.4220 O.2   1312  FMN1312    -0.2057
      7  C4A       14.8170   16.8890   16.1650 C.2   1312  FMN1312     0.2703
      8  N5        15.3920   17.0720   17.4260 N.2   1312  FMN1312    -0.3882
      9  C5A       16.4630   16.2890   17.7780 C.2   1312  FMN1312     0.1277
     10  C6        17.0040   16.4420   19.0140 C.3   1312  FMN1312     0.0820
     11  C7        18.1950   15.7740   19.2480 C.2   1312  FMN1312    -0.0408
     12  C7M       19.1820   16.1060   20.4470 C.3   1312  FMN1312     0.0265
     13  C8        18.6310   14.7190   18.4000 C.2   1312  FMN1312    -0.0280
     14  C8M       19.7500   13.8240   18.8790 C.3   1312  FMN1312     0.0304
     15  C9        17.9240   14.4220   17.2620 C.2   1312  FMN1312     0.0123
     16  C9A       16.7740   15.1030   17.0290 C.2   1312  FMN1312     0.0793
     17  N10       16.1690   14.9300   15.7490 N.pl3 1312  FMN1312    -0.2545
     18  C10       15.2280   15.7950   15.3390 C.2   1312  FMN1312     0.2449
     19  C1'       16.4600   13.8050   14.9930 C.3   1312  FMN1312     0.1336
     20  C2'       17.5750   14.1540   13.9980 C.3   1312  FMN1312     0.2048
     21  O2'       17.3460   15.2890   13.1260 O.3   1312  FMN1312    -0.2185
     22  C3'       18.1600   13.0080   13.1350 C.3   1312  FMN1312     0.2165
     23  O3'       16.9990   12.6690   12.3290 O.3   1312  FMN1312    -0.2175
     24  C4'       18.4840   11.7790   14.1550 C.3   1312  FMN1312     0.2147
     25  O4'       19.3250   12.2130   15.2330 O.3   1312  FMN1312    -0.2176
     26  C5'       19.2600   10.8360   13.2410 C.3   1312  FMN1312     0.1892
     27  O5'       20.5850   11.2890   12.8810 O.3   1312  FMN1312    -0.2674
     28  P         22.0350   11.0980   13.6050 P.3   1312  FMN1312     0.5327
     29  O1P       22.2880    9.6060   13.5050 O.3   1312  FMN1312    -0.1145
     30  O2P       21.7100   11.5010   15.0420 O.3   1312  FMN1312    -0.1145
     31  O3P       23.0710   11.8720   12.9160 O.2   1312  FMN1312    -0.2224
@<TRIPOS>BOND
     1    23    22    1
     2     3     2    2
     3    27    26    1
     4    27    28    1
     5    31    28    2
     6    21    20    1
     7    22    20    1
     8    22    24    1
     9    26    24    1
    10    29    28    1
    11    28    30    1
    12     2     1    2
    13     2     4    2
    14    20    19    1
    15    24    25    1
    16     1    18    2
    17     4     5    2
    18    19    17    1
    19    18    17    1
    20    18     7    1
    21    17    16    1
    22     5     7    1
    23     5     6    2
    24     7     8    2
    25    16    15    2
    26    16     9    1
    27    15    13    1
    28     8     9    2
    29     9    10    1
    30    13    14    1
    31    13    11    2
    32    10    11    1
    33    11    12    1
