@<TRIPOS>MOLECULE
1jrc_ORO_A_1.pdb
 11 11 0 0 0
SMALL
GASTEIGER

@<TRIPOS>ATOM
      1  N1        13.7780   14.3760   18.8940 N.2   1313  ORO1313    -0.3044
      2  C2        13.9210   13.4980   17.7920 C.1   1313  ORO1313     0.3651
      3  O2        14.8340   12.6680   17.7290 O.2   1313  ORO1313    -0.1745
      4  N3        13.1990   13.8480   16.6650 N.2   1313  ORO1313    -0.2366
      5  C4        12.2140   14.8430   16.5530 C.1   1313  ORO1313     0.2010
      6  O4        11.5590   14.9800   15.5270 O.2   1313  ORO1313    -0.2129
      7  C5        12.1440   15.7360   17.6930 C.3   1313  ORO1313     0.2022
      8  C6        12.8420   15.3950   18.8120 C.2   1313  ORO1313     0.2212
      9  C7        12.4860   16.1040   20.1210 C.2   1313  ORO1313     0.4149
     10  O71       12.6940   17.3290   20.1140 O.co2 1313  ORO1313    -0.2380
     11  O72       12.3130   15.3020   21.0850 O.co2 1313  ORO1313    -0.2380
@<TRIPOS>BOND
     1     6     5    2
     2     5     4    2
     3     5     7    1
     4     4     2    2
     5     7     8    1
     6     3     2    2
     7     2     1    2
     8     8     1    2
     9     8     9    1
    10    10     9   ar
    11     9    11   ar
