@<TRIPOS>MOLECULE
1jro_MPN_B_1.pdb
 24 26 0 0 0
SMALL
GASTEIGER

@<TRIPOS>ATOM
      1  O3P       20.8110    8.3960   13.5560 O.3   3003  MPN3003    -0.1145
      2  P         21.6880    9.2380   14.1330 P.3   3003  MPN3003     0.5327
      3  O1P       21.8440    9.0280   15.6360 O.3   3003  MPN3003    -0.1145
      4  O2P       22.9230    9.0430   13.3510 O.2   3003  MPN3003    -0.2224
      5  O4'       21.3000   10.5130   14.0220 O.3   3003  MPN3003    -0.2676
      6  C4'       20.3040   11.0780   14.8750 C.3   3003  MPN3003     0.1844
      7  C3'       20.6760   12.4270   15.0160 C.3   3003  MPN3003     0.1624
      8  C2'       19.7320   13.0530   16.0890 C.3   3003  MPN3003     0.1141
      9  S2'       19.3460   12.4030   17.6360 S.3   3003  MPN3003    -0.0753
     10  O3'       20.5750   13.1300   13.7460 O.3   3003  MPN3003    -0.3309
     11  C7        20.6060   14.5420   13.9630 C.3   3003  MPN3003     0.2567
     12  C6        19.1930   14.9440   14.7050 C.3   3003  MPN3003     0.1817
     13  C1'       18.9860   14.2630   15.9220 C.2   3003  MPN3003     0.0309
     14  S1'       17.9870   14.9130   17.0990 S.2   3003  MPN3003    -0.0569
     15  N5        18.0000   14.9870   13.7190 N.2   3003  MPN3003    -0.2414
     16  N8        20.7940   15.0770   12.6600 N.2   3003  MPN3003    -0.1763
     17  C10       19.7970   15.4540   11.8150 C.1   3003  MPN3003     0.1293
     18  C9        18.2850   15.4430   12.3180 C.2   3003  MPN3003     0.2467
     19  C4        17.2860   15.8360   11.2970 C.1   3003  MPN3003     0.2441
     20  O4        16.0960   15.8590   11.7850 O.2   3003  MPN3003    -0.2063
     21  N3        17.6590   16.2130   10.0050 N.2   3003  MPN3003    -0.2474
     22  C2        18.9530   16.2310    9.6490 C.1   3003  MPN3003     0.2608
     23  N1        19.9490   15.8450   10.5490 N.2   3003  MPN3003    -0.2682
     24  N2        19.3910   16.5660    8.4290 N.pl3 3003  MPN3003    -0.0220
@<TRIPOS>BOND
     1    24    22    1
     2    22    21    2
     3    22    23    2
     4    21    19    2
     5    23    17    2
     6    19    20    2
     7    19    18    1
     8    17    18    1
     9    17    16    2
    10    18    15    2
    11    16    11    1
    12     4     2    2
    13     1     2    1
    14    15    12    1
    15    10    11    1
    16    10     7    1
    17    11    12    1
    18     5     2    1
    19     5     6    1
    20     2     3    1
    21    12    13    1
    22     6     7    1
    23     7     8    1
    24    13     8    1
    25    13    14    2
    26     8     9    1
