@<TRIPOS>MOLECULE
1jrp_141_B_1.pdb
 11 12 0 0 0
SMALL
GASTEIGER

@<TRIPOS>ATOM
      1  O6        15.2540    9.8940   24.1480 O.2   4000  1414000    -0.2119
      2  C6        16.4790   10.5100   24.0200 C.1   4000  1414000     0.2137
      3  C5        17.0120   11.3650   23.0040 C.3   4000  1414000     0.2602
      4  C7        16.6000   11.9680   21.7870 C.2   4000  1414000     0.1303
      5  N8        17.5310   12.6830   21.2100 N.2   4000  1414000    -0.1394
      6  N9        18.5760   12.5580   22.0640 N.2   4000  1414000    -0.0840
      7  C4        18.3100   11.7790   23.1370 C.1   4000  1414000     0.1205
      8  N3        19.1900   11.4880   24.1570 N.2   4000  1414000    -0.2543
      9  O2        19.3940   10.3810   26.0640 O.2   4000  1414000    -0.1738
     10  C2        18.6880   10.7200   25.0820 C.1   4000  1414000     0.3738
     11  N1        17.4010   10.2610   25.0200 N.2   4000  1414000    -0.2351
@<TRIPOS>BOND
     1     5     4    2
     2     5     6    1
     3     4     3    1
     4     6     7    2
     5     3     7    1
     6     3     2    1
     7     7     8    2
     8     2     1    2
     9     2    11    2
    10     8    10    2
    11    11    10    2
    12    10     9    2
