@<TRIPOS>MOLECULE
1jrp_MPN_B_1.pdb
 24 26 0 0 0
SMALL
GASTEIGER

@<TRIPOS>ATOM
      1  O3P       20.5730    8.5330   13.7040 O.3   3003  MPN3003    -0.1145
      2  P         21.5250    9.2800   14.2510 P.3   3003  MPN3003     0.5327
      3  O1P       21.4960    8.9010   15.7330 O.3   3003  MPN3003    -0.1145
      4  O2P       22.6490    8.6920   13.5260 O.2   3003  MPN3003    -0.2224
      5  O4'       21.3330   10.6630   14.2200 O.3   3003  MPN3003    -0.2676
      6  C4'       20.1750   11.1780   14.9650 C.3   3003  MPN3003     0.1844
      7  C3'       20.3710   12.5260   15.3850 C.3   3003  MPN3003     0.1624
      8  C2'       19.4220   13.0810   16.5370 C.3   3003  MPN3003     0.1141
      9  S2'       19.0370   12.5100   18.1570 S.3   3003  MPN3003    -0.0753
     10  O3'       19.9980   13.3120   14.2360 O.3   3003  MPN3003    -0.3309
     11  C7        20.2370   14.7060   14.4440 C.3   3003  MPN3003     0.2567
     12  C6        18.7780   15.0060   15.1320 C.3   3003  MPN3003     0.1817
     13  C1'       18.6390   14.2770   16.3430 C.2   3003  MPN3003     0.0309
     14  S1'       17.6020   14.8380   17.5080 S.2   3003  MPN3003    -0.0569
     15  N5        17.6530   14.9670   14.0510 N.2   3003  MPN3003    -0.2414
     16  N8        20.4860   15.1440   13.1080 N.2   3003  MPN3003    -0.1763
     17  C10       19.4960   15.4630   12.2490 C.1   3003  MPN3003     0.1293
     18  C9        17.9890   15.4250   12.6840 C.2   3003  MPN3003     0.2467
     19  C4        17.0290   15.8040   11.6520 C.1   3003  MPN3003     0.2441
     20  O4        15.7750   15.7600   12.0280 O.2   3003  MPN3003    -0.2063
     21  N3        17.4480   16.1700   10.4050 N.2   3003  MPN3003    -0.2474
     22  C2        18.7110   16.1890   10.0570 C.1   3003  MPN3003     0.2608
     23  N1        19.6650   15.8370   10.9960 N.2   3003  MPN3003    -0.2682
     24  N2        19.1630   16.5400    8.8340 N.pl3 3003  MPN3003    -0.0220
@<TRIPOS>BOND
     1    24    22    1
     2    22    21    2
     3    22    23    2
     4    21    19    2
     5    23    17    2
     6    19    20    2
     7    19    18    1
     8    17    18    1
     9    17    16    2
    10    18    15    2
    11    16    11    1
    12     4     2    2
    13     1     2    1
    14    15    12    1
    15     5     2    1
    16     5     6    1
    17    10    11    1
    18    10     7    1
    19     2     3    1
    20    11    12    1
    21     6     7    1
    22    12    13    1
    23     7     8    1
    24    13     8    1
    25    13    14    2
    26     8     9    1
