@<TRIPOS>MOLECULE
1jrs_III_B_1.pdb
 38 37 0 0 0
SMALL
GASTEIGER

@<TRIPOS>ATOM
      1  C         55.5410  -13.8830    9.6830 C.2     1  ACE1        0.2233
      2  O         56.0310  -12.9620    9.0020 O.2     1  ACE1       -0.2751
      3  CH3       55.7130  -15.3410    9.2730 C.3     1  ACE1        0.0946
      4  N         54.7470  -13.6880   10.7460 N.am    1  LEU1       -0.2983
      5  CA        54.5780  -12.3540   11.2730 C.3     1  LEU1        0.1485
      6  C         55.4570  -12.2720   12.5000 C.2     1  LEU1        0.2406
      7  O         56.2130  -11.3200   12.6310 O.2     1  LEU1       -0.2733
      8  CB        53.1410  -12.0310   11.6780 C.3     1  LEU1        0.0290
      9  CG        52.1010  -11.7480   10.5830 C.3     1  LEU1        0.0021
     10  CD1       50.8980  -11.1130   11.2610 C.3     1  LEU1        0.0001
     11  CD2       52.6050  -10.7660    9.5230 C.3     1  LEU1        0.0001
     12  H         54.3050  -14.4510   11.1630 H       1  LEU1        0.1498
     13  N         55.3950  -13.2900   13.3740 N.am    2  LEU2       -0.2970
     14  CA        56.1860  -13.3330   14.6030 C.3     2  LEU2        0.1486
     15  C         57.6810  -13.3860   14.3570 C.2     2  LEU2        0.2404
     16  O         58.1760  -14.1670   13.5250 O.2     2  LEU2       -0.2733
     17  CB        55.8250  -14.5600   15.4670 C.3     2  LEU2        0.0290
     18  CG        54.5730  -14.5940   16.3500 C.3     2  LEU2        0.0021
     19  CD1       53.3110  -14.4210   15.5080 C.3     2  LEU2        0.0001
     20  CD2       54.5100  -15.9360   17.0720 C.3     2  LEU2        0.0001
     21  H         54.8840  -14.0750   13.1190 H       2  LEU2        0.1499
     22  N         58.3970  -12.5860   15.1320 N.am    3  AR73       -0.3020
     23  CA        59.8310  -12.5560   15.0430 C.3     3  AR73        0.1046
     24  C         60.4540  -13.3230   16.2390 C.3     3  AR73        0.2014
     25  O         59.5220  -14.3590   16.5860 O.3     3  AR73       -0.2186
     26  CB        60.2350  -11.0850   14.9760 C.3     3  AR73        0.0258
     27  CG        59.7910  -10.5330   13.6570 C.3     3  AR73        0.0446
     28  CD        60.2070   -9.0900   13.4780 C.3     3  AR73        0.1739
     29  NE        59.7380   -8.6660   12.1600 N.pl3   3  AR73       -0.2651
     30  CZ        59.9470   -7.4350   11.6560 C.cat   3  AR73        0.3417
     31  NH1       60.6380   -6.5380   12.3660 N.pl3   3  AR73       -0.2918
     32  NH2       59.4790   -7.0900   10.4370 N.pl3   3  AR73       -0.2918
     33  H         57.9610  -11.9820   15.7690 H       3  AR73        0.1495
     34  HNE       59.2410   -9.3050   11.6100 H       3  AR73        0.2586
     35 HN11       61.0030   -6.7720   13.2670 H       3  AR73        0.2545
     36 HN21       59.6330   -6.1660   10.0840 H       3  AR73        0.2545
     37 HN22       58.9510   -7.7470    9.9010 H       3  AR73        0.2545
     38 HN12       60.7760   -5.6200   11.9980 H       3  AR73        0.2545
@<TRIPOS>BOND
     1     2     1    2
     2     3     1    1
     3    11     9    1
     4     1     4   am
     5    37    32    1
     6    36    32    1
     7    32    30    2
     8     9    10    1
     9     9     8    1
    10     4    12    1
    11     4     5    1
    12     5     8    1
    13     5     6    1
    14    34    29    1
    15    30    29    1
    16    30    31    1
    17    38    31    1
    18    29    28    1
    19    31    35    1
    20     6     7    2
    21     6    13   am
    22    21    13    1
    23    13    14    1
    24    28    27    1
    25    16    15    2
    26    27    26    1
    27    15    14    1
    28    15    22   am
    29    14    17    1
    30    26    23    1
    31    23    22    1
    32    23    24    1
    33    22    33    1
    34    17    18    1
    35    19    18    1
    36    24    25    1
    37    18    20    1
