@<TRIPOS>MOLECULE
1jrt_III_B_1.pdb
 39 38 0 0 0
SMALL
GASTEIGER

@<TRIPOS>ATOM
      1  C         45.1080   26.7600   36.8750 C.2     1  ACE1        0.2233
      2  O         44.3740   27.4550   36.1530 O.2     1  ACE1       -0.2751
      3  CH3       46.4880   27.2550   37.2800 C.3     1  ACE1        0.0946
      4  N         44.7820   25.5360   37.3050 N.am    1  LEU1       -0.2983
      5  CA        43.5050   24.9350   36.9760 C.3     1  LEU1        0.1485
      6  C         42.6330   25.0610   38.2340 C.2     1  LEU1        0.2406
      7  O         41.5660   25.6820   38.2230 O.2     1  LEU1       -0.2733
      8  CB        43.7220   23.4580   36.6530 C.3     1  LEU1        0.0290
      9  CG        42.8390   22.5730   35.7570 C.3     1  LEU1        0.0021
     10  CD1       42.8410   21.1840   36.3630 C.3     1  LEU1        0.0001
     11  CD2       41.4330   23.0690   35.6410 C.3     1  LEU1        0.0001
     12  H         45.4210   25.0320   37.8590 H       1  LEU1        0.1498
     13  N         43.0980   24.4560   39.3420 N.am    2  LEU2       -0.2970
     14  CA        42.3280   24.4330   40.5690 C.3     2  LEU2        0.1486
     15  C         42.2770   25.8070   41.1980 C.2     2  LEU2        0.2404
     16  O         43.2820   26.5260   41.1530 O.2     2  LEU2       -0.2733
     17  CB        42.9350   23.4620   41.5630 C.3     2  LEU2        0.0290
     18  CG        42.6070   21.9760   41.4440 C.3     2  LEU2        0.0021
     19  CD1       41.1120   21.8290   41.2740 C.3     2  LEU2        0.0001
     20  CD2       43.2770   21.3590   40.2490 C.3     2  LEU2        0.0001
     21  H         44.0140   24.0990   39.3460 H       2  LEU2        0.1499
     22  N         41.1160   26.2480   41.6820 N.am    3  AR73       -0.3022
     23  CA        41.0250   27.5360   42.3500 C.3     3  AR73        0.1009
     24  C         40.8730   27.3550   43.8930 C.3     3  AR73        0.1565
     25  O         41.6560   26.2140   44.1990 O.3     3  AR73       -0.3802
     26  CB        39.8230   28.3180   41.7370 C.3     3  AR73        0.0257
     27  CG        40.1040   28.7860   40.3100 C.3     3  AR73        0.0446
     28  CD        38.9810   29.6270   39.7240 C.3     3  AR73        0.1739
     29  NE        39.3630   30.0900   38.3810 N.pl3   3  AR73       -0.2651
     30  CZ        38.5360   30.7480   37.5600 C.cat   3  AR73        0.3417
     31  NH1       37.3000   31.0460   37.9450 N.pl3   3  AR73       -0.2918
     32  NH2       38.9570   31.1290   36.3400 N.pl3   3  AR73       -0.2918
     33  H         40.3030   25.7120   41.6060 H       3  AR73        0.1495
     34  H1        42.5160   26.5540   44.5200 H       3  AR73        0.2105
     35  HNE       40.2720   29.9120   38.0640 H       3  AR73        0.2586
     36 HN11       36.9720   30.7830   38.8510 H       3  AR73        0.2545
     37 HN21       39.8820   30.9040   36.0420 H       3  AR73        0.2545
     38 HN22       38.3290   31.5870   35.7120 H       3  AR73        0.2545
     39 HN12       36.6910   31.5230   37.3140 H       3  AR73        0.2545
@<TRIPOS>BOND
     1    11     9    1
     2    38    32    1
     3     9    10    1
     4     9     8    1
     5    37    32    1
     6     2     1    2
     7    32    30    2
     8     8     5    1
     9     1     3    1
    10     1     4   am
    11     5     4    1
    12     5     6    1
    13     4    12    1
    14    39    31    1
    15    30    31    1
    16    30    29    1
    17    31    36    1
    18    35    29    1
    19     7     6    2
    20     6    13   am
    21    29    28    1
    22    13    21    1
    23    13    14    1
    24    28    27    1
    25    20    18    1
    26    27    26    1
    27    14    15    1
    28    14    17    1
    29    16    15    2
    30    15    22   am
    31    19    18    1
    32    18    17    1
    33    33    22    1
    34    22    23    1
    35    26    23    1
    36    23    24    1
    37    24    25    1
    38    25    34    1
