@<TRIPOS>MOLECULE
1jrx_HEM_A_1.pdb
 43 50 0 0 0
SMALL
GASTEIGER

@<TRIPOS>ATOM
      1 FE         33.1220   23.1540    9.9390 Fe    801  HEM801      0.0000
      2  CHA       32.8740   20.4640    7.8400 C.2   801  HEM801      0.0000
      3  CHB       36.1790   23.9690    8.5000 C.2   801  HEM801      0.0000
      4  CHC       33.2100   26.0470   11.7440 C.2   801  HEM801      0.0000
      5  CHD       30.6670   21.9940   11.8250 C.2   801  HEM801      0.0000
      6  NA        34.2710   22.4050    8.4730 N.ar  801  HEM801      0.0000
      7  C1A       33.9650   21.2970    7.7130 C.ar  801  HEM801      0.0000
      8  C2A       35.0050   21.1250    6.7140 C.ar  801  HEM801      0.0000
      9  C3A       35.9180   22.0780    6.8580 C.ar  801  HEM801      0.0000
     10  C4A       35.4850   22.8910    7.9690 C.ar  801  HEM801      0.0000
     11  CMA       37.2040   22.2010    5.9730 C.3   801  HEM801      0.0000
     12  CAA       34.9750   19.9750    5.6760 C.3   801  HEM801      0.0000
     13  CBA       35.8610   18.8330    6.2570 C.3   801  HEM801      0.0000
     14  CGA       35.9970   17.6940    5.2570 C.2   801  HEM801      0.0000
     15  O1A       36.7920   16.7720    5.5320 O.co2 801  HEM801      0.0000
     16  O2A       35.2270   17.8020    4.2600 O.co2 801  HEM801      0.0000
     17  NB        34.4720   24.6630   10.1600 N.2   801  HEM801      0.0000
     18  C1B       35.5710   24.8730    9.3680 C.2   801  HEM801      0.0000
     19  C2B       36.0050   26.2710    9.5410 C.2   801  HEM801      0.0000
     20  C3B       35.1570   26.8370   10.4060 C.2   801  HEM801      0.0000
     21  C4B       34.2080   25.8470   10.8140 C.2   801  HEM801      0.0000
     22  CMB       37.1970   26.8230    8.7420 C.3   801  HEM801      0.0000
     23  CAB       35.0800   28.3050   10.8950 C.2   801  HEM801      0.0000
     24  CBB       35.2680   29.2810    9.9760 C.2   801  HEM801      0.0000
     25  NC        32.1620   23.8410   11.5400 N.ar  801  HEM801      0.0000
     26  C1C       32.2430   25.1390   12.0410 C.ar  801  HEM801      0.0000
     27  C2C       31.1030   25.3840   12.8870 C.ar  801  HEM801      0.0000
     28  C3C       30.3660   24.2740   12.8930 C.ar  801  HEM801      0.0000
     29  C4C       31.0250   23.2910   12.0940 C.ar  801  HEM801      0.0000
     30  CMC       30.8530   26.7350   13.5960 C.3   801  HEM801      0.0000
     31  CAC       29.0010   24.0240   13.6130 C.2   801  HEM801      0.0000
     32  CBC       28.3230   25.0380   14.1970 C.2   801  HEM801      0.0000
     33  ND        31.9940   21.5050    9.8520 N.2   801  HEM801      0.0000
     34  C1D       31.0050   21.1970   10.7730 C.2   801  HEM801      0.0000
     35  C2D       30.3100   20.0000   10.3350 C.2   801  HEM801      0.0000
     36  C3D       30.9320   19.5810    9.2290 C.2   801  HEM801      0.0000
     37  C4D       31.9960   20.5150    8.9030 C.2   801  HEM801      0.0000
     38  CMD       29.1370   19.3940   11.1040 C.3   801  HEM801      0.0000
     39  CAD       30.5950   18.3720    8.3120 C.3   801  HEM801      0.0000
     40  CBD       29.9000   18.9280    7.0240 C.3   801  HEM801      0.0000
     41  CGD       28.8510   20.0050    7.1530 C.2   801  HEM801      0.0000
     42  O1D       28.9860   21.1160    6.5300 O.co2 801  HEM801      0.0000
     43  O2D       27.8440   19.8780    7.9090 O.co2 801  HEM801      0.0000
@<TRIPOS>BOND
     1    16    14   ar
     2    14    15   ar
     3    14    13    1
     4    12    13    1
     5    12     8    1
     6    11     9    1
     7    42    41   ar
     8     8     9   ar
     9     8     7   ar
    10     9    10   ar
    11    40    41    1
    12    40    39    1
    13    41    43   ar
    14     7     2    2
    15     7     6   ar
    16     2    37    1
    17    10     6   ar
    18    10     3    2
    19    39    36    1
    20     6     1    1
    21     3    18    1
    22    22    19    1
    23    37    36    1
    24    37    33    2
    25    36    35    2
    26    18    19    1
    27    18    17    2
    28    19    20    2
    29    33     1    1
    30    33    34    1
    31     1    17    1
    32     1    25    1
    33    24    23    2
    34    17    21    1
    35    35    34    1
    36    35    38    1
    37    20    21    1
    38    20    23    1
    39    34     5    2
    40    21     4    2
    41    25    26   ar
    42    25    29   ar
    43     4    26    1
    44     5    29    1
    45    26    27   ar
    46    29    28   ar
    47    27    28   ar
    48    27    30    1
    49    28    31    1
    50    31    32    2
