@<TRIPOS>MOLECULE
1jry_HEM_A_1.pdb
 43 50 0 0 0
SMALL
GASTEIGER

@<TRIPOS>ATOM
      1 FE         33.2990   23.6800    9.8520 Fe    801  HEM801      0.0000
      2  CHA       33.0890   21.0550    7.8250 C.2   801  HEM801      0.0000
      3  CHB       36.3550   24.5690    8.4220 C.2   801  HEM801      0.0000
      4  CHC       33.3040   26.6440   11.5960 C.2   801  HEM801      0.0000
      5  CHD       30.7590   22.5270   11.7380 C.2   801  HEM801      0.0000
      6  NA        34.4860   22.9470    8.4110 N.ar  801  HEM801      0.0000
      7  C1A       34.2070   21.8500    7.6320 C.ar  801  HEM801      0.0000
      8  C2A       35.2750   21.6750    6.6600 C.ar  801  HEM801      0.0000
      9  C3A       36.1680   22.6400    6.8390 C.ar  801  HEM801      0.0000
     10  C4A       35.7000   23.4700    7.9330 C.ar  801  HEM801      0.0000
     11  CMA       37.4760   22.9060    6.0570 C.3   801  HEM801      0.0000
     12  CAA       35.3210   20.5140    5.6230 C.3   801  HEM801      0.0000
     13  CBA       36.4010   19.4850    5.9980 C.3   801  HEM801      0.0000
     14  CGA       36.4840   18.2890    5.0890 C.2   801  HEM801      0.0000
     15  O1A       37.2420   17.3380    5.3960 O.co2 801  HEM801      0.0000
     16  O2A       35.7250   18.2730    4.0830 O.co2 801  HEM801      0.0000
     17  NB        34.6000   25.2520   10.0070 N.2   801  HEM801      0.0000
     18  C1B       35.7340   25.4520    9.2780 C.2   801  HEM801      0.0000
     19  C2B       36.2130   26.8070    9.5310 C.2   801  HEM801      0.0000
     20  C3B       35.3500   27.3710   10.3820 C.2   801  HEM801      0.0000
     21  C4B       34.3370   26.4100   10.7030 C.2   801  HEM801      0.0000
     22  CMB       37.4780   27.3900    8.8390 C.3   801  HEM801      0.0000
     23  CAB       35.2600   28.8100   10.9400 C.2   801  HEM801      0.0000
     24  CBB       35.3170   29.8210   10.0420 C.2   801  HEM801      0.0000
     25  NC        32.2880   24.4410   11.3980 N.ar  801  HEM801      0.0000
     26  C1C       32.3380   25.7060   11.9180 C.ar  801  HEM801      0.0000
     27  C2C       31.2140   25.9200   12.8010 C.ar  801  HEM801      0.0000
     28  C3C       30.4930   24.8010   12.8010 C.ar  801  HEM801      0.0000
     29  C4C       31.1600   23.8400   11.9440 C.ar  801  HEM801      0.0000
     30  CMC       30.9130   27.2410   13.5420 C.3   801  HEM801      0.0000
     31  CAC       29.1600   24.4390   13.5080 C.2   801  HEM801      0.0000
     32  CBC       28.2550   25.3220   13.9560 C.2   801  HEM801      0.0000
     33  ND        32.1410   22.0540    9.8080 N.2   801  HEM801      0.0000
     34  C1D       31.1140   21.7430   10.6880 C.2   801  HEM801      0.0000
     35  C2D       30.4720   20.5170   10.2370 C.2   801  HEM801      0.0000
     36  C3D       31.1250   20.1030    9.1600 C.2   801  HEM801      0.0000
     37  C4D       32.1750   21.0570    8.8600 C.2   801  HEM801      0.0000
     38  CMD       29.2740   19.8790   10.9980 C.3   801  HEM801      0.0000
     39  CAD       30.8320   18.8730    8.2780 C.3   801  HEM801      0.0000
     40  CBD       30.1170   19.3130    6.9410 C.3   801  HEM801      0.0000
     41  CGD       29.0660   20.3710    7.0810 C.2   801  HEM801      0.0000
     42  O1D       29.1280   21.4520    6.4160 O.co2 801  HEM801      0.0000
     43  O2D       28.1280   20.2070    7.9020 O.co2 801  HEM801      0.0000
@<TRIPOS>BOND
     1    16    14   ar
     2    14    15   ar
     3    14    13    1
     4    12    13    1
     5    12     8    1
     6    11     9    1
     7    42    41   ar
     8     8     9   ar
     9     8     7   ar
    10     9    10   ar
    11    40    41    1
    12    40    39    1
    13    41    43   ar
    14     7     2    2
    15     7     6   ar
    16     2    37    1
    17    10     6   ar
    18    10     3    2
    19    39    36    1
    20     6     1    1
    21     3    18    1
    22    22    19    1
    23    37    36    1
    24    37    33    2
    25    36    35    2
    26    18    19    1
    27    18    17    2
    28    19    20    2
    29    33     1    1
    30    33    34    1
    31     1    17    1
    32     1    25    1
    33    17    21    1
    34    24    23    2
    35    35    34    1
    36    35    38    1
    37    20    21    1
    38    20    23    1
    39    34     5    2
    40    21     4    2
    41    25    26   ar
    42    25    29   ar
    43     4    26    1
    44     5    29    1
    45    26    27   ar
    46    29    28   ar
    47    28    27   ar
    48    28    31    1
    49    27    30    1
    50    31    32    2
