@<TRIPOS>MOLECULE
1jrz_HEM_A_1.pdb
 43 50 0 0 0
SMALL
GASTEIGER

@<TRIPOS>ATOM
      1 FE         33.7570   24.0530    9.9990 Fe    801  HEM801      0.0000
      2  CHA       33.5410   21.4090    7.9630 C.2   801  HEM801      0.0000
      3  CHB       36.7780   24.9220    8.6410 C.2   801  HEM801      0.0000
      4  CHC       33.6220   26.9840   11.7350 C.2   801  HEM801      0.0000
      5  CHD       31.2690   22.7520   11.9900 C.2   801  HEM801      0.0000
      6  NA        34.9640   23.2860    8.5900 N.ar  801  HEM801      0.0000
      7  C1A       34.6740   22.1760    7.7790 C.ar  801  HEM801      0.0000
      8  C2A       35.7140   22.0480    6.7920 C.ar  801  HEM801      0.0000
      9  C3A       36.6090   23.0170    6.9900 C.ar  801  HEM801      0.0000
     10  C4A       36.1420   23.8230    8.1070 C.ar  801  HEM801      0.0000
     11  CMA       37.9230   23.3130    6.2190 C.3   801  HEM801      0.0000
     12  CAA       35.8240   20.9320    5.6930 C.3   801  HEM801      0.0000
     13  CBA       36.9470   19.9590    6.0410 C.3   801  HEM801      0.0000
     14  CGA       37.0040   18.6840    5.2220 C.2   801  HEM801      0.0000
     15  O1A       37.7910   17.7990    5.6160 O.co2 801  HEM801      0.0000
     16  O2A       36.2930   18.5810    4.2000 O.co2 801  HEM801      0.0000
     17  NB        34.9840   25.6310   10.1800 N.2   801  HEM801      0.0000
     18  C1B       36.1550   25.8350    9.4720 C.2   801  HEM801      0.0000
     19  C2B       36.6120   27.1930    9.7740 C.2   801  HEM801      0.0000
     20  C3B       35.7350   27.7360   10.5950 C.2   801  HEM801      0.0000
     21  C4B       34.6940   26.7740   10.8750 C.2   801  HEM801      0.0000
     22  CMB       37.9120   27.7290    9.1310 C.3   801  HEM801      0.0000
     23  CAB       35.6180   29.1620   11.1990 C.3   801  HEM801      0.0000
     24  CBB       35.8360   30.2010   10.3190 C.3   801  HEM801      0.0000
     25  NC        32.7430   24.6890   11.6090 N.ar  801  HEM801      0.0000
     26  C1C       32.7110   25.9950   12.0720 C.ar  801  HEM801      0.0000
     27  C2C       31.5810   26.1810   12.9480 C.ar  801  HEM801      0.0000
     28  C3C       30.9070   25.0250   12.9840 C.ar  801  HEM801      0.0000
     29  C4C       31.6270   24.0690   12.1820 C.ar  801  HEM801      0.0000
     30  CMC       31.2480   27.5280   13.6360 C.3   801  HEM801      0.0000
     31  CAC       29.5870   24.7240   13.7260 C.2   801  HEM801      0.0000
     32  CBC       28.7070   25.7440   13.9880 C.2   801  HEM801      0.0000
     33  ND        32.6310   22.3780    9.9760 N.2   801  HEM801      0.0000
     34  C1D       31.6280   22.0430   10.8770 C.2   801  HEM801      0.0000
     35  C2D       30.9920   20.7930   10.4320 C.2   801  HEM801      0.0000
     36  C3D       31.6140   20.4220    9.3250 C.2   801  HEM801      0.0000
     37  C4D       32.6440   21.3990    9.0190 C.2   801  HEM801      0.0000
     38  CMD       29.8140   20.1700   11.2250 C.3   801  HEM801      0.0000
     39  CAD       31.3060   19.2290    8.4000 C.3   801  HEM801      0.0000
     40  CBD       30.6610   19.7780    7.0810 C.3   801  HEM801      0.0000
     41  CGD       29.5270   20.7780    7.2360 C.2   801  HEM801      0.0000
     42  O1D       29.5700   21.8460    6.5700 O.co2 801  HEM801      0.0000
     43  O2D       28.5610   20.5450    7.9960 O.co2 801  HEM801      0.0000
@<TRIPOS>BOND
     1    16    14   ar
     2    14    15   ar
     3    14    13    1
     4    12    13    1
     5    12     8    1
     6    11     9    1
     7    42    41   ar
     8     8     9   ar
     9     8     7   ar
    10     9    10   ar
    11    40    41    1
    12    40    39    1
    13    41    43   ar
    14     7     2    2
    15     7     6   ar
    16     2    37    1
    17    10     6   ar
    18    10     3    2
    19    39    36    1
    20     6     1    1
    21     3    18    1
    22    37    36    1
    23    37    33    2
    24    22    19    1
    25    36    35    2
    26    18    19    1
    27    18    17    2
    28    19    20    2
    29    33     1    1
    30    33    34    1
    31     1    17    1
    32     1    25    1
    33    17    21    1
    34    24    23    1
    35    35    34    1
    36    35    38    1
    37    20    21    1
    38    20    23    1
    39    21     4    2
    40    34     5    2
    41    25    26   ar
    42    25    29   ar
    43     4    26    1
    44     5    29    1
    45    26    27   ar
    46    29    28   ar
    47    27    28   ar
    48    27    30    1
    49    28    31    1
    50    31    32    2
