@<TRIPOS>MOLECULE
1js3_PLP_A_1.pdb
 15 15 0 0 0
SMALL
GASTEIGER

@<TRIPOS>ATOM
      1  N1        47.7580   37.0650   64.7070 N.2   601  PLP601     -0.2505
      2  C2        46.6950   37.7560   64.2150 C.2   601  PLP601      0.0675
      3  C2A       46.8460   38.4950   62.8890 C.3   601  PLP601      0.0499
      4  C3        45.5050   37.7970   64.9260 C.3   601  PLP601      0.1913
      5  O3        44.4140   38.4420   64.4060 O.3   601  PLP601     -0.2167
      6  C4        45.4090   37.1290   66.1390 C.3   601  PLP601      0.0581
      7  C4A       44.0550   36.7660   66.7140 C.3   601  PLP601      0.0075
      8  C5        46.5180   36.4480   66.6220 C.2   601  PLP601      0.0073
      9  C6        47.6740   36.4230   65.9000 C.2   601  PLP601      0.0921
     10  C5A       46.4170   35.6110   67.8960 C.3   601  PLP601      0.1776
     11  O4P       45.6610   34.4180   67.6430 O.3   601  PLP601     -0.2656
     12  P         45.0980   33.5170   68.8330 P.3   601  PLP601      0.5329
     13  O1P       44.9220   32.1480   68.2960 O.2   601  PLP601     -0.2224
     14  O2P       46.3270   33.5150   69.8640 O.3   601  PLP601     -0.1145
     15  O3P       43.9620   34.2120   69.4690 O.3   601  PLP601     -0.1145
@<TRIPOS>BOND
     1     3     2    1
     2     2     1    2
     3     2     4    1
     4     5     4    1
     5     1     9    1
     6     4     6    1
     7     9     8    2
     8     6     8    1
     9     6     7    1
    10     8    10    1
    11    11    10    1
    12    11    12    1
    13    13    12    2
    14    12    15    1
    15    12    14    1
