@<TRIPOS>MOLECULE
1js3_142_A_1.pdb
 16 16 0 0 0
SMALL
GASTEIGER

@<TRIPOS>ATOM
      1  NN        42.8360   38.7470   67.5080 N.3   701  142701     -0.1042
      2  N         42.9920   37.3500   67.2730 N.3   701  142701     -0.0200
      3  CA        41.6280   39.1120   67.6850 C.3   701  142701      0.1753
      4  CB        40.8910   38.2800   68.7760 C.3   701  142701      0.0551
      5  CB1       40.8700   38.9700   66.3620 C.3   701  142701      0.0310
      6  CG        40.4610   36.8370   68.4620 C.ar  701  142701     -0.0168
      7  CD1       41.1650   35.7550   69.0050 C.ar  701  142701      0.0412
      8  CE1       40.7870   34.4320   68.7610 C.ar  701  142701      0.2339
      9  CD2       39.3490   36.5490   67.6600 C.ar  701  142701     -0.0007
     10  CE2       38.9550   35.2000   67.4050 C.ar  701  142701      0.0451
     11  CZ        39.6960   34.1510   67.9700 C.ar  701  142701      0.2342
     12  OH        39.3740   32.8200   67.7580 O.3   701  142701     -0.2831
     13  OE1       41.4920   33.3740   69.2970 O.3   701  142701     -0.2832
     14  C         41.6150   40.5760   68.1540 C.2   701  142701      0.3803
     15  O         40.4920   41.0840   68.3500 O.co2 701  142701     -0.2441
     16  OXT       42.5920   40.9000   68.8720 O.co2 701  142701     -0.2441
@<TRIPOS>BOND
     1     5     3    1
     2     2     1    1
     3    10     9   ar
     4    10    11   ar
     5     1     3    1
     6     9     6   ar
     7     3    14    1
     8     3     4    1
     9    12    11    1
    10    11     8   ar
    11    14    15   ar
    12    14    16   ar
    13     6     4    1
    14     6     7   ar
    15     8     7   ar
    16     8    13    1
