@<TRIPOS>MOLECULE
1js4_BGC_A_1.pdb
 11 11 0 0 0
SMALL
GASTEIGER

@<TRIPOS>ATOM
      1  C2        60.7830   60.9290    8.7610 C.3   6001  BGC6001     0.2141
      2  C3        60.3360   62.2150    8.1080 C.3   6001  BGC6001     0.2173
      3  C4        60.5040   62.1070    6.5940 C.3   6001  BGC6001     0.2142
      4  C5        59.7570   60.8850    6.0710 C.3   6001  BGC6001     0.1810
      5  C6        59.9420   60.6560    4.5720 C.3   6001  BGC6001     0.2141
      6  C1        60.0540   59.7430    8.1480 C.3   6001  BGC6001     0.1777
      7  O2        60.4670   60.9650   10.1470 O.3   6001  BGC6001    -0.2176
      8  O3        61.1320   63.2750    8.6070 O.3   6001  BGC6001    -0.2175
      9  O4        59.9950   63.2840    5.9990 O.3   6001  BGC6001    -0.2176
     10  O5        60.2640   59.7130    6.7320 O.3   6001  BGC6001    -0.3481
     11  O6        61.3160   60.5080    4.2670 O.3   6001  BGC6001    -0.2176
@<TRIPOS>BOND
     1    11     5    1
     2     5     4    1
     3     9     3    1
     4     4     3    1
     5     4    10    1
     6     3     2    1
     7    10     6    1
     8     2     8    1
     9     2     1    1
    10     6     1    1
    11     1     7    1
