@<TRIPOS>MOLECULE
1js6_PLP_A_1.pdb
 15 15 0 0 0
SMALL
GASTEIGER

@<TRIPOS>ATOM
      1  N1       -31.7530   91.0850   58.1970 N.ar  601  PLP601     -0.2452
      2  C2       -32.7060   90.6880   59.0890 C.ar  601  PLP601      0.0978
      3  C2A      -32.2780   90.0960   60.4250 C.3   601  PLP601      0.0555
      4  C3       -34.0420   90.8960   58.8080 C.ar  601  PLP601      0.2049
      5  O3       -35.0000   90.5280   59.7150 O.3   601  PLP601     -0.2857
      6  C4       -34.4080   91.5110   57.6330 C.ar  601  PLP601      0.0182
      7  C4A      -35.8710   91.8480   57.3830 C.3   601  PLP601      0.0342
      8  C5       -33.4320   91.9120   56.7360 C.ar  601  PLP601      0.0261
      9  C6       -32.1140   91.6970   57.0270 C.ar  601  PLP601      0.0965
     10  C5A      -33.8060   92.6270   55.4280 C.3   601  PLP601      0.1815
     11  O4P      -33.9360   94.0410   55.6390 O.3   601  PLP601     -0.2653
     12  P        -34.1930   95.0230   54.3970 P.3   601  PLP601      0.5329
     13  O1P      -34.1210   96.4120   54.8920 O.3   601  PLP601     -0.1145
     14  O2P      -32.8990   94.7410   53.4780 O.2   601  PLP601     -0.2224
     15  O3P      -35.3970   94.5650   53.6770 O.3   601  PLP601     -0.1145
@<TRIPOS>BOND
     1    14    12    2
     2    15    12    1
     3    12    13    1
     4    12    11    1
     5    10    11    1
     6    10     8    1
     7     8     9   ar
     8     8     6   ar
     9     9     1   ar
    10     7     6    1
    11     6     4   ar
    12     1     2   ar
    13     4     2   ar
    14     4     5    1
    15     2     3    1
