@<TRIPOS>MOLECULE
1js8_MAN_A_1.pdb
 11 11 0 0 0
SMALL
GASTEIGER

@<TRIPOS>ATOM
      1  C1        40.5020   34.2740   69.2740 C.3   893  MAN893      0.1777
      2  C2        41.2530   32.9750   69.0500 C.3   893  MAN893      0.2141
      3  C3        40.7010   31.9090   70.0050 C.3   893  MAN893      0.2173
      4  C4        40.7060   32.3920   71.4180 C.3   893  MAN893      0.2142
      5  C5        40.1020   33.7710   71.5590 C.3   893  MAN893      0.1810
      6  C6        40.4260   34.3220   72.9220 C.3   893  MAN893      0.2141
      7  O2        42.6450   33.1600   69.2760 O.3   893  MAN893     -0.2176
      8  O3        41.5500   30.7530   69.9650 O.3   893  MAN893     -0.2175
      9  O4        39.9400   31.4980   72.1890 O.3   893  MAN893     -0.2176
     10  O5        40.6680   34.6900   70.6090 O.3   893  MAN893     -0.3481
     11  O6        39.6900   35.5360   73.0870 O.3   893  MAN893     -0.2176
@<TRIPOS>BOND
     1     2     1    1
     2     2     7    1
     3     2     3    1
     4     1    10    1
     5     8     3    1
     6     3     4    1
     7    10     5    1
     8     4     5    1
     9     4     9    1
    10     5     6    1
    11     6    11    1
