@<TRIPOS>MOLECULE
1jsc_TPP_A_1.pdb
 26 27 0 0 0
SMALL
GASTEIGER

@<TRIPOS>ATOM
      1  N1'      100.4340   67.6290  159.1380 N.2   700  TPP700     -0.1861
      2  C2'       99.1910   67.1880  158.8800 C.1   700  TPP700      0.0663
      3  CM2       97.9860   67.9460  159.4030 C.3   700  TPP700      0.1291
      4  N3'       98.9920   66.0670  158.1450 N.2   700  TPP700     -0.3368
      5  C4'      100.0430   65.3390  157.6450 C.2   700  TPP700      0.2292
      6  N4'       99.7510   64.2390  156.9250 N.pl3 700  TPP700     -0.0925
      7  C5'      101.3950   65.7900  157.9100 C.2   700  TPP700      0.0654
      8  C6'      101.5410   66.9720  158.6860 C.2   700  TPP700      0.1115
      9  C7'      102.6920   65.0610  157.4120 C.3   700  TPP700      0.1237
     10  N3       102.8470   63.7140  158.0570 N.pl3 700  TPP700     -0.2970
     11  C2       102.4230   62.6540  157.4060 C.3   700  TPP700      0.1543
     12  S1       102.6700   61.1640  158.3090 S.3   700  TPP700     -0.0951
     13  C5       103.3780   62.1190  159.6070 C.2   700  TPP700      0.0164
     14  C4       103.3890   63.4400  159.2840 C.2   700  TPP700      0.0279
     15  CM4      103.9530   64.4970  160.2230 C.3   700  TPP700      0.0473
     16  C6       103.8720   61.4660  160.8780 C.3   700  TPP700      0.0661
     17  C7       102.8000   60.5330  161.4350 C.3   700  TPP700      0.1544
     18  O7       103.1590   60.1920  162.8660 O.3   700  TPP700     -0.3134
     19  PA       102.2870   59.2560  163.7570 P.3   700  TPP700      0.2230
     20  O1A      102.9310   59.1420  165.0670 O.3   700  TPP700     -0.4370
     21  O2A      100.9280   59.7660  163.7840 O.2   700  TPP700     -0.5169
     22  O3A      102.3210   57.8380  163.0170 O.3   700  TPP700     -0.2261
     23  PB       103.4370   56.7360  162.6300 P.3   700  TPP700      0.5373
     24  O1B      103.8160   57.0120  161.2590 O.2   700  TPP700     -0.2221
     25  O2B      102.6760   55.5070  162.8270 O.3   700  TPP700     -0.1143
     26  O3B      104.5080   56.9200  163.6510 O.3   700  TPP700     -0.1143
@<TRIPOS>BOND
     1     6     5    1
     2    11    10    1
     3    11    12    1
     4     9     7    1
     5     9    10    1
     6     5     7    1
     7     5     4    2
     8     7     8    2
     9    10    14    1
    10     4     2    2
    11    12    13    1
    12     8     1    1
    13     2     1    2
    14     2     3    1
    15    14    13    2
    16    14    15    1
    17    13    16    1
    18    16    17    1
    19    24    23    2
    20    17    18    1
    21    23    25    1
    22    23    22    1
    23    23    26    1
    24    18    19    1
    25    22    19    1
    26    19    21    2
    27    19    20    1
