@<TRIPOS>MOLECULE
1jsh_SIA_A_1.pdb
 20 20 0 0 0
SMALL
GASTEIGER

@<TRIPOS>ATOM
      1  C1        27.4040   36.0270  -46.2550 C.2   328  SIA328      0.3914
      2  C2        27.3920   36.1250  -47.7830 C.3   328  SIA328      0.2203
      3  C3        26.8550   37.5020  -48.2100 C.3   328  SIA328      0.0760
      4  C4        27.8220   38.6270  -47.8360 C.3   328  SIA328      0.1773
      5  C5        29.2370   38.3130  -48.3230 C.3   328  SIA328      0.1552
      6  C6        29.6520   36.9460  -47.7770 C.3   328  SIA328      0.1710
      7  C7        31.0870   36.5860  -48.1630 C.3   328  SIA328      0.2134
      8  C8        31.4100   35.1350  -47.7800 C.3   328  SIA328      0.2173
      9  C9        32.8780   34.8130  -48.0550 C.3   328  SIA328      0.2175
     10  C10       30.9740   39.9440  -48.7130 C.2   328  SIA328      0.2420
     11  C11       31.8250   41.0830  -48.1750 C.3   328  SIA328      0.0964
     12  N5        30.1550   39.3360  -47.8590 N.am  328  SIA328     -0.2020
     13  O1A       26.4070   36.4360  -45.6220 O.co2 328  SIA328     -0.2430
     14  O1B       28.4050   35.5320  -45.6850 O.co2 328  SIA328     -0.2430
     15  O4        27.3820   39.8500  -48.4080 O.3   328  SIA328     -0.2211
     16  O6        28.7380   35.9370  -48.2590 O.3   328  SIA328     -0.3429
     17  O7        31.2660   36.7650  -49.5600 O.3   328  SIA328     -0.2176
     18  O8        31.1240   34.9140  -46.4060 O.3   328  SIA328     -0.2175
     19  O9        33.1630   33.4840  -47.6330 O.3   328  SIA328     -0.2175
     20  O10       31.0620   39.6230  -49.8970 O.2   328  SIA328     -0.2733
@<TRIPOS>BOND
     1    20    10    2
     2    17     7    1
     3    10    11    1
     4    10    12   am
     5    15     4    1
     6     5    12    1
     7     5     4    1
     8     5     6    1
     9    16     2    1
    10    16     6    1
    11     3     4    1
    12     3     2    1
    13     7     8    1
    14     7     6    1
    15     9     8    1
    16     9    19    1
    17     2     1    1
    18     8    18    1
    19     1    14   ar
    20     1    13   ar
