@<TRIPOS>MOLECULE
1jsh_GAL_A_1.pdb
 12 12 0 0 0
SMALL
GASTEIGER

@<TRIPOS>ATOM
      1  C1        26.9420   31.5250  -49.4350 C.3   329  GAL329      0.3024
      2  C2        26.6680   33.0310  -49.5470 C.3   329  GAL329      0.2434
      3  C3        27.0520   33.7600  -48.2480 C.3   329  GAL329      0.2199
      4  C4        26.4350   33.0680  -47.0220 C.3   329  GAL329      0.2144
      5  C5        26.7180   31.5520  -47.0530 C.3   329  GAL329      0.1836
      6  C6        26.0320   30.7900  -45.9300 C.3   329  GAL329      0.2142
      7  O1        26.4730   30.8750  -50.5680 O.3   329  GAL329     -0.1869
      8  O2        27.4090   33.5710  -50.6340 O.3   329  GAL329     -0.2148
      9  O3        26.5860   35.1250  -48.3200 O.3   329  GAL329     -0.2174
     10  O4        25.0340   33.3060  -46.9850 O.3   329  GAL329     -0.2176
     11  O5        26.2590   30.9800  -48.2980 O.3   329  GAL329     -0.3236
     12  O6        26.2260   29.3870  -46.0630 O.3   329  GAL329     -0.2176
@<TRIPOS>BOND
     1     8     2    1
     2     7     1    1
     3     2     1    1
     4     2     3    1
     5     1    11    1
     6     9     3    1
     7    11     5    1
     8     3     4    1
     9     5     4    1
    10     5     6    1
    11     4    10    1
    12    12     6    1
