@<TRIPOS>MOLECULE
1jsh_NAG_A_1.pdb
 14 14 0 0 0
SMALL
GASTEIGER

@<TRIPOS>ATOM
      1  C1        43.5540   55.6880  -52.8750 C.3   321  NAG321      0.1665
      2  C2        44.6880   55.4820  -51.8730 C.3   321  NAG321      0.1576
      3  C3        45.2880   56.8400  -51.4880 C.3   321  NAG321      0.2069
      4  C4        45.6700   57.6430  -52.7440 C.3   321  NAG321      0.2134
      5  C5        44.4830   57.7200  -53.7110 C.3   321  NAG321      0.1809
      6  C6        44.8420   58.3850  -55.0260 C.3   321  NAG321      0.2141
      7  C7        44.7920   53.7900  -50.1600 C.2   321  NAG321      0.2420
      8  C8        45.1020   53.8860  -48.6750 C.3   321  NAG321      0.0964
      9  N2        44.1530   54.8220  -50.7000 N.am  321  NAG321     -0.2019
     10  O3        46.4380   56.6440  -50.6790 O.3   321  NAG321     -0.2184
     11  O4        46.0850   58.9760  -52.3750 O.3   321  NAG321     -0.2176
     12  O5        44.0220   56.3910  -54.0280 O.3   321  NAG321     -0.3489
     13  O6        45.2290   57.4250  -56.0010 O.3   321  NAG321     -0.2176
     14  O7        45.1350   52.7940  -50.8030 O.2   321  NAG321     -0.2733
@<TRIPOS>BOND
     1    13     6    1
     2     6     5    1
     3    12     5    1
     4    12     1    1
     5     5     4    1
     6     1     2    1
     7     4    11    1
     8     4     3    1
     9     2     3    1
    10     2     9    1
    11     3    10    1
    12    14     7    2
    13     9     7   am
    14     7     8    1
