@<TRIPOS>MOLECULE
1jsi_GAL_A_1.pdb
 11 11 0 0 0
SMALL
GASTEIGER

@<TRIPOS>ATOM
      1  C1        29.4600   42.1580  -52.1220 C.3   331  GAL331      0.1777
      2  C2        28.6070   41.0380  -52.7470 C.3   331  GAL331      0.2141
      3  C3        29.4440   39.7590  -52.9030 C.3   331  GAL331      0.2173
      4  C4        30.7270   40.0800  -53.6910 C.3   331  GAL331      0.2142
      5  C5        31.4810   41.2640  -53.0580 C.3   331  GAL331      0.1810
      6  C6        32.6750   41.6940  -53.9000 C.3   331  GAL331      0.2141
      7  O2        27.4710   40.7730  -51.9340 O.3   331  GAL331     -0.2176
      8  O3        28.6720   38.7550  -53.6040 O.3   331  GAL331     -0.2175
      9  O4        30.4010   40.3910  -55.0380 O.3   331  GAL331     -0.2176
     10  O5        30.6090   42.4130  -52.9410 O.3   331  GAL331     -0.3481
     11  O6        32.9450   43.0860  -53.7660 O.3   331  GAL331     -0.2176
@<TRIPOS>BOND
     1     9     4    1
     2     6    11    1
     3     6     5    1
     4     4     5    1
     5     4     3    1
     6     8     3    1
     7     5    10    1
     8    10     1    1
     9     3     2    1
    10     2     1    1
    11     2     7    1
