@<TRIPOS>MOLECULE
1jsi_SIA_A_1.pdb
 20 20 0 0 0
SMALL
GASTEIGER

@<TRIPOS>ATOM
      1  C1        27.3980   36.1740  -46.4560 C.2   328  SIA328      0.3914
      2  C2        27.3830   36.2520  -47.9830 C.3   328  SIA328      0.2203
      3  C3        26.8270   37.6060  -48.4280 C.3   328  SIA328      0.0760
      4  C4        27.7700   38.7450  -48.0640 C.3   328  SIA328      0.1773
      5  C5        29.1940   38.4520  -48.5390 C.3   328  SIA328      0.1552
      6  C6        29.6260   37.0960  -47.9890 C.3   328  SIA328      0.1710
      7  C7        31.0680   36.7540  -48.3720 C.3   328  SIA328      0.2134
      8  C8        31.3800   35.3100  -47.9890 C.3   328  SIA328      0.2173
      9  C9        32.8260   34.9560  -48.3160 C.3   328  SIA328      0.2175
     10  C10       30.9690   40.0410  -48.8990 C.2   328  SIA328      0.2420
     11  C11       31.7510   41.2440  -48.3940 C.3   328  SIA328      0.0964
     12  N5        30.0950   39.4850  -48.0650 N.am  328  SIA328     -0.2020
     13  O1A       26.3720   36.5260  -45.8290 O.co2 328  SIA328     -0.2430
     14  O1B       28.4230   35.7390  -45.8800 O.co2 328  SIA328     -0.2430
     15  O4        27.3060   39.9350  -48.6700 O.3   328  SIA328     -0.2211
     16  O6        28.7240   36.0730  -48.4640 O.3   328  SIA328     -0.3429
     17  O7        31.2560   36.9330  -49.7680 O.3   328  SIA328     -0.2176
     18  O8        31.1460   35.1210  -46.6030 O.3   328  SIA328     -0.2175
     19  O9        33.0420   33.5750  -48.0550 O.3   328  SIA328     -0.2175
     20  O10       31.1580   39.6220  -50.0410 O.2   328  SIA328     -0.2733
@<TRIPOS>BOND
     1    20    10    2
     2    17     7    1
     3    10    11    1
     4    10    12   am
     5    15     4    1
     6     5    12    1
     7     5     4    1
     8     5     6    1
     9    16     6    1
    10    16     2    1
    11     3     4    1
    12     3     2    1
    13     7     8    1
    14     7     6    1
    15     9    19    1
    16     9     8    1
    17     8    18    1
    18     2     1    1
    19     1    14   ar
    20     1    13   ar
