@<TRIPOS>MOLECULE
1jsi_GLC_A_1.pdb
 12 12 0 0 0
SMALL
GASTEIGER

@<TRIPOS>ATOM
      1  C1        27.2500   45.9430  -49.1990 C.3   332  GLC332      0.3024
      2  C2        28.4690   46.4770  -49.9530 C.3   332  GLC332      0.2434
      3  C3        28.7930   45.5900  -51.1670 C.3   332  GLC332      0.2199
      4  C4        28.7940   44.0870  -50.8280 C.3   332  GLC332      0.2144
      5  C5        27.6030   43.7000  -49.9320 C.3   332  GLC332      0.1836
      6  C6        27.7720   42.3150  -49.3570 C.3   332  GLC332      0.2142
      7  O1        27.0360   46.6890  -48.0490 O.3   332  GLC332     -0.1869
      8  O2        28.2100   47.8040  -50.3930 O.3   332  GLC332     -0.2148
      9  O3        30.0710   45.9430  -51.6780 O.3   332  GLC332     -0.2174
     10  O4        28.7210   43.3300  -52.0550 O.3   332  GLC332     -0.2176
     11  O5        27.4880   44.5930  -48.8050 O.3   332  GLC332     -0.3236
     12  O6        28.4970   42.3500  -48.1370 O.3   332  GLC332     -0.2176
@<TRIPOS>BOND
     1    10     4    1
     2     9     3    1
     3     3     4    1
     4     3     2    1
     5     4     5    1
     6     8     2    1
     7     2     1    1
     8     5     6    1
     9     5    11    1
    10     6    12    1
    11     1    11    1
    12     1     7    1
