@<TRIPOS>MOLECULE
1jsi_NAG_A_1.pdb
 14 14 0 0 0
SMALL
GASTEIGER

@<TRIPOS>ATOM
      1  C1        43.6790   55.7390  -52.7950 C.3   321  NAG321      0.1665
      2  C2        44.9250   55.5970  -51.9180 C.3   321  NAG321      0.1576
      3  C3        45.4690   56.9890  -51.5960 C.3   321  NAG321      0.2069
      4  C4        45.6980   57.8070  -52.8770 C.3   321  NAG321      0.2134
      5  C5        44.4320   57.8070  -53.7400 C.3   321  NAG321      0.1809
      6  C6        44.6500   58.4570  -55.0890 C.3   321  NAG321      0.2141
      7  C7        44.6850   53.6030  -50.5850 C.2   321  NAG321      0.2420
      8  C8        43.3970   52.8490  -50.3170 C.3   321  NAG321      0.0964
      9  N2        44.5960   54.9250  -50.6780 N.am  321  NAG321     -0.2019
     10  O3        46.6840   56.8710  -50.8720 O.3   321  NAG321     -0.2184
     11  O4        46.0480   59.1640  -52.5300 O.3   321  NAG321     -0.2176
     12  O5        44.0010   56.4510  -53.9950 O.3   321  NAG321     -0.3489
     13  O6        44.9370   57.4880  -56.0870 O.3   321  NAG321     -0.2176
     14  O7        45.7440   52.9870  -50.7020 O.2   321  NAG321     -0.2733
@<TRIPOS>BOND
     1    13     6    1
     2     6     5    1
     3    12     5    1
     4    12     1    1
     5     5     4    1
     6     4    11    1
     7     4     3    1
     8     1     2    1
     9     2     3    1
    10     2     9    1
    11     3    10    1
    12    14     7    2
    13     9     7   am
    14     7     8    1
