@<TRIPOS>MOLECULE
1jsl_DDO_A_1.pdb
 10 9 0 0 0
SMALL
GASTEIGER

@<TRIPOS>ATOM
      1  N         40.0430   11.9180   49.0950 N.3   2401  DDO2401    -0.1208
      2  CA        39.5810   12.4380   47.8150 C.3   2401  DDO2401     0.1943
      3  CB        40.7550   12.7360   46.8870 C.3   2401  DDO2401     0.0307
      4  CG        41.6440   11.5450   46.6050 C.3   2401  DDO2401     0.0048
      5  CD        42.3640   11.7050   45.2710 C.3   2401  DDO2401     0.0356
      6  CE        41.4830   11.2710   44.0890 C.3   2401  DDO2401     0.1821
      7  OZ        40.3030   12.0490   43.9830 O.3   2401  DDO2401    -0.2204
      8  C         38.7300   13.6850   47.9690 C.2   2401  DDO2401     0.3819
      9  O         37.5080   13.5120   47.8810 O.co2 2401  DDO2401    -0.2441
     10  OXT       39.2710   14.7990   48.1640 O.co2 2401  DDO2401    -0.2441
@<TRIPOS>BOND
     1     7     6    1
     2     6     5    1
     3     5     4    1
     4     4     3    1
     5     3     2    1
     6     2     8    1
     7     2     1    1
     8     9     8   ar
     9     8    10   ar
