@<TRIPOS>MOLECULE
1jsn_SIA_A_1.pdb
 20 20 0 0 0
SMALL
GASTEIGER

@<TRIPOS>ATOM
      1  C1        85.9140  -19.6380   57.3820 C.2   332  SIA332      0.3914
      2  C2        85.4250  -19.4280   55.9440 C.3   332  SIA332      0.2203
      3  C3        86.6330  -19.4320   55.0030 C.3   332  SIA332      0.0760
      4  C4        87.3180  -20.8000   55.0910 C.3   332  SIA332      0.1773
      5  C5        86.3140  -21.9280   54.7900 C.3   332  SIA332      0.1552
      6  C6        85.0510  -21.8090   55.6650 C.3   332  SIA332      0.1710
      7  C7        83.9830  -22.8170   55.1950 C.3   332  SIA332      0.2134
      8  C8        82.5800  -22.4300   55.6940 C.3   332  SIA332      0.2173
      9  C9        81.5810  -23.5500   55.4700 C.3   332  SIA332      0.2175
     10  C10       86.7060  -24.2380   54.2290 C.2   332  SIA332      0.2420
     11  C11       87.1220  -25.6090   54.7360 C.3   332  SIA332      0.0964
     12  N5        86.9450  -23.2090   55.0340 N.am  332  SIA332     -0.2020
     13  O1A       86.7480  -18.8390   57.8450 O.co2 332  SIA332     -0.2430
     14  O1B       85.4700  -20.5920   58.0600 O.co2 332  SIA332     -0.2430
     15  O4        88.3880  -20.8550   54.1620 O.3   332  SIA332     -0.2211
     16  O6        84.5040  -20.4710   55.5850 O.3   332  SIA332     -0.3429
     17  O7        83.9730  -22.8440   53.7790 O.3   332  SIA332     -0.2176
     18  O8        82.6220  -22.1260   57.0760 O.3   332  SIA332     -0.2175
     19  O9        80.5450  -23.4530   56.4360 O.3   332  SIA332     -0.2175
     20  O10       86.1770  -24.1210   53.1240 O.2   332  SIA332     -0.2733
@<TRIPOS>BOND
     1    20    10    2
     2    17     7    1
     3    15     4    1
     4    10    11    1
     5    10    12   am
     6     5    12    1
     7     5     4    1
     8     5     6    1
     9     3     4    1
    10     3     2    1
    11     7     6    1
    12     7     8    1
    13     9     8    1
    14     9    19    1
    15    16     6    1
    16    16     2    1
    17     8    18    1
    18     2     1    1
    19     1    13   ar
    20     1    14   ar
