@<TRIPOS>MOLECULE
1jsn_GAL_A_1.pdb
 11 11 0 0 0
SMALL
GASTEIGER

@<TRIPOS>ATOM
      1  C1        83.3230  -15.7640   53.3800 C.3   333  GAL333      0.1777
      2  C2        84.2210  -16.3240   54.4940 C.3   333  GAL333      0.2141
      3  C3        84.0650  -17.8440   54.6620 C.3   333  GAL333      0.2173
      4  C4        82.5720  -18.2380   54.7410 C.3   333  GAL333      0.2142
      5  C5        81.7930  -17.5970   53.5780 C.3   333  GAL333      0.1810
      6  C6        80.2930  -17.8730   53.6260 C.3   333  GAL333      0.2141
      7  O2        85.5800  -16.0310   54.2140 O.3   333  GAL333     -0.2176
      8  O3        84.7430  -18.2230   55.8800 O.3   333  GAL333     -0.2175
      9  O4        82.0090  -17.8230   55.9820 O.3   333  GAL333     -0.2176
     10  O5        81.9650  -16.1600   53.6000 O.3   333  GAL333     -0.3481
     11  O6        79.6590  -17.5480   52.3930 O.3   333  GAL333     -0.2176
@<TRIPOS>BOND
     1    11     6    1
     2     1    10    1
     3     1     2    1
     4     5    10    1
     5     5     6    1
     6     5     4    1
     7     7     2    1
     8     2     3    1
     9     3     4    1
    10     3     8    1
    11     4     9    1
