@<TRIPOS>MOLECULE
1jsn_NAG_A_1.pdb
 14 14 0 0 0
SMALL
GASTEIGER

@<TRIPOS>ATOM
      1  C1        73.5870  -16.1930  122.0850 C.3   327  NAG327      0.1665
      2  C2        72.5860  -15.2390  121.4590 C.3   327  NAG327      0.1576
      3  C3        73.2020  -14.7210  120.1560 C.3   327  NAG327      0.2069
      4  C4        74.5930  -14.0960  120.4180 C.3   327  NAG327      0.2134
      5  C5        75.4870  -15.0540  121.2210 C.3   327  NAG327      0.1809
      6  C6        76.7930  -14.4130  121.6640 C.3   327  NAG327      0.2141
      7  C7        70.2430  -15.6170  121.8750 C.2   327  NAG327      0.2420
      8  C8        69.4740  -16.7480  122.5370 C.3   327  NAG327      0.0964
      9  N2        71.3380  -15.9300  121.1900 N.am  327  NAG327     -0.2019
     10  O3        72.3410  -13.7580  119.5650 O.3   327  NAG327     -0.2184
     11  O4        75.2290  -13.7920  119.1810 O.3   327  NAG327     -0.2176
     12  O5        74.7940  -15.4950  122.4090 O.3   327  NAG327     -0.3489
     13  O6        77.7630  -14.4630  120.6260 O.3   327  NAG327     -0.2176
     14  O7        69.8440  -14.4620  121.9930 O.2   327  NAG327     -0.2733
@<TRIPOS>BOND
     1    11     4    1
     2    10     3    1
     3     3     4    1
     4     3     2    1
     5     4     5    1
     6    13     6    1
     7     9     2    1
     8     9     7   am
     9     5     6    1
    10     5    12    1
    11     2     1    1
    12     7    14    2
    13     7     8    1
    14     1    12    1
