@<TRIPOS>MOLECULE
1jso_SIA_A_1.pdb
 21 21 0 0 0
SMALL
GASTEIGER

@<TRIPOS>ATOM
      1  C1        85.6270  -19.3100   57.0590 C.2   401  SIA401      0.4179
      2  C2        85.3250  -19.0700   55.5750 C.3   401  SIA401      0.3155
      3  C3        86.6190  -19.2400   54.7750 C.3   401  SIA401      0.1056
      4  C4        87.1550  -20.6540   55.0190 C.3   401  SIA401      0.1798
      5  C5        86.0860  -21.6970   54.6560 C.3   401  SIA401      0.1554
      6  C6        84.7590  -21.4040   55.3770 C.3   401  SIA401      0.1734
      7  C7        83.6390  -22.3570   54.9310 C.3   401  SIA401      0.2135
      8  C8        82.4250  -22.1690   55.8440 C.3   401  SIA401      0.2173
      9  C9        81.3400  -23.1970   55.5440 C.3   401  SIA401      0.2175
     10  C10       86.2740  -24.0480   54.2310 C.2   401  SIA401      0.2420
     11  C11       86.3440  -25.4400   54.8360 C.3   401  SIA401      0.0964
     12  N5        86.5540  -23.0190   55.0210 N.am  401  SIA401     -0.2020
     13  O1A       86.6340  -18.7630   57.5600 O.co2 401  SIA401     -0.2401
     14  O1B       84.8790  -20.0700   57.7160 O.co2 401  SIA401     -0.2401
     15  O2        84.7920  -17.8020   55.3840 O.3   401  SIA401     -0.1830
     16  O4        88.3260  -20.8740   54.2450 O.3   401  SIA401     -0.2210
     17  O6        84.3480  -20.0340   55.1470 O.3   401  SIA401     -0.3220
     18  O7        83.2620  -22.0720   53.5870 O.3   401  SIA401     -0.2176
     19  O8        82.8160  -22.2830   57.2040 O.3   401  SIA401     -0.2175
     20  O9        80.2640  -23.0110   56.4540 O.3   401  SIA401     -0.2175
     21  O10       85.9600  -23.9060   53.0470 O.2   401  SIA401     -0.2733
@<TRIPOS>BOND
     1    21    10    2
     2    18     7    1
     3    10    11    1
     4    10    12   am
     5    16     4    1
     6     5     4    1
     7     5    12    1
     8     5     6    1
     9     3     4    1
    10     3     2    1
    11     7     6    1
    12     7     8    1
    13    17     6    1
    14    17     2    1
    15    15     2    1
    16     9     8    1
    17     9    20    1
    18     2     1    1
    19     8    19    1
    20     1    13   ar
    21     1    14   ar
