@<TRIPOS>MOLECULE
1jso_NAG_A_1.pdb
 14 14 0 0 0
SMALL
GASTEIGER

@<TRIPOS>ATOM
      1  C1        89.3660  -56.4880   65.8910 C.3   328  NAG328      0.1665
      2  C2        88.1730  -57.3290   65.4380 C.3   328  NAG328      0.1576
      3  C3        88.2020  -58.7110   66.1140 C.3   328  NAG328      0.2069
      4  C4        89.5840  -59.3880   66.0500 C.3   328  NAG328      0.2134
      5  C5        90.6940  -58.3960   66.4340 C.3   328  NAG328      0.1809
      6  C6        92.0910  -58.9600   66.2130 C.3   328  NAG328      0.2141
      7  C7        85.9400  -56.5090   64.9780 C.2   328  NAG328      0.2420
      8  C8        84.5830  -56.2600   65.6040 C.3   328  NAG328      0.0964
      9  N2        86.9620  -56.6290   65.8200 N.am  328  NAG328     -0.2019
     10  O3        87.2420  -59.5640   65.5010 O.3   328  NAG328     -0.2184
     11  O4        89.5920  -60.4900   66.9870 O.3   328  NAG328     -0.2176
     12  O5        90.5860  -57.1920   65.6460 O.3   328  NAG328     -0.3489
     13  O6        92.2810  -59.3700   64.8620 O.3   328  NAG328     -0.2176
     14  O7        86.0520  -56.5830   63.7530 O.2   328  NAG328     -0.2733
@<TRIPOS>BOND
     1    14     7    2
     2    13     6    1
     3     7     8    1
     4     7     9   am
     5     2     9    1
     6     2     1    1
     7     2     3    1
     8    10     3    1
     9    12     1    1
    10    12     5    1
    11     4     3    1
    12     4     5    1
    13     4    11    1
    14     6     5    1
