@<TRIPOS>MOLECULE
1jsr_LDO_A_1.pdb
 10 9 0 0 0
SMALL
GASTEIGER

@<TRIPOS>ATOM
      1  N         39.7590   11.7520   48.9250 N.3   2401  LDO2401    -0.1208
      2  CA        40.1370   12.9290   48.1450 C.3   2401  LDO2401     0.1943
      3  CB        40.5130   12.5350   46.7160 C.3   2401  LDO2401     0.0307
      4  CG        41.6850   11.5880   46.6040 C.3   2401  LDO2401     0.0048
      5  CD        42.3080   11.6180   45.2060 C.3   2401  LDO2401     0.0356
      6  CE        41.3360   11.1860   44.1100 C.3   2401  LDO2401     0.1821
      7  OZ        40.3650   12.1860   43.8490 O.3   2401  LDO2401    -0.2204
      8  C         38.9740   13.9120   48.0910 C.2   2401  LDO2401     0.3819
      9  O         39.2260   15.1310   48.1710 O.co2 2401  LDO2401    -0.2441
     10  OXT       37.8280   13.4370   47.9650 O.co2 2401  LDO2401    -0.2441
@<TRIPOS>BOND
     1     7     6    1
     2     6     5    1
     3     5     4    1
     4     4     3    1
     5     3     2    1
     6    10     8   ar
     7     8     2    1
     8     8     9   ar
     9     2     1    1
