@<TRIPOS>MOLECULE
1jst_ATP_A_1.pdb
 31 33 0 0 0
SMALL
GASTEIGER

@<TRIPOS>ATOM
      1  PG        81.9580   55.9460   33.8870 P.3   300  ATP300      0.5373
      2  O1G       83.1160   56.3280   34.7990 O.3   300  ATP300     -0.1143
      3  O2G       80.6220   56.3780   34.3550 O.3   300  ATP300     -0.1143
      4  O3G       82.1570   56.2760   32.4310 O.2   300  ATP300     -0.2221
      5  PB        83.2250   53.2000   34.3010 P.3   300  ATP300      0.2277
      6  O1B       84.0250   53.6980   35.5030 O.3   300  ATP300     -0.4368
      7  O2B       82.6990   51.8030   34.2700 O.2   300  ATP300     -0.5168
      8  O3B       81.9340   54.2630   33.9950 O.3   300  ATP300     -0.2258
      9  PA        85.7050   53.9610   32.6160 P.3   300  ATP300      0.2189
     10  O1A       86.1430   53.4930   31.2930 O.2   300  ATP300     -0.5170
     11  O2A       86.0340   55.3730   33.0460 O.3   300  ATP300     -0.4371
     12  O3A       84.1370   53.5440   32.9130 O.3   300  ATP300     -0.2700
     13  O5'       86.6360   53.2470   33.8510 O.3   300  ATP300     -0.3112
     14  C5'       86.4960   52.3220   35.0390 C.3   300  ATP300      0.1813
     15  C4'       87.5510   51.2430   34.9720 C.3   300  ATP300      0.1821
     16  O4'       86.9640   50.1700   34.2040 O.3   300  ATP300     -0.3135
     17  C3'       88.7550   51.7890   34.1750 C.3   300  ATP300      0.2184
     18  O3'       89.8730   52.2070   35.0290 O.3   300  ATP300     -0.2174
     19  C2'       89.0760   50.7190   33.1800 C.3   300  ATP300      0.2570
     20  O2'       90.3280   50.0930   33.5380 O.3   300  ATP300     -0.2130
     21  C1'       87.8440   49.7210   33.1810 C.3   300  ATP300      0.3186
     22  N9        87.3240   49.7880   31.7700 N.pl3 300  ATP300     -0.1439
     23  C8        86.3070   50.5490   31.2430 C.3   300  ATP300      0.3377
     24  N7        86.3180   50.6280   29.9290 N.2   300  ATP300     -0.2095
     25  C5        87.4290   49.8370   29.5350 C.2   300  ATP300      0.2526
     26  C6        88.0210   49.5070   28.2720 C.2   300  ATP300      0.4393
     27  N6        87.5720   49.9540   27.1150 N.pl3 300  ATP300      0.2180
     28  N1        89.0910   48.7100   28.2640 N.2   300  ATP300      0.0021
     29  C2        89.5570   48.2680   29.4070 C.3   300  ATP300      0.5254
     30  N3        89.1330   48.4870   30.6270 N.2   300  ATP300     -0.0055
     31  C4        88.0350   49.3050   30.6430 C.2   300  ATP300      0.3518
@<TRIPOS>BOND
     1    27    26    1
     2    28    26    2
     3    28    29    1
     4    26    25    1
     5    29    30    1
     6    25    24    2
     7    25    31    1
     8    24    23    1
     9    30    31    2
    10    31    22    1
    11    23    22    1
    12    10     9    2
    13    22    21    1
    14     4     1    2
    15     9    12    1
    16     9    11    1
    17     9    13    1
    18    12     5    1
    19    19    21    1
    20    19    20    1
    21    19    17    1
    22    21    16    1
    23    13    14    1
    24     1     8    1
    25     1     3    1
    26     1     2    1
    27     8     5    1
    28    17    15    1
    29    17    18    1
    30    16    15    1
    31     7     5    2
    32     5     6    1
    33    15    14    1
