@<TRIPOS>MOLECULE
1jsv_U55_A_1.pdb
 18 19 0 0 0
SMALL
GASTEIGER

@<TRIPOS>ATOM
      1  N17       14.2130    8.6870   24.6230 N.pl3 400  U55400      0.2114
      2  C11       13.4030    9.5650   23.9370 C.2   400  U55400      0.4035
      3  N12       13.7080    9.8330   22.6380 N.2   400  U55400     -0.0030
      4  C13       12.8280   10.6440   21.9280 C.3   400  U55400      0.5249
      5  N14       11.7900   11.2960   22.4730 N.2   400  U55400     -0.0073
      6  C16       12.2500   10.1510   24.5330 C.3   400  U55400      0.2462
      7  C15       11.4710   11.0590   23.8010 C.2   400  U55400      0.3543
      8  N18       10.4610   11.7520   24.3080 N.pl3 400  U55400     -0.0094
      9  C01        9.6680   11.5140   25.3580 C.ar  400  U55400      0.1831
     10  C06        8.8140   12.5290   25.8590 C.ar  400  U55400      0.0458
     11  C05        8.0310   12.3130   27.0080 C.ar  400  U55400      0.0236
     12  C02        9.6380   10.2460   25.9770 C.ar  400  U55400      0.0458
     13  C03        8.8770   10.0340   27.1320 C.ar  400  U55400      0.0236
     14  C04        8.0690   11.0510   27.6560 C.ar  400  U55400      0.1253
     15  S07        6.8790   10.6850   28.8500 S.O2  400  U55400      0.0935
     16  O08        5.9160    9.7910   28.2910 O.2   400  U55400     -0.1503
     17  O09        6.1970   11.9810   29.1600 O.2   400  U55400     -0.1503
     18  N10        7.4650   10.1110   30.2190 N.3   400  U55400      0.0392
@<TRIPOS>BOND
     1     4     5    1
     2     4     3    1
     3     5     7    2
     4     3     2    2
     5     7     8    1
     6     7     6    1
     7     2     6    1
     8     2     1    1
     9     8     9    1
    10     9    10   ar
    11     9    12   ar
    12    10    11   ar
    13    12    13   ar
    14    11    14   ar
    15    13    14   ar
    16    14    15    1
    17    16    15    2
    18    15    17    2
    19    15    18    1
