@<TRIPOS>MOLECULE
1jsz_NDM_A_1.pdb
 13 14 0 0 0
SMALL
GASTEIGER

@<TRIPOS>ATOM
      1  CN9       17.3730   10.2110   22.1030 C.3   600  NDM600      0.1157
      2  N9        17.0310   11.6560   21.9680 N.pl3 600  NDM600     -0.2683
      3  C4        17.5590   12.4560   20.9860 C.2   600  NDM600      0.2069
      4  N3        18.3920   11.9210   20.0100 N.2   600  NDM600     -0.3119
      5  C2        18.7860   12.9050   19.1750 C.1   600  NDM600      0.2525
      6  N2        19.5880   12.5780   18.1400 N.pl3 600  NDM600     -0.0226
      7  N1        18.3790   14.2530   19.3060 N.2   600  NDM600     -0.2526
      8  C6        17.4800   14.7650   20.3310 C.1   600  NDM600      0.2145
      9  O6        16.8930   16.0920   20.3080 O.2   600  NDM600     -0.2115
     10  C5        17.0940   13.7510   21.1990 C.3   600  NDM600      0.2475
     11  N7        16.2510   13.8350   22.3050 N.3   600  NDM600     -0.2344
     12  CN7       15.3450   14.8910   22.6740 C.3   600  NDM600      0.0924
     13  C8        16.2410   12.4470   22.7530 C.3   600  NDM600      0.1718
@<TRIPOS>BOND
     1     6     5    1
     2     5     7    2
     3     5     4    2
     4     7     8    2
     5     4     3    2
     6     9     8    2
     7     8    10    1
     8     3    10    1
     9     3     2    1
    10    10    11    1
    11     2     1    1
    12     2    13    1
    13    11    12    1
    14    11    13    1
