@<TRIPOS>MOLECULE
1jsz_SAH_A_1.pdb
 26 28 0 0 0
SMALL
GASTEIGER

@<TRIPOS>ATOM
      1  N         -4.5790   12.8160   23.9660 N.3   400  SAH400     -0.1208
      2  CA        -4.7030   11.8270   25.0230 C.3   400  SAH400      0.1952
      3  CB        -3.3980   11.0170   25.1350 C.3   400  SAH400      0.0422
      4  CG        -2.9870   10.3340   23.8020 C.3   400  SAH400      0.0597
      5  SD        -1.6150    9.1740   23.9320 S.3   400  SAH400     -0.1375
      6  C         -5.0480   12.5110   26.3500 C.2   400  SAH400      0.3819
      7  O         -5.4850   13.6800   26.3040 O.co2 400  SAH400     -0.2441
      8  OXT       -4.7690   11.9300   27.4270 O.co2 400  SAH400     -0.2441
      9  C5'       -1.6740    8.5010   22.2750 C.3   400  SAH400      0.0899
     10  C4'       -2.9640    7.7940   21.9920 C.3   400  SAH400      0.1630
     11  O4'       -2.9650    7.6700   20.5630 O.3   400  SAH400     -0.3153
     12  C3'       -3.1830    6.4300   22.5530 C.3   400  SAH400      0.2168
     13  O3'       -4.4370    6.5250   23.3270 O.3   400  SAH400     -0.2175
     14  C2'       -3.3500    5.5820   21.3380 C.3   400  SAH400      0.2569
     15  O2'       -4.3150    4.4670   21.4910 O.3   400  SAH400     -0.2130
     16  C1'       -3.8620    6.5200   20.3590 C.3   400  SAH400      0.3185
     17  N9        -3.7590    6.1230   18.9220 N.pl3 400  SAH400     -0.1439
     18  C8        -2.6280    5.6520   18.2550 C.3   400  SAH400      0.3377
     19  N7        -2.9290    5.3860   16.8720 N.2   400  SAH400     -0.2095
     20  C5        -4.3040    5.7370   16.7820 C.2   400  SAH400      0.2526
     21  C6        -5.2540    5.7250   15.7420 C.2   400  SAH400      0.4393
     22  N6        -4.9820    5.4430   14.4580 N.pl3 400  SAH400      0.2180
     23  N1        -6.4990    6.0940   16.0080 N.2   400  SAH400      0.0021
     24  C2        -6.8530    6.4850   17.1900 C.3   400  SAH400      0.5254
     25  N3        -6.0780    6.5650   18.2160 N.2   400  SAH400     -0.0055
     26  C4        -4.8050    6.1730   17.9770 C.2   400  SAH400      0.3518
@<TRIPOS>BOND
     1    22    21    1
     2    21    23    2
     3    21    20    1
     4    23    24    1
     5    20    19    2
     6    20    26    1
     7    19    18    1
     8    24    25    1
     9    26    25    2
    10    26    17    1
    11    18    17    1
    12    17    16    1
    13    16    11    1
    14    16    14    1
    15    11    10    1
    16    14    15    1
    17    14    12    1
    18    10     9    1
    19    10    12    1
    20     9     5    1
    21    12    13    1
    22     4     5    1
    23     4     3    1
    24     1     2    1
    25     2     3    1
    26     2     6    1
    27     7     6   ar
    28     6     8   ar
