@<TRIPOS>MOLECULE
1jt1_MCO_A_1.pdb
 14 14 0 0 0
SMALL
GASTEIGER

@<TRIPOS>ATOM
      1  O2         5.3330   -5.8560   21.0830 O.co2 700  MCO700     -0.2438
      2  C9         5.5950   -6.0160   19.8710 C.2   700  MCO700      0.3825
      3  O3         4.7630   -6.2200   18.9810 O.co2 700  MCO700     -0.2438
      4  C8         7.0410   -6.1420   19.4860 C.3   700  MCO700      0.1790
      5  C7         7.2810   -7.4370   18.7230 C.3   700  MCO700      0.0332
      6  C6         8.5890   -7.1950   18.0110 C.3   700  MCO700      0.0238
      7  C5         8.4920   -5.7250   17.6040 C.3   700  MCO700      0.0939
      8  N          7.8740   -5.0940   18.7700 N.am  700  MCO700     -0.2713
      9  C4         7.8930   -3.7300   18.9410 C.2   700  MCO700      0.2264
     10  O1         6.9850   -3.1660   19.5260 O.2   700  MCO700     -0.2748
     11  C2         9.0070   -2.9050   18.1980 C.3   700  MCO700      0.0883
     12  C3         8.6750   -2.6310   16.7600 C.3   700  MCO700      0.0105
     13  C1         9.4530   -1.6280   18.9340 C.3   700  MCO700      0.0777
     14  S         11.1410   -1.0070   18.4700 S.3   700  MCO700     -0.0816
@<TRIPOS>BOND
     1    12    11    1
     2     7     6    1
     3     7     8    1
     4     6     5    1
     5    11    13    1
     6    11     9    1
     7    14    13    1
     8     5     4    1
     9     8     9   am
    10     8     4    1
    11     9    10    2
    12     3     2   ar
    13     4     2    1
    14     2     1   ar
