@<TRIPOS>MOLECULE
1jt2_FER_A_1.pdb
 14 14 0 0 0
SMALL
GASTEIGER

@<TRIPOS>ATOM
      1  C4       -78.0610  -23.2610   -3.0030 C.ar  388  FER388      0.2293
      2  C5       -77.8310  -24.2270   -4.0230 C.ar  388  FER388      0.0452
      3  C6       -76.5540  -24.8200   -4.2260 C.ar  388  FER388      0.0035
      4  C3       -76.9680  -22.8700   -2.1540 C.ar  388  FER388      0.1774
      5  C2       -75.6900  -23.4680   -2.3690 C.ar  388  FER388      0.0402
      6  C1       -75.4550  -24.4450   -3.3930 C.ar  388  FER388      0.0034
      7  C10      -76.3410  -21.4160   -0.2550 C.3   388  FER388      0.2526
      8  C7       -74.0890  -24.9980   -3.5040 C.2   388  FER388      0.0069
      9  C8       -73.7490  -25.9300   -4.4000 C.2   388  FER388      0.0861
     10  C9       -72.3960  -26.5080   -4.5560 C.2   388  FER388      0.3880
     11  O1       -72.2350  -27.4180   -5.4610 O.co2 388  FER388     -0.2405
     12  O2       -71.4630  -26.0540   -3.7650 O.co2 388  FER388     -0.2405
     13  O4       -79.3170  -22.7200   -2.8460 O.3   388  FER388     -0.2833
     14  O3       -77.3320  -21.9240   -1.2040 O.3   388  FER388     -0.4682
@<TRIPOS>BOND
     1    11    10   ar
     2    10     9    1
     3    10    12   ar
     4     9     8    2
     5     3     2   ar
     6     3     6   ar
     7     2     1   ar
     8     8     6    1
     9     6     5   ar
    10     1    13    1
    11     1     4   ar
    12     5     4   ar
    13     4    14    1
    14    14     7    1
