@<TRIPOS>MOLECULE
1jt6_DEQ_A_1.pdb
 34 37 0 0 0
SMALL
GASTEIGER

@<TRIPOS>ATOM
      1  C1       -71.5530  -50.5710    8.1190 C.2   201  DEQ201      0.0142
      2  C2       -71.8050  -51.7410    7.3600 C.2   201  DEQ201     -0.0030
      3  C3       -73.1320  -52.1810    7.1760 C.2   201  DEQ201     -0.0213
      4  C4       -74.1970  -51.4440    7.7360 C.3   201  DEQ201      0.0549
      5  C5       -72.6050  -49.7840    8.7040 C.2   201  DEQ201      0.0489
      6  C6       -73.9660  -50.2560    8.5040 C.2   201  DEQ201      0.0126
      7  C7       -75.0670  -49.5280    9.0540 C.2   201  DEQ201      0.0875
      8  C8       -74.8400  -48.3600    9.8060 C.2   201  DEQ201      0.0282
      9  C9       -73.5750  -47.8200   10.0700 C.2   201  DEQ201      0.0304
     10  N1       -72.3910  -48.5090    9.5560 N.pl3 201  DEQ201     -0.2905
     11  C10      -62.3470  -45.9850    1.1390 C.2   201  DEQ201      0.0126
     12  C11      -62.6720  -45.7090    2.5390 C.2   201  DEQ201      0.0489
     13  N2       -61.5060  -45.4860    3.5780 N.pl3 201  DEQ201     -0.2905
     14  C12      -60.1350  -45.5410    2.9070 C.2   201  DEQ201      0.0304
     15  C13      -59.9570  -45.8080    1.5580 C.2   201  DEQ201      0.0282
     16  C14      -60.9970  -46.0230    0.6790 C.2   201  DEQ201      0.0875
     17  C15      -63.4020  -46.1890    0.1960 C.3   201  DEQ201      0.0549
     18  C16      -64.7650  -46.1540    0.5640 C.2   201  DEQ201     -0.0213
     19  C17      -65.1040  -45.8970    1.9020 C.2   201  DEQ201     -0.0030
     20  C18      -64.0770  -45.6890    2.8580 C.2   201  DEQ201      0.0142
     21  C19      -61.4500  -45.5030    5.1630 C.3   201  DEQ201      0.0952
     22  C20      -62.8950  -45.9000    5.4680 C.3   201  DEQ201      0.0218
     23  C21      -63.1430  -46.0520    6.9760 C.3   201  DEQ201      0.0018
     24  C22      -64.5830  -46.4630    7.1770 C.3   201  DEQ201      0.0001
     25  C23      -64.9790  -46.6960    8.6350 C.3   201  DEQ201      0.0000
     26  C24      -66.4690  -47.0970    8.6630 C.3   201  DEQ201      0.0000
     27  C25      -66.9830  -47.3780   10.0640 C.3   201  DEQ201      0.0001
     28  C26      -68.4740  -47.7330   10.0810 C.3   201  DEQ201      0.0018
     29  C27      -69.6750  -48.5180    9.4970 C.3   201  DEQ201      0.0218
     30  C28      -71.0210  -47.8750    9.9340 C.3   201  DEQ201      0.0952
     31  C30      -73.5630  -46.5410   10.9250 C.3   201  DEQ201      0.0474
     32  C29      -58.8460  -45.3370    3.6950 C.3   201  DEQ201      0.0474
     33  N4       -76.4470  -49.9090    8.9150 N.pl3 201  DEQ201     -0.1283
     34  N3       -60.4920  -46.2780   -0.6480 N.pl3 201  DEQ201     -0.1283
@<TRIPOS>BOND
     1    34    16    1
     2    17    18    1
     3    17    11    1
     4    18    19    2
     5    16    11    2
     6    16    15    1
     7    11    12    1
     8    15    14    2
     9    19    20    1
    10    12    20    2
    11    12    13    1
    12    14    13    1
    13    14    32    1
    14    13    21    1
    15    21    22    1
    16    22    23    1
    17    23    24    1
    18     3     2    2
    19     3     4    1
    20    24    25    1
    21     2     1    1
    22     4     6    1
    23     1     5    2
    24     6     5    1
    25     6     7    2
    26    25    26    1
    27    26    27    1
    28     5    10    1
    29    33     7    1
    30     7     8    1
    31    29    30    1
    32    29    28    1
    33    10    30    1
    34    10     9    1
    35     8     9    2
    36    27    28    1
    37     9    31    1
