@<TRIPOS>MOLECULE
1jtb_PLM_A_1.pdb
 48 47 0 0 0
SMALL
GASTEIGER

@<TRIPOS>ATOM
      1  C1         0.3120    1.7710    1.4700 C.2    96  PLM96       0.1981
      2  O2        -0.8590    1.8730    1.7740 O.2    96  PLM96      -0.2890
      3  C2         0.7040    0.9970    0.2030 C.3    96  PLM96       0.0134
      4  C3         1.7490    1.6780   -0.6850 C.3    96  PLM96      -0.0459
      5  C4         2.0510    0.8140   -1.8920 C.3    96  PLM96      -0.0527
      6  C5         3.2070    1.4700   -2.6810 C.3    96  PLM96      -0.0530
      7  C6         3.6070    0.5060   -3.7990 C.3    96  PLM96      -0.0531
      8  C7         2.4910    0.3580   -4.8480 C.3    96  PLM96      -0.0531
      9  C8         2.6690   -0.9890   -5.5600 C.3    96  PLM96      -0.0531
     10  C9         2.2190   -2.1420   -4.6160 C.3    96  PLM96      -0.0531
     11  CA         2.3700   -3.4410   -5.4080 C.3    96  PLM96      -0.0531
     12  CB         2.2830   -4.7230   -4.5480 C.3    96  PLM96      -0.0531
     13  CC         0.8850   -5.3620   -4.6360 C.3    96  PLM96      -0.0531
     14  CD        -0.1510   -4.5280   -3.8710 C.3    96  PLM96      -0.0531
     15  CE         0.2970   -4.4190   -2.3910 C.3    96  PLM96      -0.0533
     16  CF        -0.7860   -3.7780   -1.5540 C.3    96  PLM96      -0.0559
     17  CG        -1.8530   -4.8230   -1.2820 C.3    96  PLM96      -0.0653
     18  H21        1.1410    0.0830    0.5290 H      96  PLM96       0.0346
     19  H22       -0.1950    0.7850   -0.3510 H      96  PLM96       0.0346
     20  H31        2.6670    1.7960   -0.1340 H      96  PLM96       0.0269
     21  H32        1.3800    2.6090   -1.0790 H      96  PLM96       0.0269
     22  H41        2.3210   -0.1900   -1.6080 H      96  PLM96       0.0265
     23  H42        1.1610    0.7590   -2.4960 H      96  PLM96       0.0265
     24  H51        4.0640    1.6070   -2.0350 H      96  PLM96       0.0265
     25  H52        2.9110    2.4330   -3.0770 H      96  PLM96       0.0265
     26  H61        3.8270   -0.4430   -3.3380 H      96  PLM96       0.0265
     27  H62        4.5000    0.8600   -4.2910 H      96  PLM96       0.0265
     28  H71        1.5140    0.3990   -4.3990 H      96  PLM96       0.0265
     29  H72        2.5730    1.1660   -5.5600 H      96  PLM96       0.0265
     30  H81        3.7110   -1.1280   -5.8210 H      96  PLM96       0.0265
     31  H82        2.1030   -0.9920   -6.4720 H      96  PLM96       0.0265
     32  H91        1.1940   -2.0060   -4.3070 H      96  PLM96       0.0265
     33  H92        2.8310   -2.1890   -3.7310 H      96  PLM96       0.0265
     34  HA1        1.5450   -3.4770   -6.0940 H      96  PLM96       0.0265
     35  HA2        3.2930   -3.4370   -5.9680 H      96  PLM96       0.0265
     36  HB1        2.9970   -5.4370   -4.9150 H      96  PLM96       0.0265
     37  HB2        2.5540   -4.5320   -3.5210 H      96  PLM96       0.0265
     38  HC1        0.5900   -5.4400   -5.6750 H      96  PLM96       0.0265
     39  HC2        0.9190   -6.3620   -4.2280 H      96  PLM96       0.0265
     40  HD1       -1.1250   -4.9880   -3.9370 H      96  PLM96       0.0265
     41  HD2       -0.2220   -3.5490   -4.3130 H      96  PLM96       0.0265
     42  HE1        0.5060   -5.4060   -2.0020 H      96  PLM96       0.0265
     43  HE2        1.1900   -3.8200   -2.3070 H      96  PLM96       0.0265
     44  HF1       -0.3580   -3.4880   -0.6130 H      96  PLM96       0.0263
     45  HF2       -1.1990   -2.9080   -2.0470 H      96  PLM96       0.0263
     46  HG1       -2.2910   -5.2050   -2.1890 H      96  PLM96       0.0230
     47  HG2       -1.3980   -5.6360   -0.7330 H      96  PLM96       0.0230
     48  HG3       -2.6520   -4.4070   -0.6840 H      96  PLM96       0.0230
@<TRIPOS>BOND
     1    31     9    1
     2    34    11    1
     3    35    11    1
     4    30     9    1
     5    38    13    1
     6     9     8    1
     7     9    10    1
     8    29     8    1
     9    11    10    1
    10    11    12    1
    11    36    12    1
    12     8    28    1
    13     8     7    1
    14    13    12    1
    15    13    39    1
    16    13    14    1
    17    10    32    1
    18    10    33    1
    19    12    37    1
    20    41    14    1
    21    27     7    1
    22    40    14    1
    23    14    15    1
    24     7    26    1
    25     7     6    1
    26    25     6    1
    27     6    24    1
    28     6     5    1
    29    23     5    1
    30    15    43    1
    31    15    42    1
    32    15    16    1
    33    46    17    1
    34    45    16    1
    35     5    22    1
    36     5     4    1
    37    16    17    1
    38    16    44    1
    39    17    47    1
    40    17    48    1
    41    21     4    1
    42     4    20    1
    43     4     3    1
    44    19     3    1
    45     3    18    1
    46     3     1    1
    47     1     2    2
