@<TRIPOS>MOLECULE
1jte_SAH_A_1.pdb
 26 28 0 0 0
SMALL
GASTEIGER

@<TRIPOS>ATOM
      1  N         -4.4170   12.7710   24.0170 N.3   400  SAH400     -0.1208
      2  CA        -4.4990   11.7410   25.0330 C.3   400  SAH400      0.1952
      3  CB        -3.1620   11.0080   25.1260 C.3   400  SAH400      0.0422
      4  CG        -2.6970   10.4130   23.8070 C.3   400  SAH400      0.0597
      5  SD        -1.5140    9.0790   24.0690 S.3   400  SAH400     -0.1375
      6  C         -4.8870   12.3440   26.3920 C.2   400  SAH400      0.3819
      7  O         -5.1060   13.5790   26.4450 O.co2 400  SAH400     -0.2441
      8  OXT       -4.6690   11.6650   27.4220 O.co2 400  SAH400     -0.2441
      9  C5'       -1.5270    8.3570   22.4110 C.3   400  SAH400      0.0899
     10  C4'       -2.8580    7.7600   22.0630 C.3   400  SAH400      0.1630
     11  O4'       -2.8650    7.7520   20.6020 O.3   400  SAH400     -0.3153
     12  C3'       -3.1070    6.3470   22.5630 C.3   400  SAH400      0.2168
     13  O3'       -4.2500    6.3560   23.5030 O.3   400  SAH400     -0.2175
     14  C2'       -3.3660    5.5910   21.2910 C.3   400  SAH400      0.2569
     15  O2'       -4.3710    4.5030   21.3560 O.3   400  SAH400     -0.2130
     16  C1'       -3.7510    6.6220   20.3610 C.3   400  SAH400      0.3185
     17  N9        -3.6000    6.1880   18.9550 N.pl3 400  SAH400     -0.1439
     18  C8        -2.5010    5.6990   18.2660 C.3   400  SAH400      0.3377
     19  N7        -2.8870    5.3960   16.9150 N.2   400  SAH400     -0.2095
     20  C5        -4.2440    5.7320   16.8700 C.2   400  SAH400      0.2526
     21  C6        -5.2110    5.6850   15.8590 C.2   400  SAH400      0.4393
     22  N6        -4.9490    5.2520   14.6280 N.pl3 400  SAH400      0.2180
     23  N1        -6.4450    6.0840   16.1240 N.2   400  SAH400      0.0021
     24  C2        -6.7120    6.5130   17.3380 C.3   400  SAH400      0.5254
     25  N3        -5.9140    6.6110   18.3780 N.2   400  SAH400     -0.0055
     26  C4        -4.6730    6.2010   18.0790 C.2   400  SAH400      0.3518
@<TRIPOS>BOND
     1    22    21    1
     2    21    23    2
     3    21    20    1
     4    23    24    1
     5    20    19    2
     6    20    26    1
     7    19    18    1
     8    24    25    1
     9    26    25    2
    10    26    17    1
    11    18    17    1
    12    17    16    1
    13    16    11    1
    14    16    14    1
    15    11    10    1
    16    14    15    1
    17    14    12    1
    18    10     9    1
    19    10    12    1
    20     9     5    1
    21    12    13    1
    22     4     5    1
    23     4     3    1
    24     1     2    1
    25     2     3    1
    26     2     6    1
    27     6     7   ar
    28     6     8   ar
