@<TRIPOS>MOLECULE
1jtf_SAH_A_1.pdb
 26 28 0 0 0
SMALL
GASTEIGER

@<TRIPOS>ATOM
      1  N         -4.4520   13.0700   23.8800 N.3   400  SAH400     -0.1208
      2  CA        -4.5130   11.9870   24.8570 C.3   400  SAH400      0.1952
      3  CB        -3.2420   11.1120   24.7930 C.3   400  SAH400      0.0422
      4  CG        -2.9040   10.4560   23.4580 C.3   400  SAH400      0.0597
      5  SD        -1.6240    9.2190   23.7190 S.3   400  SAH400     -0.1375
      6  C         -4.7010   12.5540   26.2810 C.2   400  SAH400      0.3819
      7  O         -5.4920   13.5130   26.4130 O.co2 400  SAH400     -0.2441
      8  OXT       -4.2080   11.9340   27.2550 O.co2 400  SAH400     -0.2441
      9  C5'       -1.6520    8.4420   22.1530 C.3   400  SAH400      0.0899
     10  C4'       -2.9280    7.8050   21.9500 C.3   400  SAH400      0.1630
     11  O4'       -3.0770    7.8250   20.5440 O.3   400  SAH400     -0.3153
     12  C3'       -3.0130    6.4530   22.4370 C.3   400  SAH400      0.2168
     13  O3'       -4.1550    6.2260   23.2900 O.3   400  SAH400     -0.2175
     14  C2'       -3.2160    5.6820   21.2460 C.3   400  SAH400      0.2569
     15  O2'       -4.1150    4.5420   21.4160 O.3   400  SAH400     -0.2130
     16  C1'       -3.7820    6.6240   20.3320 C.3   400  SAH400      0.3185
     17  N9        -3.6090    6.2320   18.9510 N.pl3 400  SAH400     -0.1439
     18  C8        -2.5470    5.6750   18.3060 C.3   400  SAH400      0.3377
     19  N7        -2.8810    5.2850   16.9620 N.2   400  SAH400     -0.2095
     20  C5        -4.2620    5.7050   16.9110 C.2   400  SAH400      0.2526
     21  C6        -5.2950    5.6580   15.9160 C.2   400  SAH400      0.4393
     22  N6        -5.1390    5.2600   14.6350 N.pl3 400  SAH400      0.2180
     23  N1        -6.4700    6.1440   16.2410 N.2   400  SAH400      0.0021
     24  C2        -6.6370    6.6590   17.3980 C.3   400  SAH400      0.5254
     25  N3        -5.8420    6.8020   18.4130 N.2   400  SAH400     -0.0055
     26  C4        -4.6580    6.2710   18.0950 C.2   400  SAH400      0.3518
@<TRIPOS>BOND
     1    22    21    1
     2    21    23    2
     3    21    20    1
     4    23    24    1
     5    20    19    2
     6    20    26    1
     7    19    18    1
     8    24    25    1
     9    26    25    2
    10    26    17    1
    11    18    17    1
    12    17    16    1
    13    16    11    1
    14    16    14    1
    15    11    10    1
    16    14    15    1
    17    14    12    1
    18    10     9    1
    19    10    12    1
    20     9     5    1
    21    12    13    1
    22     4     5    1
    23     4     3    1
    24     1     2    1
    25     3     2    1
    26     2     6    1
    27     6     7   ar
    28     6     8   ar
