@<TRIPOS>MOLECULE
1jtf_M7G_A_1.pdb
 28 30 0 0 0
SMALL
GASTEIGER

@<TRIPOS>ATOM
      1  PA        12.1400   11.7130   23.8610 P.3   401  M7G401      0.2231
      2  O1A       11.7720   12.7030   24.9050 O.3   401  M7G401     -0.4370
      3  O2A       12.7950   12.2290   22.6290 O.2   401  M7G401     -0.5169
      4  O3A       10.8100   10.8810   23.4740 O.3   401  M7G401     -0.2261
      5  O5'       13.1020   10.6200   24.5390 O.3   401  M7G401     -0.3111
      6  PB         9.5880   11.4380   22.5760 P.3   401  M7G401      0.5373
      7  O1B       10.0700   12.6150   21.8150 O.2   401  M7G401     -0.2221
      8  O2B        9.0770   10.2660   21.8160 O.3   401  M7G401     -0.1143
      9  O3B        8.3970   11.8940   23.5670 O.3   401  M7G401     -0.1143
     10  C5'       13.4080    9.3540   23.9240 C.3   401  M7G401      0.1813
     11  C4'       14.7800    9.3260   23.2470 C.3   401  M7G401      0.1799
     12  O4'       14.8730   10.3660   22.2780 O.3   401  M7G401     -0.3326
     13  C3'       15.8930    9.6260   24.2320 C.3   401  M7G401      0.2158
     14  O3'       16.2880    8.4370   24.9340 O.3   401  M7G401     -0.2175
     15  C2'       17.0240   10.1180   23.3460 C.3   401  M7G401      0.2310
     16  O2'       17.8640    9.0570   22.8810 O.3   401  M7G401     -0.2158
     17  C1'       16.2740   10.6510   22.1230 C.3   401  M7G401      0.2293
     18  N9        16.3830   12.1100   21.9310 N.pl3 401  M7G401     -0.2354
     19  C8        15.7060   13.1110   22.5790 C.3   401  M7G401      0.2246
     20  N7        15.9320   14.2910   22.1050 N.2   401  M7G401     -0.2322
     21  C5        16.8300   14.0700   21.0700 C.2   401  M7G401      0.2182
     22  C6        17.4380   14.9870   20.1870 C.1   401  M7G401      0.2372
     23  O6        17.2940   16.1970   20.1360 O.2   401  M7G401     -0.2069
     24  N1        18.2800   14.3680   19.2890 N.2   401  M7G401     -0.2485
     25  C2        18.5350   13.0140   19.2240 C.1   401  M7G401      0.2531
     26  N2        19.3770   12.5860   18.2820 N.pl3 401  M7G401     -0.0226
     27  N3        17.9580   12.1420   20.0640 N.2   401  M7G401     -0.3074
     28  C4        17.1210   12.7370   20.9540 C.2   401  M7G401      0.2300
@<TRIPOS>BOND
     1    26    25    1
     2    25    24    2
     3    25    27    2
     4    24    22    2
     5    27    28    2
     6    23    22    2
     7    22    21    1
     8    28    21    1
     9    28    18    1
    10    21    20    2
    11     7     6    2
    12     8     6    1
    13    18    17    1
    14    18    19    1
    15    20    19    1
    16    17    12    1
    17    17    15    1
    18    12    11    1
    19     6     4    1
    20     6     9    1
    21     3     1    2
    22    16    15    1
    23    11    10    1
    24    11    13    1
    25    15    13    1
    26     4     1    1
    27     1     5    1
    28     1     2    1
    29    10     5    1
    30    13    14    1
