@<TRIPOS>MOLECULE
1jtk_THU_A_1.pdb
 16 17 0 0 0
SMALL
GASTEIGER

@<TRIPOS>ATOM
      1  N1         4.1810   65.1030   56.9170 N.am  138  THU138     -0.1863
      2  C2         4.8870   66.2580   57.0070 C.1   138  THU138      0.2194
      3  O2         4.8290   67.1190   56.1410 O.2   138  THU138     -0.2059
      4  N3         5.6620   66.4490   58.1050 N.2   138  THU138     -0.1579
      5  C4         5.7660   65.4580   59.1740 C.3   138  THU138      0.2671
      6  O4         7.0840   64.9420   59.3370 O.3   138  THU138     -0.1953
      7  C5         4.8290   64.2270   59.0440 C.3   138  THU138      0.0820
      8  C6         4.5860   63.9280   57.5570 C.3   138  THU138      0.1157
      9  C1'        3.7870   64.6280   55.4010 C.2   138  THU138      0.2047
     10  C2'        4.3410   64.3310   54.0460 C.2   138  THU138      0.0639
     11  C3'        3.1050   63.8930   53.3570 C.3   138  THU138      0.2207
     12  O3'        2.7770   64.7540   52.3140 O.3   138  THU138     -0.2141
     13  C4'        1.9630   63.8290   54.3830 C.3   138  THU138      0.2345
     14  O4'        2.3900   64.4340   55.6000 O.2   138  THU138     -0.4606
     15  C5'        1.4050   62.4510   54.5910 C.3   138  THU138      0.2284
     16  O5'        2.4550   61.6510   55.1550 O.3   138  THU138     -0.2163
@<TRIPOS>BOND
     1    12    11    1
     2    11    10    1
     3    11    13    1
     4    10     9    2
     5    13    15    1
     6    13    14    1
     7    15    16    1
     8     9    14    1
     9     9     1    1
    10     3     2    2
    11     1     2   am
    12     1     8    1
    13     2     4    2
    14     8     7    1
    15     4     5    1
    16     7     5    1
    17     5     6    1
