@<TRIPOS>MOLECULE
1jtq_UMP_A_1.pdb
 20 21 0 0 0
SMALL
GASTEIGER

@<TRIPOS>ATOM
      1  N1        17.8300   20.3110   31.1420 N.am  565  UMP565     -0.2018
      2  C2        18.6180   20.1480   32.2900 C.1   565  UMP565      0.2802
      3  N3        19.4650   19.0640   32.2960 N.2   565  UMP565     -0.2497
      4  C4        19.7110   18.2170   31.2300 C.1   565  UMP565      0.1941
      5  C5        18.8910   18.3340   29.9480 C.3   565  UMP565      0.1579
      6  C6        18.1560   19.6800   29.8200 C.3   565  UMP565      0.1249
      7  O2        18.5850   20.9240   33.2490 O.2   565  UMP565     -0.1922
      8  O4        20.5960   17.3670   31.3360 O.2   565  UMP565     -0.2133
      9  C1'       16.6110   21.1590   31.1800 C.3   565  UMP565      0.2048
     10  C2'       16.8660   22.6100   30.7630 C.3   565  UMP565      0.0871
     11  C3'       15.4790   23.0510   30.3260 C.3   565  UMP565      0.1857
     12  C4'       14.9060   21.8790   29.5050 C.3   565  UMP565      0.1774
     13  O3'       14.7360   23.2640   31.5510 O.3   565  UMP565     -0.2203
     14  O4'       15.5600   20.7660   30.2060 O.3   565  UMP565     -0.3342
     15  C5'       15.4640   21.8550   28.0840 C.3   565  UMP565      0.1858
     16  O5'       14.7510   22.8710   27.3300 O.3   565  UMP565     -0.2675
     17  P         15.3810   24.0250   26.4710 P.3   565  UMP565      0.5327
     18  OP1       14.2960   24.7920   25.8240 O.3   565  UMP565     -0.1145
     19  OP2       16.1800   24.9380   27.3210 O.3   565  UMP565     -0.1145
     20  OP3       16.2220   23.3940   25.4810 O.2   565  UMP565     -0.2224
@<TRIPOS>BOND
     1    20    17    2
     2    18    17    1
     3    17    19    1
     4    17    16    1
     5    16    15    1
     6    15    12    1
     7    12    14    1
     8    12    11    1
     9     6     5    1
    10     6     1    1
    11     5     4    1
    12    14     9    1
    13    11    10    1
    14    11    13    1
    15    10     9    1
    16     1     9    1
    17     1     2   am
    18     4     8    2
    19     4     3    2
    20     2     3    2
    21     2     7    2
