@<TRIPOS>MOLECULE
1jtq_LY3_A_1.pdb
 33 36 0 0 0
SMALL
GASTEIGER

@<TRIPOS>ATOM
      1  N1        13.8790   19.2360   32.6030 N.2   501  LY3501     -0.2490
      2  C1        13.0380   19.3160   31.5440 C.1   501  LY3501      0.2607
      3  N2        13.1360   18.5310   30.5410 N.2   501  LY3501     -0.2698
      4  C2        14.2390   17.5570   30.5340 C.1   501  LY3501      0.1086
      5  C3        15.0590   17.4380   31.5730 C.2   501  LY3501      0.1635
      6  C4        14.9550   18.3880   32.7430 C.1   501  LY3501      0.2257
      7  N3        14.6400   16.5220   29.5780 N.2   501  LY3501     -0.2042
      8  C5        15.8020   15.8320   30.1380 C.3   501  LY3501      0.1609
      9  C6        16.0970   16.3780   31.3270 C.2   501  LY3501      0.0035
     10  C7        17.1940   15.9880   32.2840 C.3   501  LY3501      0.0302
     11  C8        17.1840   14.4810   32.5540 C.3   501  LY3501      0.0308
     12  C9        16.1150   14.1800   33.5690 C.ar  501  LY3501     -0.0219
     13  C10       16.3010   14.4480   34.9660 C.ar  501  LY3501     -0.0041
     14  C11       15.2540   14.1510   35.9060 C.ar  501  LY3501      0.0042
     15  C12       14.0320   13.5890   35.4220 C.ar  501  LY3501      0.0550
     16  C13       13.8690   13.3300   34.0370 C.ar  501  LY3501      0.0042
     17  C14       14.9000   13.6240   33.1220 C.ar  501  LY3501     -0.0041
     18  C15       12.8560   13.2220   36.3290 C.2   501  LY3501      0.2652
     19  O1        15.6720   18.3530   33.7100 O.2   501  LY3501     -0.2079
     20  N4        11.9840   20.3260   31.6320 N.pl3 501  LY3501     -0.0220
     21  C16       11.9860   12.4410   38.4090 C.3   501  LY3501      0.1991
     22  C17       11.6470   10.9450   38.3070 C.3   501  LY3501      0.0493
     23  C18       12.1200   12.8240   39.8480 C.2   501  LY3501      0.3842
     24  O2        13.5520   13.0040   40.2030 O.co2 501  LY3501     -0.2437
     25  O3        11.1950   12.8940   40.6210 O.co2 501  LY3501     -0.2437
     26  N5        13.1450   12.7960   37.6010 N.am  501  LY3501     -0.1918
     27  O4        11.7130   13.2830   35.9400 O.2   501  LY3501     -0.2684
     28  C19       12.0270   10.1820   39.5830 C.3   501  LY3501      0.1053
     29  C20       12.7820    8.9690   39.1780 C.1   501  LY3501      0.0575
     30  N6        13.7680    8.9940   38.1220 N.2   501  LY3501     -0.0755
     31  N7        14.1150    7.7910   38.1420 N.2   501  LY3501     -0.0132
     32  N8        13.4870    7.0070   39.0580 N.2   501  LY3501     -0.0132
     33  N9        12.6340    7.8400   39.6990 N.2   501  LY3501     -0.0755
@<TRIPOS>BOND
     1     7     8    1
     2     7     4    2
     3     8     9    1
     4     4     3    2
     5     4     5    1
     6     3     2    2
     7     9     5    2
     8     9    10    1
     9     2    20    1
    10     2     1    2
    11     5     6    1
    12    10    11    1
    13    11    12    1
    14     1     6    2
    15     6    19    2
    16    17    12   ar
    17    17    16   ar
    18    12    13   ar
    19    16    15   ar
    20    13    14   ar
    21    15    14   ar
    22    15    18    1
    23    27    18    2
    24    18    26   am
    25    26    21    1
    26    30    31    1
    27    30    29    2
    28    31    32    2
    29    22    21    1
    30    22    28    1
    31    21    23    1
    32    32    33    1
    33    29    28    1
    34    29    33    2
    35    23    24   ar
    36    23    25   ar
