@<TRIPOS>MOLECULE
1jtu_UMP_A_1.pdb
 20 21 0 0 0
SMALL
GASTEIGER

@<TRIPOS>ATOM
      1  N1        17.9140   20.3110   31.2090 N.am  565  UMP565     -0.2018
      2  C2        18.6720   20.2080   32.3680 C.1   565  UMP565      0.2802
      3  N3        19.5170   19.1180   32.4200 N.2   565  UMP565     -0.2497
      4  C4        19.8090   18.2550   31.3800 C.1   565  UMP565      0.1941
      5  C5        19.1020   18.3720   30.0360 C.3   565  UMP565      0.1579
      6  C6        18.2330   19.6420   29.9120 C.3   565  UMP565      0.1249
      7  O2        18.5960   21.0330   33.2870 O.2   565  UMP565     -0.1922
      8  O4        20.6580   17.3810   31.5660 O.2   565  UMP565     -0.2133
      9  C1'       16.6970   21.1670   31.2000 C.3   565  UMP565      0.2048
     10  C2'       16.9630   22.6220   30.7950 C.3   565  UMP565      0.0871
     11  C3'       15.5830   23.0730   30.3450 C.3   565  UMP565      0.1857
     12  C4'       15.0320   21.9100   29.5050 C.3   565  UMP565      0.1774
     13  O3'       14.7720   23.2120   31.5450 O.3   565  UMP565     -0.2203
     14  O4'       15.6260   20.7310   30.2280 O.3   565  UMP565     -0.3342
     15  C5'       15.5890   21.9530   28.0840 C.3   565  UMP565      0.1858
     16  O5'       14.8590   23.0360   27.4610 O.3   565  UMP565     -0.2675
     17  P         15.4530   24.0030   26.4140 P.3   565  UMP565      0.5327
     18  OP1       14.3770   24.7960   25.7680 O.3   565  UMP565     -0.1145
     19  OP2       16.3570   24.9050   27.1660 O.3   565  UMP565     -0.1145
     20  OP3       16.1740   23.1930   25.4300 O.2   565  UMP565     -0.2224
@<TRIPOS>BOND
     1    20    17    2
     2    18    17    1
     3    17    19    1
     4    17    16    1
     5    16    15    1
     6    15    12    1
     7    12    14    1
     8    12    11    1
     9     6     5    1
    10     6     1    1
    11     5     4    1
    12    14     9    1
    13    11    10    1
    14    11    13    1
    15    10     9    1
    16     9     1    1
    17     1     2   am
    18     4     8    2
    19     4     3    2
    20     2     3    2
    21     2     7    2
