@<TRIPOS>MOLECULE
1jtu_LYB_A_1.pdb
 49 51 0 0 0
SMALL
GASTEIGER

@<TRIPOS>ATOM
      1  N1        14.4270   19.0540   32.8590 N.2   501  LYB501     -0.2525
      2  C1        13.4640   19.1000   31.8450 C.1   501  LYB501      0.2602
      3  N2        13.5660   18.3680   30.6920 N.2   501  LYB501     -0.2733
      4  C3        14.6990   17.5190   30.5700 C.1   501  LYB501      0.0973
      5  C4        15.6150   17.3490   31.6040 C.3   501  LYB501      0.2358
      6  C5        15.5290   18.1600   32.7950 C.1   501  LYB501      0.2101
      7  N3        14.9680   16.6160   29.5460 N.2   501  LYB501     -0.1847
      8  C6        16.0560   15.8290   29.9710 C.2   501  LYB501      0.1039
      9  C7        16.4690   16.2570   31.2170 C.2   501  LYB501      0.0071
     10  C8        17.5980   15.6370   32.0090 C.3   501  LYB501      0.0305
     11  C9        17.3280   14.1650   32.3470 C.3   501  LYB501      0.0308
     12  C10       16.2350   14.0340   33.3880 C.ar  501  LYB501     -0.0219
     13  C11       14.8930   13.8810   33.0010 C.ar  501  LYB501     -0.0041
     14  C12       13.8960   13.7370   33.9700 C.ar  501  LYB501      0.0042
     15  C13       14.2130   13.7400   35.3540 C.ar  501  LYB501      0.0550
     16  C14       15.5680   13.9010   35.7330 C.ar  501  LYB501      0.0042
     17  C15       16.5640   14.0450   34.7550 C.ar  501  LYB501     -0.0041
     18  C16       13.1530   13.4300   36.3830 C.2   501  LYB501      0.2652
     19  O1        16.2490   18.0940   33.7920 O.2   501  LYB501     -0.2120
     20  N4        12.3090   20.0270   31.9830 N.pl3 501  LYB501     -0.0221
     21  C17       12.6550   12.8490   38.7860 C.3   501  LYB501      0.1985
     22  C18       12.1910   11.4140   38.6080 C.3   501  LYB501      0.0429
     23  C19       13.4130   10.5150   38.5720 C.3   501  LYB501      0.0892
     24  C20       13.0200    9.1030   38.3470 C.2   501  LYB501      0.2419
     25  C21       13.3960   12.9880   40.0800 C.2   501  LYB501      0.3842
     26  O2        13.0190    8.5890   37.2350 O.2   501  LYB501     -0.2733
     27  O3        12.7450   12.8140   41.2420 O.co2 501  LYB501     -0.2437
     28  O4        14.5930   13.2530   40.0810 O.co2 501  LYB501     -0.2437
     29  N5        13.5670   13.2300   37.6820 N.am  501  LYB501     -0.1918
     30  O5        11.9440   13.2870   36.1290 O.2   501  LYB501     -0.2684
     31  C22       13.3110    2.1680   43.0450 C.3   501  LYB501      0.1983
     32  C23       12.1000    1.3400   43.4700 C.3   501  LYB501      0.0451
     33  C24       12.3560    0.5370   44.7520 C.3   501  LYB501      0.1164
     34  C25       11.1210   -0.2660   45.1030 C.2   501  LYB501      0.3649
     35  C26       14.5480    1.3270   42.8210 C.2   501  LYB501      0.3842
     36  O6         9.9850    0.0410   44.7340 O.co2 501  LYB501     -0.2457
     37  O8        15.6960    1.7580   43.3740 O.co2 501  LYB501     -0.2437
     38  O9        14.5610    0.3170   42.1170 O.co2 501  LYB501     -0.2437
     39  C27       12.4510    6.9270   39.3450 C.3   501  LYB501      0.1982
     40  C28       12.4050    6.2970   40.7370 C.3   501  LYB501      0.0429
     41  C29       12.1630    4.7920   40.6170 C.3   501  LYB501      0.0892
     42  C30       12.4300    4.1170   41.9220 C.2   501  LYB501      0.2419
     43  C31       11.1980    6.6450   38.5470 C.2   501  LYB501      0.3842
     44  O10       12.2600    4.6320   43.0300 O.2   501  LYB501     -0.2733
     45  N6        12.9500    2.8710   41.8150 N.am  501  LYB501     -0.1956
     46  O11       11.1990    5.5320   37.7920 O.co2 501  LYB501     -0.2437
     47  O12       10.2010    7.3640   38.5660 O.co2 501  LYB501     -0.2437
     48  N7        12.7350    8.3680   39.4530 N.am  501  LYB501     -0.1956
     49  O7        11.3020   -1.3570   45.8690 O.co2 501  LYB501     -0.2457
@<TRIPOS>BOND
     1     7     8    1
     2     7     4    2
     3     8     9    2
     4     4     3    2
     5     4     5    1
     6     3     2    2
     7     9     5    1
     8     9    10    1
     9     5     6    1
    10     2    20    1
    11     2     1    2
    12    10    11    1
    13    11    12    1
    14     6     1    2
    15     6    19    2
    16    13    12   ar
    17    13    14   ar
    18    12    17   ar
    19    14    15   ar
    20    17    16   ar
    21    15    16   ar
    22    15    18    1
    23    30    18    2
    24    18    29   am
    25    26    24    2
    26    29    21    1
    27    46    43   ar
    28    24    23    1
    29    24    48   am
    30    43    47   ar
    31    43    39    1
    32    23    22    1
    33    22    21    1
    34    21    25    1
    35    39    48    1
    36    39    40    1
    37    25    28   ar
    38    25    27   ar
    39    41    40    1
    40    41    42    1
    41    45    42   am
    42    45    31    1
    43    42    44    2
    44    38    35   ar
    45    35    31    1
    46    35    37   ar
    47    31    32    1
    48    32    33    1
    49    36    34   ar
    50    33    34    1
    51    34    49   ar
