@<TRIPOS>MOLECULE
1jtv_TES_A_1.pdb
 21 24 0 0 0
SMALL
GASTEIGER

@<TRIPOS>ATOM
      1  C1        13.2510    6.7770  -13.2250 C.3   500  TES500      0.0118
      2  C2        13.8090    5.4330  -12.7480 C.3   500  TES500      0.0694
      3  C3        14.1420    5.4750  -11.2960 C.2   500  TES500      0.1725
      4  O3        15.0710    4.8090  -10.9010 O.2   500  TES500     -0.2914
      5  C4        13.3260    6.2770  -10.4240 C.2   500  TES500      0.0289
      6  C5        12.3250    7.0810  -10.8850 C.2   500  TES500     -0.0420
      7  C6        11.5110    7.8700   -9.9130 C.3   500  TES500      0.0221
      8  C7        11.0160    9.2190  -10.3880 C.3   500  TES500      0.0044
      9  C8        10.5570    9.1900  -11.8450 C.3   500  TES500      0.0007
     10  C9        11.6440    8.6370  -12.7620 C.3   500  TES500      0.0035
     11  C10       12.0120    7.1950  -12.3970 C.3   500  TES500      0.0157
     12  C11       11.3330    8.6750  -14.2780 C.3   500  TES500      0.0004
     13  C12       10.9340   10.0960  -14.6880 C.3   500  TES500      0.0025
     14  C13        9.7800   10.6230  -13.8330 C.3   500  TES500      0.0282
     15  C14       10.2110   10.5800  -12.3600 C.3   500  TES500      0.0025
     16  C15        9.1860   11.3930  -11.5800 C.3   500  TES500      0.0027
     17  C16        8.8080   12.5100  -12.5670 C.3   500  TES500      0.0329
     18  C17        9.5460   12.1610  -13.8970 C.3   500  TES500      0.1519
     19  O17        8.8520   12.6620  -15.0420 O.3   500  TES500     -0.2232
     20  C18        8.4690    9.8510  -14.1150 C.3   500  TES500      0.0025
     21  C19       10.7960    6.2890  -12.6710 C.3   500  TES500      0.0041
@<TRIPOS>BOND
     1    19    18    1
     2    13    12    1
     3    13    14    1
     4    12    10    1
     5    20    14    1
     6    18    14    1
     7    18    17    1
     8    14    15    1
     9     1     2    1
    10     1    11    1
    11    10    11    1
    12    10     9    1
    13     2     3    1
    14    21    11    1
    15    17    16    1
    16    11     6    1
    17    15     9    1
    18    15    16    1
    19     9     8    1
    20     3     4    2
    21     3     5    1
    22     6     5    2
    23     6     7    1
    24     8     7    1
