@<TRIPOS>MOLECULE
1jtx_CVI_A_1.pdb
 28 30 0 0 0
SMALL
GASTEIGER

@<TRIPOS>ATOM
      1  C1       -70.1770  -47.0560    5.2570 C.3   200  CVI200      0.0667
      2  C2       -68.8770  -46.8910    4.5350 C.ar  200  CVI200     -0.0142
      3  C3       -68.6840  -45.8900    3.5170 C.ar  200  CVI200     -0.0024
      4  C4       -67.4440  -45.7080    2.8670 C.ar  200  CVI200      0.0142
      5  C5       -66.2940  -46.5430    3.2100 C.ar  200  CVI200      0.0479
      6  C6       -66.4930  -47.5640    4.2300 C.ar  200  CVI200      0.0142
      7  C7       -67.7230  -47.7160    4.8510 C.ar  200  CVI200     -0.0024
      8  C8       -70.8390  -48.3460    5.3970 C.ar  200  CVI200     -0.0142
      9  C9       -71.5320  -48.9830    4.3160 C.ar  200  CVI200     -0.0024
     10  C10      -72.1730  -50.2220    4.4950 C.ar  200  CVI200      0.0142
     11  C11      -72.1590  -50.9180    5.8020 C.ar  200  CVI200      0.0479
     12  C12      -71.4610  -50.2680    6.8670 C.ar  200  CVI200      0.0142
     13  C13      -70.8350  -49.0470    6.6650 C.ar  200  CVI200     -0.0024
     14  C14      -70.7730  -45.8970    5.9730 C.ar  200  CVI200     -0.0142
     15  C15      -72.2110  -45.8010    6.1170 C.ar  200  CVI200     -0.0024
     16  C16      -72.8200  -44.7540    6.8010 C.ar  200  CVI200      0.0142
     17  C17      -72.0570  -43.7130    7.4010 C.ar  200  CVI200      0.0479
     18  C18      -70.6190  -43.7780    7.2680 C.ar  200  CVI200      0.0142
     19  C19      -69.9970  -44.8320    6.5810 C.ar  200  CVI200     -0.0024
     20  C20      -63.8560  -47.0920    2.9630 C.3   200  CVI200      0.1122
     21  C21      -64.8680  -45.3000    1.5460 C.3   200  CVI200      0.1122
     22  C22      -72.7980  -52.8320    7.3130 C.3   200  CVI200      0.1122
     23  C23      -73.5280  -52.8360    4.9570 C.3   200  CVI200      0.1122
     24  C24      -72.1890  -41.3340    8.0620 C.3   200  CVI200      0.1122
     25  C25      -73.8690  -42.9020    8.8680 C.3   200  CVI200      0.1122
     26  N1       -65.0460  -46.3370    2.5730 N.pl3 200  CVI200     -0.3041
     27  N2       -72.7960  -52.1350    6.0020 N.pl3 200  CVI200     -0.3041
     28  N3       -72.6660  -42.6950    8.0740 N.pl3 200  CVI200     -0.3041
@<TRIPOS>BOND
     1    21    26    1
     2    26    20    1
     3    26     5    1
     4     4     5   ar
     5     4     3   ar
     6     5     6   ar
     7     3     2   ar
     8     6     7   ar
     9     9    10   ar
    10     9     8   ar
    11    10    11   ar
    12     2     7   ar
    13     2     1    1
    14    23    27    1
    15     1     8    1
    16     1    14    1
    17     8    13   ar
    18    11    27    1
    19    11    12   ar
    20    14    15   ar
    21    14    19   ar
    22    27    22    1
    23    15    16   ar
    24    19    18   ar
    25    13    12   ar
    26    16    17   ar
    27    18    17   ar
    28    17    28    1
    29    24    28    1
    30    28    25    1
