@<TRIPOS>MOLECULE
1jty_ET_A_1.pdb
 24 27 0 0 0
SMALL
GASTEIGER

@<TRIPOS>ATOM
      1  C1       -74.0190  -50.2230    9.0010 C.2   205  ET205      -0.0010
      2  C2       -74.8800  -49.8310   10.0320 C.2   205  ET205       0.0175
      3  C3       -74.8580  -48.4960   10.5560 C.2   205  ET205       0.0868
      4  C4       -73.9380  -47.5380    9.9910 C.2   205  ET205       0.0158
      5  N5       -72.0470  -46.9720    8.3370 N.pl3 205  ET205      -0.3018
      6  C6       -71.0460  -47.3940    7.1760 C.2   205  ET205       0.0482
      7  C7       -70.2430  -49.1190    5.6720 C.ar  205  ET205       0.0193
      8  C8       -70.2220  -50.4170    5.1200 C.ar  205  ET205       0.0891
      9  C9       -71.1600  -51.3360    5.6550 C.ar  205  ET205       0.0180
     10  C10      -72.0450  -51.0120    6.7060 C.ar  205  ET205       0.0012
     11  C11      -71.1580  -48.7060    6.7600 C.ar  205  ET205       0.0144
     12  C12      -72.1130  -49.6920    7.2990 C.ar  205  ET205      -0.0008
     13  C13      -73.0260  -49.2860    8.4070 C.2   205  ET205      -0.0000
     14  C14      -72.9930  -47.9210    8.8870 C.3   205  ET205       0.1192
     15  C15      -70.0030  -46.3760    6.5980 C.ar  205  ET205       0.0133
     16  C16      -70.3590  -45.4460    5.5000 C.ar  205  ET205       0.0012
     17  C17      -69.4280  -44.5350    4.9240 C.ar  205  ET205       0.0000
     18  C18      -68.0890  -44.4630    5.3680 C.ar  205  ET205       0.0000
     19  C19      -67.6680  -45.3320    6.4150 C.ar  205  ET205       0.0000
     20  C20      -68.5870  -46.2510    7.0080 C.ar  205  ET205       0.0012
     21  C21      -71.9330  -45.5440    8.7620 C.3   205  ET205       0.0914
     22  C22      -72.7460  -44.5970    7.8460 C.3   205  ET205       0.0232
     23  N23      -75.7480  -48.1620   11.5630 N.pl3 205  ET205      -0.1283
     24  N24      -69.3260  -50.7950    4.0790 N.pl3 205  ET205      -0.1281
@<TRIPOS>BOND
     1    24     8    1
     2    17    18   ar
     3    17    16   ar
     4     8     9   ar
     5     8     7   ar
     6    18    19   ar
     7    16    15   ar
     8     9    10   ar
     9     7    11   ar
    10    19    20   ar
    11    15    20   ar
    12    15     6    1
    13    10    12   ar
    14    11     6    2
    15    11    12   ar
    16     6     5    1
    17    12    13    2
    18    22    21    1
    19     5    21    1
    20     5    14    1
    21    13    14    1
    22    13     1    1
    23    14     4    1
    24     1     2    2
    25     4     3    2
    26     2     3    1
    27     3    23    1
