@<TRIPOS>MOLECULE
1ju2_MAN_A_1.pdb
 11 11 0 0 0
SMALL
GASTEIGER

@<TRIPOS>ATOM
      1  C1        52.0460   70.9840    5.9950 C.3   543  MAN543      0.1777
      2  C2        52.6560   71.4130    7.3360 C.3   543  MAN543      0.2141
      3  C3        54.1260   71.8070    7.1490 C.3   543  MAN543      0.2173
      4  C4        54.8980   70.6720    6.4720 C.3   543  MAN543      0.2142
      5  C5        54.2080   70.2860    5.1600 C.3   543  MAN543      0.1810
      6  C6        54.8570   69.0920    4.4870 C.3   543  MAN543      0.2141
      7  O2        52.5600   70.3480    8.2700 O.3   543  MAN543     -0.2176
      8  O3        54.7110   72.1020    8.4080 O.3   543  MAN543     -0.2175
      9  O4        56.2290   71.0910    6.2080 O.3   543  MAN543     -0.2176
     10  O5        52.8260   69.9390    5.4090 O.3   543  MAN543     -0.3481
     11  O6        54.6430   69.1170    3.0830 O.3   543  MAN543     -0.2176
@<TRIPOS>BOND
     1    11     6    1
     2     6     5    1
     3     5    10    1
     4     5     4    1
     5    10     1    1
     6     1     2    1
     7     9     4    1
     8     4     3    1
     9     3     2    1
    10     3     8    1
    11     2     7    1
