@<TRIPOS>MOLECULE
1ju6_LYA_A_1.pdb
 31 33 0 0 0
SMALL
GASTEIGER

@<TRIPOS>ATOM
      1  C1        17.4150    6.1240   -7.7460 C.ar  317  LYA317     -0.0219
      2  C2        17.7900    6.8350   -6.5640 C.ar  317  LYA317     -0.0041
      3  C3        19.1610    6.8850   -6.1760 C.ar  317  LYA317      0.0042
      4  C4        20.1750    6.2240   -6.9650 C.ar  317  LYA317      0.0550
      5  C5        19.7560    5.5240   -8.1250 C.ar  317  LYA317      0.0042
      6  C6        18.4160    5.4790   -8.5070 C.ar  317  LYA317     -0.0041
      7  C7        15.9420    6.0700   -8.2140 C.3   317  LYA317      0.0308
      8  C8        15.2390    4.6870   -8.2040 C.3   317  LYA317      0.0302
      9  C9        15.7790    3.6450   -9.1900 C.2   317  LYA317      0.0035
     10  C10       15.7300    3.6830  -10.5900 C.3   317  LYA317      0.1609
     11  N11       16.3370    2.5320  -11.1470 N.2   317  LYA317     -0.2042
     12  C12       16.7660    1.7710  -10.0790 C.1   317  LYA317      0.1086
     13  C13       16.4160    2.4700   -8.8860 C.2   317  LYA317      0.1635
     14  C14       16.7800    1.8400   -7.5160 C.1   317  LYA317      0.2257
     15  O15       16.5270    2.3510   -6.4330 O.2   317  LYA317     -0.2079
     16  N16       17.4210    0.6350   -7.5590 N.2   317  LYA317     -0.2490
     17  C17       17.7520   -0.0300   -8.8030 C.1   317  LYA317      0.2607
     18  N18       17.4490    0.4980   -9.9610 N.2   317  LYA317     -0.2698
     19  N19       18.3970   -1.2380   -8.7490 N.pl3 317  LYA317     -0.0220
     20  C20       21.6700    6.2100   -6.6850 C.2   317  LYA317      0.2655
     21  O21       22.4300    5.6060   -7.4510 O.2   317  LYA317     -0.2683
     22  N22       22.1520    6.8770   -5.6150 N.am  317  LYA317     -0.1872
     23  C23       23.5990    6.9680   -5.2510 C.3   317  LYA317      0.2202
     24  C24       24.4210    8.0120   -6.0940 C.2   317  LYA317      0.0133
     25  C25       23.5770    9.0800   -6.8740 C.2   317  LYA317      0.0838
     26  C26       24.3230   10.1200   -7.7110 C.2   317  LYA317      0.3877
     27  O27       24.1470   10.1490   -8.9600 O.co2 317  LYA317     -0.2406
     28  O28       25.0840   10.9280   -7.1180 O.co2 317  LYA317     -0.2406
     29  C29       23.7080    7.1660   -3.7010 C.2   317  LYA317      0.3884
     30  O30       24.7060    6.7410   -3.0550 O.co2 317  LYA317     -0.2434
     31  O31       22.7630    7.7700   -3.1200 O.co2 317  LYA317     -0.2434
@<TRIPOS>BOND
     1    11    10    1
     2    11    12    2
     3    10     9    1
     4    12    18    2
     5    12    13    1
     6    18    17    2
     7     9    13    2
     8     9     8    1
     9    27    26   ar
    10    13    14    1
    11    17    19    1
    12    17    16    2
    13     6     5   ar
    14     6     1   ar
    15     7     8    1
    16     7     1    1
    17     5     4   ar
    18     1     2   ar
    19    26    28   ar
    20    26    25    1
    21    16    14    2
    22    14    15    2
    23    21    20    2
    24     4    20    1
    25     4     3   ar
    26    25    24    2
    27    20    22   am
    28     2     3   ar
    29    24    23    1
    30    22    23    1
    31    23    29    1
    32    29    31   ar
    33    29    30   ar
