@<TRIPOS>MOLECULE
1ju6_UMP_A_1.pdb
 20 21 0 0 0
SMALL
GASTEIGER

@<TRIPOS>ATOM
      1  N1        13.7320    0.6340   -6.2750 N.am  314  UMP314     -0.2018
      2  C2        13.7450    1.3050   -5.0610 C.1   314  UMP314      0.2802
      3  N3        12.9890    2.4570   -4.9620 N.2   314  UMP314     -0.2497
      4  C4        12.5610    3.2020   -6.0590 C.1   314  UMP314      0.1941
      5  C5        12.5790    2.5980   -7.4420 C.3   314  UMP314      0.1579
      6  C6        12.8700    1.0930   -7.4280 C.3   314  UMP314      0.1249
      7  O2        14.4020    0.9210   -4.1010 O.2   314  UMP314     -0.1922
      8  O4        12.1700    4.3450   -5.8880 O.2   314  UMP314     -0.2133
      9  C1'       14.6040   -0.5320   -6.5200 C.3   314  UMP314      0.2048
     10  C2'       14.0290   -1.8930   -6.1190 C.3   314  UMP314      0.0871
     11  C3'       14.6700   -2.8490   -7.1150 C.3   314  UMP314      0.1857
     12  C4'       14.6380   -2.1330   -8.4630 C.3   314  UMP314      0.1774
     13  O3'       16.0580   -2.8750   -6.8650 O.3   314  UMP314     -0.2203
     14  O4'       14.8330   -0.7270   -7.9880 O.3   314  UMP314     -0.3342
     15  C5'       13.2800   -2.2980   -9.1270 C.3   314  UMP314      0.1858
     16  O5'       13.4000   -3.7010   -9.4330 O.3   314  UMP314     -0.2675
     17  P         12.0570   -4.4870   -9.5960 P.3   314  UMP314      0.5327
     18  OP1       12.4470   -5.8210  -10.0750 O.3   314  UMP314     -0.1145
     19  OP2       11.3710   -4.5780   -8.2940 O.3   314  UMP314     -0.1145
     20  OP3       11.1210   -3.8250  -10.5010 O.2   314  UMP314     -0.2224
@<TRIPOS>BOND
     1    20    17    2
     2    18    17    1
     3    17    16    1
     4    17    19    1
     5    16    15    1
     6    15    12    1
     7    12    14    1
     8    12    11    1
     9    14     9    1
    10     5     6    1
    11     5     4    1
    12     6     1    1
    13    11    13    1
    14    11    10    1
    15     9     1    1
    16     9    10    1
    17     1     2   am
    18     4     8    2
    19     4     3    2
    20     2     3    2
    21     2     7    2
