@<TRIPOS>MOLECULE
1ju9_NAD_A_1.pdb
 27 29 0 0 0
SMALL
GASTEIGER

@<TRIPOS>ATOM
      1  PA        -8.5160   -2.5440    6.6980 P.3   377  NAD377      0.2231
      2  O1A       -9.6630   -2.2580    7.5940 O.3   377  NAD377     -0.4370
      3  O2A       -8.5120   -1.5680    5.5020 O.2   377  NAD377     -0.5169
      4  O5B       -8.6530   -4.0910    6.2370 O.3   377  NAD377     -0.3111
      5  C5B       -9.7280   -4.8890    6.7240 C.3   377  NAD377      0.1813
      6  C4B      -10.3150   -5.7870    5.6270 C.3   377  NAD377      0.1821
      7  O4B      -10.7140   -7.0410    6.1640 O.3   377  NAD377     -0.3135
      8  C3B      -11.5540   -5.1840    4.9670 C.3   377  NAD377      0.2184
      9  O3B      -11.3920   -5.3010    3.5640 O.3   377  NAD377     -0.2174
     10  C2B      -12.7000   -6.0450    5.4890 C.3   377  NAD377      0.2570
     11  O2B      -13.7800   -6.1060    4.5860 O.3   377  NAD377     -0.2130
     12  C1B      -11.9970   -7.3860    5.6860 C.3   377  NAD377      0.3186
     13  N9A      -12.6230   -8.3380    6.6240 N.pl3 377  NAD377     -0.1439
     14  C8A      -13.2000   -8.0880    7.8460 C.3   377  NAD377      0.3377
     15  N7A      -13.6360   -9.2690    8.3490 N.2   377  NAD377     -0.2095
     16  C5A      -13.3390  -10.2660    7.4700 C.2   377  NAD377      0.2526
     17  C6A      -13.5410  -11.6400    7.4750 C.2   377  NAD377      0.4393
     18  N6A      -14.1250  -12.2390    8.5010 N.pl3 377  NAD377      0.2180
     19  N1A      -13.1110  -12.4070    6.4230 N.2   377  NAD377      0.0021
     20  C2A      -12.4830  -11.8160    5.3520 C.3   377  NAD377      0.5254
     21  N3A      -12.2870  -10.4540    5.3400 N.2   377  NAD377     -0.0055
     22  C4A      -12.7010   -9.6900    6.3850 C.2   377  NAD377      0.3518
     23  O3        -7.1680   -2.4080    7.5870 O.3   377  NAD377     -0.2261
     24  PN        -5.6230   -2.3620    7.0820 P.3   377  NAD377      0.5373
     25  O1N       -5.0100   -1.1170    7.6200 O.3   377  NAD377     -0.1143
     26  O2N       -5.4140   -2.3990    5.5530 O.2   377  NAD377     -0.2221
     27  O5D       -4.9260   -3.5880    7.7290 O.3   377  NAD377     -0.1143
@<TRIPOS>BOND
     1     9     8    1
     2    11    10    1
     3     8    10    1
     4     8     6    1
     5    21    20    1
     6    21    22    2
     7    20    19    1
     8    10    12    1
     9     3     1    2
    10    26    24    2
    11     6     7    1
    12     6     5    1
    13    12     7    1
    14    12    13    1
    15     4     1    1
    16     4     5    1
    17    22    13    1
    18    22    16    1
    19    19    17    2
    20    13    14    1
    21     1    23    1
    22     1     2    1
    23    24    23    1
    24    24    25    1
    25    24    27    1
    26    16    17    1
    27    16    15    2
    28    17    18    1
    29    14    15    1
