@<TRIPOS>MOLECULE
1jub_FMN_A_1.pdb
 31 33 0 0 0
SMALL
GASTEIGER

@<TRIPOS>ATOM
      1  N1         4.0680   47.8340   17.7170 N.2   800  FMN800     -0.2887
      2  C2         4.9870   48.7510   18.1750 C.1   800  FMN800      0.3669
      3  O2         5.4590   48.6670   19.3020 O.2   800  FMN800     -0.1744
      4  N3         5.3360   49.7560   17.3090 N.2   800  FMN800     -0.2300
      5  C4         4.8280   49.9110   16.0060 C.1   800  FMN800      0.2513
      6  O4         5.2160   50.8670   15.3070 O.2   800  FMN800     -0.2057
      7  C4A        3.8980   48.9430   15.5810 C.2   800  FMN800      0.2706
      8  N5         3.3350   49.0430   14.2700 N.2   800  FMN800     -0.3841
      9  C5A        2.1930   48.2890   13.9540 C.2   800  FMN800      0.1452
     10  C6         1.4310   48.5370   12.8070 C.2   800  FMN800      0.0252
     11  C7         0.2830   47.8050   12.4670 C.2   800  FMN800     -0.0375
     12  C7M       -0.4780   48.1580   11.1990 C.3   800  FMN800      0.0268
     13  C8        -0.1340   46.7560   13.3370 C.3   800  FMN800      0.0417
     14  C8M       -1.3610   45.9080   13.0700 C.3   800  FMN800      0.0091
     15  C9         0.6300   46.4920   14.5000 C.2   800  FMN800     -0.0049
     16  C9A        1.7760   47.2310   14.8400 C.2   800  FMN800      0.0795
     17  N10        2.5690   46.9650   16.0710 N.pl3 800  FMN800     -0.2545
     18  C10        3.5070   47.9160   16.4470 C.2   800  FMN800      0.2449
     19  C1'        2.1290   45.9100   16.8680 C.3   800  FMN800      0.1336
     20  C2'        0.9930   46.3140   17.8820 C.3   800  FMN800      0.2048
     21  O2'        1.4040   47.3570   18.7300 O.3   800  FMN800     -0.2185
     22  C3'        0.4530   45.1300   18.6700 C.3   800  FMN800      0.2165
     23  O3'        1.5740   44.7630   19.5260 O.3   800  FMN800     -0.2175
     24  C4'       -0.0440   43.9360   17.7360 C.3   800  FMN800      0.2147
     25  O4'       -0.7930   44.3670   16.6390 O.3   800  FMN800     -0.2176
     26  C5'       -0.6490   42.8830   18.6380 C.3   800  FMN800      0.1892
     27  O5'       -1.9780   43.4420   19.0110 O.3   800  FMN800     -0.2674
     28  P         -3.3980   43.1450   18.2860 P.3   800  FMN800      0.5327
     29  O1P       -3.6450   41.6830   18.4260 O.3   800  FMN800     -0.1145
     30  O2P       -3.2700   43.5960   16.8580 O.2   800  FMN800     -0.2224
     31  O3P       -4.4600   43.9260   19.0090 O.3   800  FMN800     -0.1145
@<TRIPOS>BOND
     1    12    11    1
     2    11    10    2
     3    11    13    1
     4    10     9    1
     5    14    13    1
     6    13    15    1
     7     9     8    2
     8     9    16    1
     9     8     7    2
    10    15    16    2
    11    16    17    1
    12     6     5    2
    13     7     5    1
    14     7    18    1
    15     5     4    2
    16    17    18    1
    17    17    19    1
    18    18     1    2
    19    25    24    1
    20    30    28    2
    21    19    20    1
    22     4     2    2
    23     1     2    2
    24    24    26    1
    25    24    22    1
    26    20    22    1
    27    20    21    1
    28     2     3    2
    29    28    29    1
    30    28    31    1
    31    28    27    1
    32    26    27    1
    33    22    23    1
