@<TRIPOS>MOLECULE
1jue_FMN_A_1.pdb
 31 33 0 0 0
SMALL
GASTEIGER

@<TRIPOS>ATOM
      1  N1         4.0330   47.8640   17.8680 N.2   800  FMN800     -0.2887
      2  C2         4.9680   48.7740   18.3270 C.1   800  FMN800      0.3669
      3  O2         5.4650   48.6730   19.4450 O.2   800  FMN800     -0.1744
      4  N3         5.3060   49.7930   17.4730 N.2   800  FMN800     -0.2300
      5  C4         4.7750   49.9720   16.1790 C.1   800  FMN800      0.2513
      6  O4         5.1540   50.9410   15.4860 O.2   800  FMN800     -0.2057
      7  C4A        3.8250   49.0190   15.7570 C.2   800  FMN800      0.2706
      8  N5         3.2460   49.1520   14.4570 N.2   800  FMN800     -0.3841
      9  C5A        2.1280   48.3680   14.1110 C.2   800  FMN800      0.1452
     10  C6         1.3840   48.6060   12.9470 C.2   800  FMN800      0.0252
     11  C7         0.2600   47.8450   12.5750 C.2   800  FMN800     -0.0375
     12  C7M       -0.4860   48.1890   11.2940 C.3   800  FMN800      0.0268
     13  C8        -0.1430   46.7700   13.4210 C.3   800  FMN800      0.0417
     14  C8M       -1.3450   45.8920   13.1090 C.3   800  FMN800      0.0091
     15  C9         0.6000   46.5100   14.6020 C.2   800  FMN800     -0.0049
     16  C9A        1.7260   47.2780   14.9760 C.2   800  FMN800      0.0795
     17  N10        2.4970   47.0190   16.2230 N.pl3 800  FMN800     -0.2545
     18  C10        3.4520   47.9640   16.6050 C.2   800  FMN800      0.2449
     19  C1'        2.0680   45.9480   16.9890 C.3   800  FMN800      0.1336
     20  C2'        0.9460   46.3360   18.0110 C.3   800  FMN800      0.2048
     21  O2'        1.3660   47.3820   18.8510 O.3   800  FMN800     -0.2185
     22  C3'        0.4120   45.1350   18.7860 C.3   800  FMN800      0.2165
     23  O3'        1.5310   44.7790   19.6540 O.3   800  FMN800     -0.2175
     24  C4'       -0.0820   43.9350   17.8380 C.3   800  FMN800      0.2147
     25  O4'       -0.8500   44.3580   16.7480 O.3   800  FMN800     -0.2176
     26  C5'       -0.6710   42.8690   18.7470 C.3   800  FMN800      0.1892
     27  O5'       -2.0070   43.4200   19.1200 O.3   800  FMN800     -0.2674
     28  P         -3.4440   43.1580   18.3950 P.3   800  FMN800      0.5327
     29  O1P       -3.7220   41.7080   18.5390 O.3   800  FMN800     -0.1145
     30  O2P       -3.3220   43.6170   16.9650 O.2   800  FMN800     -0.2224
     31  O3P       -4.4970   43.9350   19.1200 O.3   800  FMN800     -0.1145
@<TRIPOS>BOND
     1    12    11    1
     2    11    10    2
     3    11    13    1
     4    10     9    1
     5    14    13    1
     6    13    15    1
     7     9     8    2
     8     9    16    1
     9     8     7    2
    10    15    16    2
    11    16    17    1
    12     6     5    2
    13     7     5    1
    14     7    18    1
    15     5     4    2
    16    17    18    1
    17    17    19    1
    18    18     1    2
    19    25    24    1
    20    30    28    2
    21    19    20    1
    22     4     2    2
    23    24    26    1
    24    24    22    1
    25     1     2    2
    26    20    22    1
    27    20    21    1
    28     2     3    2
    29    28    29    1
    30    28    27    1
    31    28    31    1
    32    26    27    1
    33    22    23    1
