@<TRIPOS>MOLECULE
1juh_MAN_A_1.pdb
 11 11 0 0 0
SMALL
GASTEIGER

@<TRIPOS>ATOM
      1  C1        67.4430  -11.3050   37.0540 C.3   607  MAN607      0.1777
      2  C2        66.9800  -10.4310   35.8860 C.3   607  MAN607      0.2141
      3  C3        68.0660   -9.4110   35.5370 C.3   607  MAN607      0.2173
      4  C4        68.4390   -8.5860   36.7830 C.3   607  MAN607      0.2142
      5  C5        68.8350   -9.5320   37.9310 C.3   607  MAN607      0.1810
      6  C6        69.1140   -8.8110   39.2420 C.3   607  MAN607      0.2141
      7  O2        65.7830   -9.7560   36.2440 O.3   607  MAN607     -0.2176
      8  O3        67.6060   -8.5570   34.4990 O.3   607  MAN607     -0.2175
      9  O4        69.5280   -7.7230   36.4810 O.3   607  MAN607     -0.2176
     10  O5        67.7770  -10.4890   38.1800 O.3   607  MAN607     -0.3481
     11  O6        70.1430   -9.4590   39.9820 O.3   607  MAN607     -0.2176
@<TRIPOS>BOND
     1     8     3    1
     2     3     2    1
     3     3     4    1
     4     2     7    1
     5     2     1    1
     6     9     4    1
     7     4     5    1
     8     1    10    1
     9     5    10    1
    10     5     6    1
    11     6    11    1
