@<TRIPOS>MOLECULE
1juj_LYA_A_1.pdb
 31 33 0 0 0
SMALL
GASTEIGER

@<TRIPOS>ATOM
      1  C1       -43.2240  -49.5530    3.6100 C.ar  315  LYA315     -0.0219
      2  C2       -41.8100  -49.5780    3.4990 C.ar  315  LYA315     -0.0041
      3  C3       -41.0650  -48.3700    3.6010 C.ar  315  LYA315      0.0042
      4  C4       -41.7200  -47.1000    3.8230 C.ar  315  LYA315      0.0550
      5  C5       -43.1380  -47.1140    3.9270 C.ar  315  LYA315      0.0042
      6  C6       -43.8790  -48.3100    3.8270 C.ar  315  LYA315     -0.0041
      7  C7       -44.0360  -50.8660    3.5120 C.3   315  LYA315      0.0308
      8  C8       -44.7080  -51.1660    2.1410 C.3   315  LYA315      0.0302
      9  C9       -46.0890  -50.5260    2.0040 C.2   315  LYA315      0.0035
     10  C10      -47.1920  -50.7660    2.8260 C.3   315  LYA315      0.1609
     11  N11      -48.2910  -50.0040    2.4180 N.2   315  LYA315     -0.2042
     12  C12      -47.8810  -49.2770    1.3280 C.1   315  LYA315      0.1086
     13  C13      -46.5220  -49.6080    1.0780 C.2   315  LYA315      0.1635
     14  C14      -45.8010  -48.9190   -0.1210 C.1   315  LYA315      0.2257
     15  O15      -44.6450  -49.1200   -0.4390 O.2   315  LYA315     -0.2079
     16  N16      -46.5480  -48.0350   -0.8460 N.2   315  LYA315     -0.2490
     17  C17      -47.9280  -47.7410   -0.5350 C.1   315  LYA315      0.2607
     18  N18      -48.5370  -48.3140    0.4620 N.2   315  LYA315     -0.2698
     19  N19      -48.6050  -46.8440   -1.3060 N.pl3 315  LYA315     -0.0220
     20  C20      -41.0100  -45.7490    3.9590 C.2   315  LYA315      0.2655
     21  O21      -41.6630  -44.7190    4.1540 O.2   315  LYA315     -0.2683
     22  N22      -39.6680  -45.7370    3.8750 N.am  315  LYA315     -0.1872
     23  C23      -38.7770  -44.5470    4.0060 C.3   315  LYA315      0.2202
     24  C24      -38.0680  -44.4820    5.3950 C.2   315  LYA315      0.0133
     25  C25      -38.9820  -44.2170    6.6360 C.2   315  LYA315      0.0838
     26  C26      -38.3050  -44.1650    8.0130 C.2   315  LYA315      0.3877
     27  O27      -37.1980  -43.5880    8.1380 O.co2 315  LYA315     -0.2406
     28  O28      -38.8800  -44.7040    8.9860 O.co2 315  LYA315     -0.2406
     29  C29      -37.7740  -44.5180    2.7860 C.2   315  LYA315      0.3884
     30  O30      -37.5120  -43.4480    2.1570 O.co2 315  LYA315     -0.2434
     31  O31      -37.2190  -45.6100    2.4630 O.co2 315  LYA315     -0.2434
@<TRIPOS>BOND
     1    19    17    1
     2    16    17    2
     3    16    14    2
     4    17    18    2
     5    15    14    2
     6    14    13    1
     7    18    12    2
     8    13    12    1
     9    13     9    2
    10    12    11    2
    11     9     8    1
    12     9    10    1
    13     8     7    1
    14    30    29   ar
    15    11    10    1
    16    31    29   ar
    17    29    23    1
    18     2     3   ar
    19     2     1   ar
    20     7     1    1
    21     3     4   ar
    22     1     6   ar
    23     4     5   ar
    24     4    20    1
    25     6     5   ar
    26    22    20   am
    27    22    23    1
    28    20    21    2
    29    23    24    1
    30    24    25    2
    31    25    26    1
    32    26    27   ar
    33    26    28   ar
