@<TRIPOS>MOLECULE
1juj_UMP_A_1.pdb
 20 21 0 0 0
SMALL
GASTEIGER

@<TRIPOS>ATOM
      1  N1       -46.4740  -52.1450   -2.2310 N.am  314  UMP314     -0.2018
      2  C2       -45.1400  -52.4030   -2.4180 C.1   314  UMP314      0.2802
      3  N3       -44.5790  -53.3420   -1.5970 N.2   314  UMP314     -0.2497
      4  C4       -45.2400  -53.9680   -0.5620 C.1   314  UMP314      0.1941
      5  C5       -46.7110  -53.7100   -0.3010 C.3   314  UMP314      0.1579
      6  C6       -47.4090  -52.9810   -1.4570 C.3   314  UMP314      0.1249
      7  O2       -44.4940  -51.8180   -3.2870 O.2   314  UMP314     -0.1922
      8  O4       -44.6140  -54.7460    0.1560 O.2   314  UMP314     -0.2133
      9  C1'      -47.0600  -50.9890   -2.8610 C.3   314  UMP314      0.2048
     10  C2'      -47.6500  -51.4020   -4.2040 C.3   314  UMP314      0.0871
     11  C3'      -48.6480  -50.2830   -4.4390 C.3   314  UMP314      0.1857
     12  C4'      -49.3660  -50.0880   -3.1040 C.3   314  UMP314      0.1774
     13  O3'      -47.8480  -49.1280   -4.7000 O.3   314  UMP314     -0.2203
     14  O4'      -48.2720  -50.4740   -2.1780 O.3   314  UMP314     -0.3342
     15  C5'      -50.5190  -51.0730   -2.9530 C.3   314  UMP314      0.1858
     16  O5'      -51.4980  -50.5730   -3.8830 O.3   314  UMP314     -0.2675
     17  P        -52.5330  -51.5020   -4.5160 P.3   314  UMP314      0.5327
     18  OP1      -53.5860  -50.6680   -5.1180 O.3   314  UMP314     -0.1145
     19  OP2      -51.7480  -52.2790   -5.4970 O.2   314  UMP314     -0.2224
     20  OP3      -53.1770  -52.3600   -3.5240 O.3   314  UMP314     -0.1145
@<TRIPOS>BOND
     1    19    17    2
     2    18    17    1
     3    13    11    1
     4    17    16    1
     5    17    20    1
     6    11    10    1
     7    11    12    1
     8    10     9    1
     9    16    15    1
    10     7     2    2
    11    12    15    1
    12    12    14    1
    13     9     1    1
    14     9    14    1
    15     2     1   am
    16     2     3    2
    17     1     6    1
    18     3     4    2
    19     6     5    1
    20     4     5    1
    21     4     8    2
