@<TRIPOS>MOLECULE
1jum_BER_A_1.pdb
 25 29 0 0 0
SMALL
GASTEIGER

@<TRIPOS>ATOM
      1  C1       109.4260   45.7030   92.5270 C.3   803  BER803      0.1177
      2  C2       108.1270   45.5120   91.7750 C.ar  803  BER803     -0.0009
      3  N1       110.6700   45.8690   91.7770 N.pl3 803  BER803     -0.3004
      4  C3       109.4440   45.7040   93.9760 C.2   803  BER803     -0.0021
      5  C4       108.1510   45.2260   90.2920 C.ar  803  BER803     -0.0194
      6  C5       106.8650   45.5660   92.4910 C.ar  803  BER803      0.0375
      7  C6       111.9180   46.0010   92.4950 C.2   803  BER803      0.0649
      8  C7       110.6800   45.8880   90.2280 C.3   803  BER803      0.0960
      9  C8       110.6800   45.8460   94.6710 C.ar  803  BER803      0.0020
     10  C9       106.8950   45.0240   89.6000 C.ar  803  BER803      0.0357
     11  C10      109.4880   45.1430   89.5030 C.3   803  BER803      0.0476
     12  C11      105.6350   45.3590   91.7890 C.ar  803  BER803      0.1762
     13  C12      111.9490   45.9850   93.9430 C.ar  803  BER803      0.0513
     14  C13      110.6670   45.8410   96.0790 C.ar  803  BER803      0.0031
     15  C14      105.6320   45.0880   90.3420 C.ar  803  BER803      0.1761
     16  O1       104.3340   45.3560   92.2340 O.3   803  BER803     -0.4346
     17  C15      113.2240   46.1070   94.6790 C.ar  803  BER803      0.1735
     18  C16      111.8940   45.9670   96.8140 C.ar  803  BER803      0.0400
     19  O2       104.3020   44.9320   89.9270 O.3   803  BER803     -0.4346
     20  C17      103.5270   44.7790   91.1460 C.3   803  BER803      0.4294
     21  C18      113.1880   46.0930   96.1620 C.ar  803  BER803      0.1724
     22  O3       114.4410   46.2270   93.9300 O.3   803  BER803     -0.4683
     23  O4       114.3930   46.2110   96.9490 O.3   803  BER803     -0.4684
     24  C19      115.7720   46.3520   94.5300 C.3   803  BER803      0.2526
     25  C20      114.3920   46.2070   98.4200 C.3   803  BER803      0.2526
@<TRIPOS>BOND
     1    11     8    1
     2    11     5    1
     3    10     5   ar
     4    10    15   ar
     5    19    15    1
     6    19    20    1
     7     8     3    1
     8     5     2   ar
     9    15    12   ar
    10    20    16    1
    11     2     6   ar
    12     2     1    1
    13     3     7    1
    14     3     1    1
    15    12    16    1
    16    12     6   ar
    17     7    13    2
    18     1     4    1
    19    22    24    1
    20    22    17    1
    21    13     9   ar
    22    13    17   ar
    23     4     9    2
    24     9    14   ar
    25    17    21   ar
    26    14    18   ar
    27    21    18   ar
    28    21    23    1
    29    23    25    1
