@<TRIPOS>MOLECULE
1jup_MGR_A_1.pdb
 25 27 0 0 0
SMALL
GASTEIGER

@<TRIPOS>ATOM
      1  C1       103.3370   46.6510   90.7060 C.3   200  MGR200      0.0667
      2  C2       102.8380   48.1230   90.4260 C.ar  200  MGR200     -0.0143
      3  C3       102.4310   48.5770   89.0900 C.ar  200  MGR200     -0.0036
      4  C4       101.9830   49.9180   88.8590 C.ar  200  MGR200     -0.0003
      5  C5       101.9100   50.9020   89.9250 C.ar  200  MGR200     -0.0000
      6  C6       102.2980   50.5080   91.2640 C.ar  200  MGR200     -0.0003
      7  C7       102.7460   49.1690   91.5120 C.ar  200  MGR200     -0.0036
      8  C8       104.5340   46.3960   91.6060 C.ar  200  MGR200     -0.0142
      9  C9       105.5330   47.5120   91.8820 C.ar  200  MGR200     -0.0024
     10  C10      106.6350   47.3920   92.7310 C.ar  200  MGR200      0.0142
     11  C11      106.8950   46.1090   93.4060 C.ar  200  MGR200      0.0479
     12  C12      105.9310   44.9490   93.1560 C.ar  200  MGR200      0.0142
     13  C13      104.8140   45.1060   92.2770 C.ar  200  MGR200     -0.0024
     14  C14      102.5540   45.5150   90.1230 C.ar  200  MGR200     -0.0142
     15  C15      103.1850   44.3760   89.4360 C.ar  200  MGR200     -0.0024
     16  C16      102.4310   43.3280   88.8800 C.ar  200  MGR200      0.0142
     17  C17      101.0300   43.3280   88.9680 C.ar  200  MGR200      0.0479
     18  C18      100.3880   44.4250   89.6400 C.ar  200  MGR200      0.0142
     19  C19      101.1120   45.4760   90.1980 C.ar  200  MGR200     -0.0024
     20  C22      108.1970   44.6630   95.0080 C.3   200  MGR200      0.1122
     21  C23      108.9390   47.1170   94.5630 C.3   200  MGR200      0.1122
     22  C24      100.0080   42.2160   87.0020 C.3   200  MGR200      0.1122
     23  C25       99.5550   41.3500   89.2880 C.3   200  MGR200      0.1122
     24  N2       107.9690   45.9960   94.2770 N.pl3 200  MGR200     -0.3041
     25  N3       100.2590   42.3400   88.4390 N.pl3 200  MGR200     -0.3041
@<TRIPOS>BOND
     1    22    25    1
     2    25    17    1
     3    25    23    1
     4     4     3   ar
     5     4     5   ar
     6    16    17   ar
     7    16    15   ar
     8    17    18   ar
     9     3     2   ar
    10    15    14   ar
    11    18    19   ar
    12     5     6   ar
    13    14    19   ar
    14    14     1    1
    15     2     1    1
    16     2     7   ar
    17     1     8    1
    18     6     7   ar
    19     8     9   ar
    20     8    13   ar
    21     9    10   ar
    22    13    12   ar
    23    10    11   ar
    24    12    11   ar
    25    11    24    1
    26    24    21    1
    27    24    20    1
