@<TRIPOS>MOLECULE
1juq_III_E_1.pdb
 42 42 0 0 0
SMALL
GASTEIGER

@<TRIPOS>ATOM
      1  N         39.3150   15.9840   58.2230 N.3   307  ASP307     -0.1225
      2  CA        39.3480   15.1040   57.0560 C.3   307  ASP307      0.1805
      3  C         40.6320   14.2830   57.0740 C.2   307  ASP307      0.2598
      4  O         41.6230   14.6830   57.6910 O.2   307  ASP307     -0.2718
      5  CB        39.2940   15.9270   55.7610 C.3   307  ASP307      0.1424
      6  CG        39.0290   15.0730   54.5310 C.2   307  ASP307      0.3668
      7  OD1       38.5680   13.9220   54.6850 O.co2 307  ASP307     -0.2456
      8  OD2       39.2690   15.5590   53.4060 O.co2 307  ASP307     -0.2456
      9  N         40.6110   13.1400   56.3930 N.am  308  ASP308     -0.1960
     10  CA        41.7770   12.2670   56.3300 C.3   308  ASP308      0.1840
     11  C         42.4170   12.2480   54.9450 C.2   308  ASP308      0.2622
     12  O         42.2310   13.1710   54.1480 O.2   308  ASP308     -0.2715
     13  CB        41.3950   10.8420   56.7360 C.3   308  ASP308      0.1450
     14  CG        40.1120   10.3770   56.0830 C.2   308  ASP308      0.3671
     15  OD1       39.0260   10.7960   56.5430 O.co2 308  ASP308     -0.2456
     16  OD2       40.1940    9.6020   55.1060 O.co2 308  ASP308     -0.2456
     17  N         43.1730   11.1880   54.6710 N.am  309  HIS309     -0.1959
     18  CA        43.8620   11.0330   53.3950 C.3   309  HIS309      0.1784
     19  C         43.1120   10.0990   52.4540 C.2   309  HIS309      0.2620
     20  O         42.1940    9.3880   52.8640 O.2   309  HIS309     -0.2715
     21  CB        45.2720   10.4840   53.6270 C.3   309  HIS309      0.0745
     22  CG        46.1090   11.3290   54.5360 C.2   309  HIS309      0.0653
     23  ND1       46.4120   12.6460   54.2610 N.2   309  HIS309     -0.2310
     24  CD2       46.7080   11.0440   55.7170 C.3   309  HIS309      0.1683
     25  CE1       47.1610   13.1360   55.2330 C.2   309  HIS309      0.1939
     26  NE2       47.3550   12.1850   56.1290 N.2   309  HIS309     -0.2440
     27  N         43.5190   10.1060   51.1870 N.am  310  LEU310     -0.1963
     28  CA        42.9060    9.2580   50.1690 C.3   310  LEU310      0.1728
     29  C         43.3330    7.8060   50.3890 C.2   310  LEU310      0.2616
     30  O         44.4690    7.5450   50.7950 O.2   310  LEU310     -0.2715
     31  CB        43.3370    9.7320   48.7770 C.3   310  LEU310      0.0311
     32  CG        42.7930    8.9710   47.5670 C.3   310  LEU310      0.0022
     33  CD1       41.2740    8.9740   47.5950 C.3   310  LEU310      0.0001
     34  CD2       43.3160    9.6120   46.2860 C.3   310  LEU310      0.0001
     35  N         42.4220    6.8690   50.1220 N.am  311  LEU311     -0.1977
     36  CA        42.6920    5.4400   50.2970 C.3   311  LEU311      0.1596
     37  C         44.0800    5.0100   49.8440 C.2   311  LEU311      0.2287
     38  O         44.7690    5.8230   49.1950 O.2   311  LEU311     -0.2864
     39  CB        41.6560    4.6030   49.5430 C.3   311  LEU311      0.0297
     40  CG        40.2970    4.3970   50.2050 C.3   311  LEU311      0.0022
     41  CD1       39.4170    3.5500   49.2920 C.3   311  LEU311      0.0001
     42  CD2       40.4870    3.7130   51.5560 C.3   311  LEU311      0.0001
@<TRIPOS>BOND
     1    34    32    1
     2    32    33    1
     3    32    31    1
     4    31    28    1
     5    38    37    2
     6    41    40    1
     7    39    40    1
     8    39    36    1
     9    37    36    1
    10    35    36    1
    11    35    29   am
    12    28    29    1
    13    28    27    1
    14    40    42    1
    15    29    30    2
    16    27    19   am
    17    19    20    2
    18    19    18    1
    19    18    21    1
    20    18    17    1
    21     8     6   ar
    22    21    22    1
    23    12    11    2
    24    23    22    2
    25    23    25    1
    26     6     7   ar
    27     6     5    1
    28    22    24    1
    29    17    11   am
    30    11    10    1
    31    16    14   ar
    32    25    26    2
    33    24    26    1
    34     5     2    1
    35    14    15   ar
    36    14    13    1
    37    10     9    1
    38    10    13    1
    39     9     3   am
    40     2     3    1
    41     2     1    1
    42     3     4    2
