@<TRIPOS>MOLECULE
1jus_RHQ_A_1.pdb
 33 36 0 0 0
SMALL
GASTEIGER

@<TRIPOS>ATOM
      1  C1       -63.5340  -46.2590    1.5380 C.ar  201  RHQ201      0.1405
      2  C2       -63.3040  -46.0690    3.0250 C.ar  201  RHQ201      0.0336
      3  C3       -61.9680  -45.5370    3.4810 C.ar  201  RHQ201      0.0000
      4  C4       -60.9100  -45.2290    2.4300 C.ar  201  RHQ201     -0.0068
      5  C5       -61.1810  -45.4660    1.0250 C.ar  201  RHQ201      0.0643
      6  C6       -62.4690  -45.9560    0.4860 C.ar  201  RHQ201      0.0527
      7  O1       -64.7640  -46.7690    0.9170 O.3   201  RHQ201     -0.4702
      8  C7       -65.8280  -47.1370    1.9240 C.3   201  RHQ201      0.2115
      9  C8       -65.6510  -46.9800    3.4770 C.2   201  RHQ201      0.0214
     10  C9       -64.4060  -46.4370    4.2020 C.2   201  RHQ201      0.0028
     11  C10      -67.0210  -47.6510    1.3550 C.2   201  RHQ201      0.0369
     12  C11      -68.1980  -48.1230    2.1970 C.2   201  RHQ201      0.0608
     13  C12      -68.0990  -47.9890    3.7470 C.2   201  RHQ201     -0.0074
     14  C13      -66.8960  -47.4600    4.3530 C.2   201  RHQ201     -0.0035
     15  N1       -69.2330  -48.6690    1.4100 N.pl3 201  RHQ201     -0.2381
     16  C14      -63.9990  -46.5330    5.8110 C.ar  201  RHQ201      0.0061
     17  C15      -63.7120  -47.8760    6.3700 C.ar  201  RHQ201      0.0002
     18  C16      -63.3070  -48.1110    7.8830 C.ar  201  RHQ201      0.0000
     19  C17      -63.1970  -46.9440    8.8560 C.ar  201  RHQ201      0.0002
     20  C18      -63.4690  -45.6150    8.3300 C.ar  201  RHQ201      0.0064
     21  C19      -63.8400  -45.4240    6.9260 C.ar  201  RHQ201      0.0756
     22  C20      -69.2310  -48.4410    4.7430 C.3   201  RHQ201      0.0324
     23  C21      -59.4340  -44.6980    2.8220 C.3   201  RHQ201      0.0324
     24  C22      -70.7710  -48.7230    1.6760 C.3   201  RHQ201      0.1122
     25  C23      -71.1240  -50.0990    2.3880 C.3   201  RHQ201      0.0251
     26  N2       -60.3560  -45.3170   -0.1790 N.pl3 201  RHQ201     -0.2378
     27  C24      -58.9730  -44.9150   -0.4870 C.3   201  RHQ201      0.1122
     28  C25      -59.0920  -43.8510   -1.6730 C.3   201  RHQ201      0.0251
     29  C26      -64.0340  -44.0380    6.6760 C.2   201  RHQ201      0.3412
     30  O27      -63.4140  -43.5490    5.6030 O.2   201  RHQ201     -0.2449
     31  O2       -64.9080  -43.2990    7.6420 O.3   201  RHQ201     -0.4454
     32  C28      -65.2820  -41.8600    7.6040 C.3   201  RHQ201      0.2089
     33  C29      -64.9750  -41.2290    6.2340 C.3   201  RHQ201      0.0513
@<TRIPOS>BOND
     1    28    27    1
     2    27    26    1
     3    26     5    1
     4     6     5   ar
     5     6     1   ar
     6     7     1    1
     7     7     8    1
     8     5     4   ar
     9    11     8    1
    10    11    12    2
    11    15    24    1
    12    15    12    1
    13     1     2   ar
    14    24    25    1
    15     8     9    1
    16    12    13    1
    17     4    23    1
    18     4     3   ar
    19     2     3   ar
    20     2    10    1
    21     9    10    2
    22     9    14    1
    23    13    14    2
    24    13    22    1
    25    10    16    1
    26    30    29    2
    27    16    17   ar
    28    16    21   ar
    29    33    32    1
    30    17    18   ar
    31    29    21    1
    32    29    31    1
    33    21    20   ar
    34    32    31    1
    35    18    19   ar
    36    20    19   ar
