@<TRIPOS>MOLECULE
1jut_UMP_A_1.pdb
 20 21 0 0 0
SMALL
GASTEIGER

@<TRIPOS>ATOM
      1  N1        17.4440   20.3080   31.1400 N.am  302  UMP302     -0.2018
      2  C2        17.9020   19.9520   32.4190 C.1   302  UMP302      0.2802
      3  N3        18.9160   18.9660   32.4400 N.2   302  UMP302     -0.2497
      4  C4        19.1780   18.1070   31.3780 C.1   302  UMP302      0.1941
      5  C5        18.4710   18.2120   30.0400 C.3   302  UMP302      0.1579
      6  C6        17.7010   19.5890   29.8000 C.3   302  UMP302      0.1249
      7  O2        17.9270   20.6770   33.4180 O.2   302  UMP302     -0.1922
      8  O4        20.1800   17.1220   31.4060 O.2   302  UMP302     -0.2133
      9  C1'       16.1000   20.9520   31.0850 C.3   302  UMP302      0.2048
     10  C2'       16.3140   22.4230   30.7550 C.3   302  UMP302      0.0871
     11  C3'       14.9550   22.8240   30.1870 C.3   302  UMP302      0.1857
     12  C4'       14.6190   21.5570   29.3630 C.3   302  UMP302      0.1774
     13  O3'       14.0350   22.9820   31.2900 O.3   302  UMP302     -0.2203
     14  O4'       15.3510   20.4510   29.9820 O.3   302  UMP302     -0.3342
     15  C5'       15.1660   21.7450   27.9460 C.3   302  UMP302      0.1858
     16  O5'       14.2980   22.5660   27.1660 O.3   302  UMP302     -0.2675
     17  P         14.9140   23.7460   26.2360 P.3   302  UMP302      0.5327
     18  OP1       13.7590   24.4530   25.6330 O.3   302  UMP302     -0.1145
     19  OP2       15.7020   24.6040   27.1940 O.3   302  UMP302     -0.1145
     20  OP3       15.7020   23.0810   25.1620 O.2   302  UMP302     -0.2224
@<TRIPOS>BOND
     1    20    17    2
     2    18    17    1
     3    17    16    1
     4    17    19    1
     5    16    15    1
     6    15    12    1
     7    12    14    1
     8    12    11    1
     9     6     5    1
    10     6     1    1
    11    14     9    1
    12     5     4    1
    13    11    10    1
    14    11    13    1
    15    10     9    1
    16     9     1    1
    17     1     2   am
    18     4     8    2
    19     4     3    2
    20     2     3    2
    21     2     7    2
