@<TRIPOS>MOLECULE
1jut_LYD_A_1.pdb
 29 31 0 0 0
SMALL
GASTEIGER

@<TRIPOS>ATOM
      1  C5'       16.2710   14.1400   34.8440 C.ar  303  LYD303     -0.0041
      2  C4'       15.9790   13.9600   33.4750 C.ar  303  LYD303     -0.0219
      3  C3'       14.6720   13.6520   33.0820 C.ar  303  LYD303     -0.0041
      4  C2'       13.6810   13.5130   34.0620 C.ar  303  LYD303      0.0042
      5  C1'       13.9660   13.6740   35.4380 C.ar  303  LYD303      0.0550
      6  C6'       15.2720   13.9980   35.8200 C.ar  303  LYD303      0.0042
      7  C9        12.9470   13.3100   36.4470 C.2   303  LYD303      0.2652
      8  O9        11.7440   13.1300   36.1770 O.2   303  LYD303     -0.2684
      9  N         13.4000   13.1300   37.7290 N.am  303  LYD303     -0.1918
     10  CA        12.5170   12.7010   38.8430 C.3   303  LYD303      0.1980
     11  CB        12.5550   11.1730   39.0130 C.3   303  LYD303      0.0311
     12  CG1       12.1310   10.5130   37.7110 C.3   303  LYD303      0.0023
     13  CG2       11.6640   10.6630   40.1700 C.3   303  LYD303      0.0023
     14  C8        17.0850   14.1000   32.4320 C.3   303  LYD303      0.0308
     15  C7        17.1860   15.5340   31.8670 C.3   303  LYD303      0.0305
     16  C5        15.8950   15.9590   31.1920 C.2   303  LYD303      0.0071
     17  C         12.9290   13.3750   40.1230 C.2   303  LYD303      0.3842
     18  OX1       14.1280   13.7090   40.1860 O.co2 303  LYD303     -0.2437
     19  OX2       12.0910   13.5040   41.0340 O.co2 303  LYD303     -0.2437
     20  C6        15.4610   15.4320   30.0020 C.2   303  LYD303      0.1039
     21  N7        14.3460   16.1660   29.5550 N.2   303  LYD303     -0.1847
     22  C7A       14.1150   17.1650   30.4800 C.1   303  LYD303      0.0973
     23  C4A       15.0160   17.0520   31.5230 C.3   303  LYD303      0.2358
     24  C4        14.9640   17.9840   32.6190 C.1   303  LYD303      0.2101
     25  O4        15.7450   18.0520   33.5870 O.2   303  LYD303     -0.2120
     26  N3        13.9470   18.9760   32.5330 N.2   303  LYD303     -0.2525
     27  C2        12.9750   19.0190   31.5050 C.1   303  LYD303      0.2602
     28  N1        13.0950   18.1440   30.4240 N.2   303  LYD303     -0.2733
     29  N2        11.8760   19.8550   31.6360 N.pl3 303  LYD303     -0.0221
@<TRIPOS>BOND
     1    21    20    1
     2    21    22    2
     3    20    16    2
     4    28    22    2
     5    28    27    2
     6    22    23    1
     7    16    23    1
     8    16    15    1
     9    27    29    1
    10    27    26    2
    11    23    24    1
    12    15    14    1
    13    14     2    1
    14    26    24    2
    15    24    25    2
    16     3     2   ar
    17     3     4   ar
    18     2     1   ar
    19     4     5   ar
    20     1     6   ar
    21     5     6   ar
    22     5     7    1
    23     8     7    2
    24     7     9   am
    25    12    11    1
    26     9    10    1
    27    10    11    1
    28    10    17    1
    29    11    13    1
    30    17    18   ar
    31    17    19   ar
