@<TRIPOS>MOLECULE
1juv_NDP_A_1.pdb
 48 52 0 0 0
SMALL
GASTEIGER

@<TRIPOS>ATOM
      1  PA        32.7210   11.9320   74.2100 P.3   194  NDP194      0.2189
      2  O1A       32.4290   11.0220   73.1530 O.2   194  NDP194     -0.5170
      3  O2A       34.0340   12.5860   74.4890 O.3   194  NDP194     -0.4371
      4  O5B       31.4490   13.0360   74.1630 O.3   194  NDP194     -0.3112
      5  C5B       31.4850   14.2360   74.9220 C.3   194  NDP194      0.1813
      6  C4B       30.0900   14.9340   74.8040 C.3   194  NDP194      0.1820
      7  O4B       30.2770   16.1880   75.4720 O.3   194  NDP194     -0.3136
      8  C3B       29.2630   15.1100   73.5830 C.3   194  NDP194      0.2157
      9  O3B       28.2410   14.0840   73.4450 O.3   194  NDP194     -0.2175
     10  C2B       28.5060   16.4140   73.8740 C.3   194  NDP194      0.2314
     11  O2B       27.2390   16.3850   74.5730 O.3   194  NDP194     -0.2630
     12  C1B       29.4910   17.1130   74.7400 C.3   194  NDP194      0.3158
     13  N9A       30.2200   18.1960   73.9770 N.pl3 194  NDP194     -0.1439
     14  C8A       30.3880   18.3610   72.5750 C.3   194  NDP194      0.3377
     15  N7A       31.0690   19.4550   72.2970 N.2   194  NDP194     -0.2095
     16  C5A       31.3630   20.0390   73.4990 C.2   194  NDP194      0.2526
     17  C6A       32.0510   21.2130   73.8800 C.2   194  NDP194      0.4393
     18  N6A       32.5740   22.0120   72.9500 N.pl3 194  NDP194      0.2180
     19  N1A       32.1710   21.5190   75.2000 N.2   194  NDP194      0.0021
     20  C2A       31.6350   20.7040   76.1350 C.3   194  NDP194      0.5254
     21  N3A       30.9630   19.5720   75.8840 N.2   194  NDP194     -0.0055
     22  C4A       30.8600   19.2890   74.5310 C.2   194  NDP194      0.3518
     23  O3        32.4320   11.0140   75.4760 O.3   194  NDP194     -0.2703
     24  PN        31.1890   10.2710   76.2030 P.3   194  NDP194      0.2189
     25  O1N       30.5990    9.3060   75.2520 O.2   194  NDP194     -0.5170
     26  O2N       30.3550   11.3170   76.8370 O.3   194  NDP194     -0.4371
     27  O5D       31.8980    9.4700   77.3730 O.3   194  NDP194     -0.3112
     28  C5D       32.6000   10.0990   78.4750 C.3   194  NDP194      0.1813
     29  C4D       33.0160    8.9210   79.3780 C.3   194  NDP194      0.1799
     30  O4D       33.9710    8.1260   78.7280 O.3   194  NDP194     -0.3327
     31  C3D       33.7020    9.4170   80.6320 C.3   194  NDP194      0.2158
     32  O3D       33.0740    8.8310   81.7650 O.3   194  NDP194     -0.2175
     33  C2D       35.1700    9.0960   80.4840 C.3   194  NDP194      0.2309
     34  O2D       35.7360    8.8530   81.7600 O.3   194  NDP194     -0.2158
     35  C1D       34.9580    7.7460   79.6810 C.3   194  NDP194      0.2263
     36  N1N       36.1410    7.3110   78.9110 N.pl3 194  NDP194     -0.2787
     37  C2N       36.3200    5.9310   78.9130 C.3   194  NDP194      0.1244
     38  C3N       37.4270    5.4160   78.1680 C.2   194  NDP194      0.0544
     39  C7N       37.6250    3.9700   78.1440 C.2   194  NDP194      0.2818
     40  O7N       36.9560    3.1740   78.8470 O.2   194  NDP194     -0.2670
     41  N7N       38.5310    3.4410   77.3210 N.am  194  NDP194     -0.0839
     42  C4N       38.2670    6.3090   77.4830 C.2   194  NDP194      0.0033
     43  C5N       38.0740    7.6660   77.4960 C.2   194  NDP194      0.0157
     44  C6N       37.0020    8.1770   78.2110 C.2   194  NDP194      0.0633
     45  P2B       25.8440   15.8260   74.1140 P.3   194  NDP194      0.5328
     46  O1X       25.7260   14.3980   74.6130 O.3   194  NDP194     -0.1145
     47  O2X       25.7380   15.9560   72.6030 O.2   194  NDP194     -0.2224
     48  O3X       24.8330   16.7160   74.7930 O.3   194  NDP194     -0.1145
@<TRIPOS>BOND
     1    15    14    1
     2    15    16    2
     3    14    13    1
     4    47    45    2
     5    18    17    1
     6     2     1    2
     7     9     8    1
     8    16    17    1
     9    16    22    1
    10     8    10    1
    11     8     6    1
    12    10    11    1
    13    10    12    1
    14    17    19    2
    15    13    22    1
    16    13    12    1
    17    45    11    1
    18    45    46    1
    19    45    48    1
    20     4     1    1
    21     4     5    1
    22     1     3    1
    23     1    23    1
    24    22    21    2
    25    12     7    1
    26     6     5    1
    27     6     7    1
    28    19    20    1
    29    25    24    2
    30    23    24    1
    31    21    20    1
    32    24    26    1
    33    24    27    1
    34    41    39   am
    35    27    28    1
    36    42    43    1
    37    42    38    2
    38    43    44    2
    39    39    38    1
    40    39    40    2
    41    38    37    1
    42    44    36    1
    43    28    29    1
    44    30    29    1
    45    30    35    1
    46    36    37    1
    47    36    35    1
    48    29    31    1
    49    35    33    1
    50    33    31    1
    51    33    34    1
    52    31    32    1
