@<TRIPOS>MOLECULE
1juy_H5P_A_1.pdb
 28 29 0 0 0
SMALL
GASTEIGER

@<TRIPOS>ATOM
      1  C2       -10.7280   52.8510   51.4510 C.2   433  H5P433      0.2740
      2  O2       -10.1330   52.8610   52.5320 O.2   433  H5P433     -0.2702
      3  N3       -10.3390   52.3060   50.2360 N.am  433  H5P433     -0.2362
      4  C4       -11.3810   52.3040   49.3260 C.2   433  H5P433      0.3085
      5  O4       -11.3370   51.8470   48.1890 O.2   433  H5P433     -0.2523
      6  N5       -12.4740   52.8990   49.9820 N.am  433  H5P433     -0.2615
      7  C1'      -12.1960   53.2880   51.2970 C.3   433  H5P433      0.2443
      8  C2'      -12.3370   54.7540   51.5470 C.3   433  H5P433      0.1380
      9  O2'      -11.0840   55.3820   51.3910 O.3   433  H5P433     -0.3840
     10  C3'      -12.9560   54.8880   52.9330 C.3   433  H5P433      0.1142
     11  O3'      -11.9760   55.0050   53.9940 O.3   433  H5P433     -0.3864
     12  C4'      -13.7820   53.5840   52.9760 C.3   433  H5P433      0.1140
     13  O4'      -13.0360   52.6300   52.2600 O.3   433  H5P433     -0.3376
     14  C5'      -15.1970   53.7780   52.4420 C.3   433  H5P433      0.0880
     15  O5'      -15.2850   54.5360   51.1590 O.3   433  H5P433     -0.2809
     16  P        -15.9990   53.9340   49.8330 P.3   433  H5P433      0.5320
     17  O1P      -15.5040   54.8890   48.8390 O.2   433  H5P433     -0.2224
     18  O2P      -17.4540   54.1050   50.0730 O.3   433  H5P433     -0.1145
     19  O3P      -15.3420   52.6100   49.6380 O.3   433  H5P433     -0.1145
     20  HN3       -9.3850   52.1410   49.9850 H     433  H5P433      0.1592
     21  HN5      -13.3630   53.0360   49.5460 H     433  H5P433      0.1535
     22  H2'      -13.0240   55.1970   50.8260 H     433  H5P433      0.0672
     23 HO2'      -10.5220   55.0730   52.1150 H     433  H5P433      0.2101
     24  H3'      -13.6170   55.7540   52.9740 H     433  H5P433      0.0648
     25 HO3'      -12.4750   54.9310   54.8210 H     433  H5P433      0.2100
     26  H4'      -13.8450   53.2530   54.0130 H     433  H5P433      0.0647
     27 H5'1      -15.6470   52.7960   52.3140 H     433  H5P433      0.0592
     28 H5'2      -15.7750   54.3060   53.2050 H     433  H5P433      0.0592
@<TRIPOS>BOND
     1     5     4    2
     2    17    16    2
     3     4     6   am
     4     4     3   am
     5    21     6    1
     6    19    16    1
     7    16    18    1
     8    16    15    1
     9     6     7    1
    10    20     3    1
    11     3     1   am
    12    22     8    1
    13    15    14    1
    14     7     1    1
    15     7     8    1
    16     7    13    1
    17     9     8    1
    18     9    23    1
    19     1     2    2
    20     8    10    1
    21    13    12    1
    22    27    14    1
    23    14    12    1
    24    14    28    1
    25    10    24    1
    26    10    12    1
    27    10    11    1
    28    12    26    1
    29    11    25    1
