@<TRIPOS>MOLECULE
1juy_GDP_A_1.pdb
 40 42 0 0 0
SMALL
GASTEIGER

@<TRIPOS>ATOM
      1  PB        -4.1370   47.1500   45.4460 P.3   432  GDP432      0.5373
      2  O1B       -4.0800   46.4410   44.1180 O.2   432  GDP432     -0.2221
      3  O2B       -5.2010   48.1910   45.6320 O.3   432  GDP432     -0.1143
      4  O3B       -4.0520   46.0390   46.4730 O.3   432  GDP432     -0.1143
      5  O3A       -2.8140   48.0090   45.6740 O.3   432  GDP432     -0.2261
      6  PA        -2.6730   49.4480   45.0210 P.3   432  GDP432      0.2224
      7  O1A       -2.4090   49.1700   43.5860 O.2   432  GDP432     -0.5170
      8  O2A       -3.6070   50.5440   45.4890 O.3   432  GDP432     -0.4370
      9  O5'       -1.2040   49.8480   45.4920 O.3   432  GDP432     -0.3245
     10  C5'       -0.2120   48.8410   45.4980 C.3   432  GDP432      0.0836
     11  C4'        0.9320   49.7380   45.0470 C.3   432  GDP432      0.1131
     12  O4'        2.1540   49.0680   45.2810 O.3   432  GDP432     -0.3474
     13  C3'        0.8550   50.1010   43.5140 C.3   432  GDP432      0.1133
     14  O3'        1.1480   51.4650   43.3010 O.3   432  GDP432     -0.3864
     15  C2'        1.8650   49.0450   42.9470 C.3   432  GDP432      0.1266
     16  O2'        2.4490   49.3310   41.6340 O.3   432  GDP432     -0.3849
     17  C1'        2.9240   48.9320   44.0880 C.3   432  GDP432      0.1617
     18  N9         3.4990   47.6850   44.3170 N.pl3 432  GDP432     -0.2241
     19  C8         2.9420   46.4460   44.3750 C.2   432  GDP432      0.1451
     20  N7         3.7260   45.4850   44.8320 N.2   432  GDP432     -0.3865
     21  C5         4.8890   46.1720   45.0980 C.2   432  GDP432      0.2296
     22  C6         6.0920   45.6930   45.6160 C.2   432  GDP432      0.2859
     23  O6         6.3250   44.5290   45.9770 O.2   432  GDP432     -0.2668
     24  N1         7.0480   46.6930   45.7270 N.am  432  GDP432     -0.2418
     25  C2         6.7790   47.9850   45.3780 C.2   432  GDP432      0.2395
     26  N2         7.7310   48.8950   45.5430 N.pl3 432  GDP432     -0.3206
     27  N3         5.6440   48.4340   44.9000 N.2   432  GDP432     -0.3551
     28  C4         4.7520   47.4810   44.7840 C.2   432  GDP432      0.2272
     29  H5'       -0.3480   48.0530   44.7570 H     432  GDP432      0.0591
     30 H5''       -0.0570   48.4530   46.5080 H     432  GDP432      0.0591
     31  H4'        0.8510   50.6210   45.6740 H     432  GDP432      0.0647
     32  H3'       -0.1430   49.9100   43.1230 H     432  GDP432      0.0647
     33 HO3'        1.5900   51.7890   44.0950 H     432  GDP432      0.2100
     34  H2'        1.2930   48.1190   42.8800 H     432  GDP432      0.0663
     35 HO2'        2.6860   48.4680   41.2730 H     432  GDP432      0.2101
     36  H1'        3.6460   49.7170   43.9190 H     432  GDP432      0.0841
     37  H8         1.9100   46.2540   44.0860 H     432  GDP432      0.1149
     38  HN1        7.9730   46.4700   46.0760 H     432  GDP432      0.1589
     39 HN21        7.5930   49.6950   46.0930 H     432  GDP432      0.1459
     40 HN22        8.6440   48.7070   45.2320 H     432  GDP432      0.1459
@<TRIPOS>BOND
     1    35    16    1
     2    16    15    1
     3    34    15    1
     4    15    13    1
     5    15    17    1
     6    32    13    1
     7    14    13    1
     8    14    33    1
     9    13    11    1
    10     7     6    2
    11    36    17    1
    12    37    19    1
    13    17    18    1
    14    17    12    1
    15     2     1    2
    16    18    19    1
    17    18    28    1
    18    19    20    2
    19    29    10    1
    20    28    27    2
    21    28    21    1
    22    20    21    2
    23    27    25    2
    24     6     8    1
    25     6     9    1
    26     6     5    1
    27    11    12    1
    28    11    10    1
    29    11    31    1
    30    21    22    1
    31    40    26    1
    32    25    26    1
    33    25    24    1
    34     1     3    1
    35     1     5    1
    36     1     4    1
    37     9    10    1
    38    10    30    1
    39    26    39    1
    40    22    24   am
    41    22    23    2
    42    24    38    1
