@<TRIPOS>MOLECULE
1jv1_UD1_A_1.pdb
 39 41 0 0 0
SMALL
GASTEIGER

@<TRIPOS>ATOM
      1  C1'       43.0460   25.3850   25.9070 C.3   901  UD1901      0.2633
      2  C2'       43.1990   24.8750   27.3860 C.3   901  UD1901      0.1845
      3  C3'       41.9740   25.1730   28.2650 C.3   901  UD1901      0.2094
      4  C4'       41.8900   26.6660   28.3620 C.3   901  UD1901      0.2136
      5  C5'       41.6500   27.2210   26.9010 C.3   901  UD1901      0.1834
      6  C6'       41.5920   28.7600   26.8880 C.3   901  UD1901      0.2142
      7  C7'       44.6910   22.9370   27.0110 C.2   901  UD1901      0.2420
      8  C8'       44.8050   21.4270   26.8590 C.3   901  UD1901      0.0964
      9  N2'       43.4420   23.4000   27.2470 N.am  901  UD1901     -0.1992
     10  O1'       41.9370   24.5620   25.4370 O.3   901  UD1901     -0.2864
     11  O3'       42.2130   24.5930   29.5960 O.3   901  UD1901     -0.2183
     12  O4'       40.7570   27.0020   29.2230 O.3   901  UD1901     -0.2176
     13  O5'       42.7580   26.8040   25.9850 O.3   901  UD1901     -0.3260
     14  O6'       41.1890   29.2010   25.5950 O.3   901  UD1901     -0.2176
     15  O7'       45.7150   23.6530   26.9100 O.2   901  UD1901     -0.2733
     16  N1        48.3090   22.8270   20.5680 N.am  901  UD1901     -0.1766
     17  C2        49.5410   22.3820   20.1630 C.1   901  UD1901      0.2845
     18  N3        49.6590   21.0650   19.8570 N.2   901  UD1901     -0.2452
     19  C4        48.6520   20.1680   19.9110 C.1   901  UD1901      0.2182
     20  C5        47.2980   20.6140   20.3370 C.2   901  UD1901      0.1242
     21  C6        47.1380   21.9230   20.6540 C.2   901  UD1901      0.0929
     22  O2        50.5350   23.0890   20.0770 O.2   901  UD1901     -0.1918
     23  O4        48.8520   19.0110   19.6300 O.2   901  UD1901     -0.2085
     24  C1B       48.1480   24.2270   20.9270 C.3   901  UD1901      0.2401
     25  C2B       47.2430   25.1030   20.0510 C.3   901  UD1901      0.2319
     26  O2'       48.0360   25.5350   18.9340 O.3   901  UD1901     -0.2157
     27  C3B       46.8530   26.2390   21.0360 C.3   901  UD1901      0.2158
     28  C4B       46.8800   25.5000   22.4200 C.3   901  UD1901      0.1799
     29  O4B       47.6440   24.3090   22.2490 O.3   901  UD1901     -0.3320
     30  O3B       47.9440   27.1720   21.0400 O.3   901  UD1901     -0.2175
     31  C5B       45.5080   25.0350   23.0660 C.3   901  UD1901      0.1813
     32  O5B       44.7150   24.2470   22.2560 O.3   901  UD1901     -0.3112
     33  PA        43.8780   22.9120   22.6830 P.3   901  UD1901      0.2189
     34  O1A       44.7970   21.8360   23.1600 O.3   901  UD1901     -0.4371
     35  O2A       43.2150   22.5950   21.4140 O.2   901  UD1901     -0.5170
     36  O3A       42.7990   23.2350   23.7270 O.3   901  UD1901     -0.2703
     37  PB        41.6320   24.2560   23.8590 P.3   901  UD1901      0.2208
     38  O1B       40.3260   23.6020   23.7060 O.3   901  UD1901     -0.4371
     39  O2B       41.9690   25.3730   22.9980 O.2   901  UD1901     -0.5170
@<TRIPOS>BOND
     1    26    25    1
     2    23    19    2
     3    18    19    2
     4    18    17    2
     5    19    20    1
     6    25    24    1
     7    25    27    1
     8    22    17    2
     9    17    16   am
    10    20    21    2
    11    16    21    1
    12    16    24    1
    13    24    29    1
    14    27    30    1
    15    27    28    1
    16    35    33    2
    17    29    28    1
    18    32    33    1
    19    32    31    1
    20    28    31    1
    21    33    34    1
    22    33    36    1
    23    39    37    2
    24    38    37    1
    25    36    37    1
    26    37    10    1
    27    10     1    1
    28    14     6    1
    29     1    13    1
    30     1     2    1
    31    13     5    1
    32     8     7    1
    33     6     5    1
    34     5     4    1
    35    15     7    2
    36     7     9   am
    37     9     2    1
    38     2     3    1
    39     3     4    1
    40     3    11    1
    41     4    12    1
