@<TRIPOS>MOLECULE
1jv3_UD2_A_1.pdb
 39 41 0 0 0
SMALL
GASTEIGER

@<TRIPOS>ATOM
      1  C1'       42.8380   25.3470   25.6450 C.3   901  UD2901      0.2633
      2  C2'       43.0100   24.9140   27.1670 C.3   901  UD2901      0.1845
      3  C3'       41.6570   25.2630   27.9280 C.3   901  UD2901      0.2094
      4  C4'       41.7570   26.7990   27.8690 C.3   901  UD2901      0.2136
      5  C5'       41.3400   27.1670   26.4180 C.3   901  UD2901      0.1834
      6  C6'       41.3080   28.7060   26.3280 C.3   901  UD2901      0.2142
      7  C7'       44.5600   23.0820   26.8200 C.2   901  UD2901      0.2420
      8  C8'       44.8210   21.6180   26.7440 C.3   901  UD2901      0.0964
      9  N2'       43.3060   23.4670   27.1110 N.am  901  UD2901     -0.1992
     10  O1'       41.8020   24.4390   25.1670 O.3   901  UD2901     -0.2864
     11  O3'       41.9010   24.7850   29.2620 O.3   901  UD2901     -0.2183
     12  O4'       42.6910   27.4770   28.5650 O.3   901  UD2901     -0.2176
     13  O5'       42.4910   26.7750   25.5950 O.3   901  UD2901     -0.3260
     14  O6'       40.8700   29.1590   25.0810 O.3   901  UD2901     -0.2176
     15  O7'       45.4870   23.8730   26.6040 O.2   901  UD2901     -0.2733
     16  N1        48.1930   22.8920   20.4120 N.am  901  UD2901     -0.1766
     17  C2        49.4360   22.4260   19.9700 C.1   901  UD2901      0.2845
     18  N3        49.5460   21.1200   19.6880 N.2   901  UD2901     -0.2452
     19  C4        48.5430   20.2220   19.7570 C.1   901  UD2901      0.2182
     20  C5        47.2120   20.6650   20.2030 C.2   901  UD2901      0.1242
     21  C6        47.0360   21.9680   20.5130 C.2   901  UD2901      0.0929
     22  O2        50.4370   23.1230   19.8600 O.2   901  UD2901     -0.1918
     23  O4        48.7470   19.0510   19.4820 O.2   901  UD2901     -0.2085
     24  C1B       48.0580   24.3110   20.7440 C.3   901  UD2901      0.2401
     25  C2B       47.1830   25.1940   19.8130 C.3   901  UD2901      0.2319
     26  O2'       47.9960   25.5980   18.7010 O.3   901  UD2901     -0.2157
     27  C3B       46.7450   26.3480   20.7640 C.3   901  UD2901      0.2158
     28  C4B       46.7520   25.6520   22.1570 C.3   901  UD2901      0.1799
     29  O4B       47.5380   24.4580   22.0460 O.3   901  UD2901     -0.3320
     30  O3B       47.7550   27.3360   20.7780 O.3   901  UD2901     -0.2175
     31  C5B       45.3560   25.1810   22.6390 C.3   901  UD2901      0.1813
     32  O5B       44.8140   24.1250   21.8640 O.3   901  UD2901     -0.3112
     33  PA        43.5430   23.3290   22.2960 P.3   901  UD2901      0.2189
     34  O1A       44.0010   22.3020   23.3050 O.3   901  UD2901     -0.4371
     35  O2A       42.9850   22.7010   21.0770 O.2   901  UD2901     -0.5170
     36  O3A       42.5890   24.3630   22.8300 O.3   901  UD2901     -0.2703
     37  PB        41.3390   24.3320   23.6710 P.3   901  UD2901      0.2208
     38  O1B       40.5610   23.0570   23.4920 O.3   901  UD2901     -0.4371
     39  O2B       40.5210   25.5290   23.4200 O.2   901  UD2901     -0.5170
@<TRIPOS>BOND
     1    26    25    1
     2    23    19    2
     3    18    19    2
     4    18    17    2
     5    19    20    1
     6    25    24    1
     7    25    27    1
     8    22    17    2
     9    17    16   am
    10    20    21    2
    11    16    21    1
    12    16    24    1
    13    24    29    1
    14    27    30    1
    15    27    28    1
    16    35    33    2
    17    32    33    1
    18    32    31    1
    19    29    28    1
    20    28    31    1
    21    33    36    1
    22    33    34    1
    23    36    37    1
    24    39    37    2
    25    38    37    1
    26    37    10    1
    27    14     6    1
    28    10     1    1
    29    13     1    1
    30    13     5    1
    31     1     2    1
    32     6     5    1
    33     5     4    1
    34    15     7    2
    35     8     7    1
    36     7     9   am
    37     9     2    1
    38     2     3    1
    39     4     3    1
    40     4    12    1
    41     3    11    1
