@<TRIPOS>MOLECULE
1jv6_RET_A_1.pdb
 20 20 0 0 0
SMALL
GASTEIGER

@<TRIPOS>ATOM
      1  C1        43.9310   35.3600    4.7330 C.3   301  RET301      0.0183
      2  C2        44.3420   36.5980    5.6000 C.3   301  RET301      0.0044
      3  C3        44.5010   36.3740    7.0390 C.3   301  RET301      0.0047
      4  C4        45.4900   35.2040    7.3240 C.3   301  RET301      0.0217
      5  C5        45.2950   33.9830    6.4290 C.2   301  RET301     -0.0479
      6  C6        44.6020   34.0020    5.2480 C.2   301  RET301     -0.0307
      7  C7        44.4630   32.7730    4.4120 C.2   301  RET301     -0.0052
      8  C8        43.8360   32.5350    3.2310 C.2   301  RET301     -0.0046
      9  C9        43.7900   31.3030    2.4580 C.2   301  RET301     -0.0219
     10  C10       43.0930   31.2900    1.2880 C.2   301  RET301     -0.0043
     11  C11       42.9330   30.2170    0.3630 C.2   301  RET301     -0.0007
     12  C12       42.2200   30.2700   -0.7870 C.2   301  RET301     -0.0046
     13  C13       41.9970   29.3020   -1.8100 C.2   301  RET301     -0.0261
     14  C14       41.2030   29.7230   -2.8420 C.2   301  RET301     -0.0300
     15  C15       40.7480   29.1200   -4.0190 C.3   301  RET301      0.0304
     16  C16       42.3870   35.2790    4.7590 C.3   301  RET301      0.0043
     17  C17       44.4180   35.7790    3.3160 C.3   301  RET301      0.0043
     18  C18       45.9870   32.7790    7.0500 C.3   301  RET301      0.0260
     19  C19       44.5420   30.0950    2.9890 C.3   301  RET301      0.0310
     20  C20       42.6250   27.9260   -1.7110 C.3   301  RET301      0.0307
@<TRIPOS>BOND
     1    15    14    1
     2    14    13    2
     3    13    20    1
     4    13    12    1
     5    12    11    2
     6    11    10    1
     7    10     9    2
     8     9    19    1
     9     9     8    1
    10     8     7    2
    11    17     1    1
    12     7     6    1
    13     1    16    1
    14     1     6    1
    15     1     2    1
    16     6     5    2
    17     2     3    1
    18     5    18    1
    19     5     4    1
    20     3     4    1
