@<TRIPOS>MOLECULE
1jv7_RET_A_1.pdb
 20 20 0 0 0
SMALL
GASTEIGER

@<TRIPOS>ATOM
      1  C1        43.8410   35.2660    4.5500 C.3   301  RET301      0.0183
      2  C2        44.2750   36.4660    5.4500 C.3   301  RET301      0.0044
      3  C3        44.3390   36.2010    6.8850 C.3   301  RET301      0.0047
      4  C4        45.2950   35.0190    7.1810 C.3   301  RET301      0.0217
      5  C5        45.0910   33.8180    6.2620 C.2   301  RET301     -0.0479
      6  C6        44.4380   33.8750    5.0610 C.2   301  RET301     -0.0307
      7  C7        44.2790   32.6500    4.2000 C.2   301  RET301     -0.0052
      8  C8        43.6760   32.4290    2.9950 C.2   301  RET301     -0.0046
      9  C9        43.6110   31.1960    2.1970 C.2   301  RET301     -0.0219
     10  C10       42.9350   31.2070    1.0040 C.2   301  RET301     -0.0043
     11  C11       42.7600   30.1400    0.0610 C.2   301  RET301     -0.0007
     12  C12       42.0740   30.2080   -1.1100 C.2   301  RET301     -0.0046
     13  C13       41.8590   29.2330   -2.1360 C.2   301  RET301     -0.0261
     14  C14       41.1050   29.6350   -3.2170 C.2   301  RET301     -0.0300
     15  C15       40.7130   28.9720   -4.3960 C.3   301  RET301      0.0304
     16  C16       42.2950   35.2520    4.5300 C.3   301  RET301      0.0043
     17  C17       44.4020   35.6840    3.1600 C.3   301  RET301      0.0043
     18  C18       45.7080   32.5800    6.8820 C.3   301  RET301      0.0260
     19  C19       44.3130   29.9610    2.7260 C.3   301  RET301      0.0310
     20  C20       42.4670   27.8470   -2.0000 C.3   301  RET301      0.0307
@<TRIPOS>BOND
     1    15    14    1
     2    14    13    2
     3    13    20    1
     4    13    12    1
     5    12    11    2
     6    11    10    1
     7    10     9    2
     8     9    19    1
     9     9     8    1
    10     8     7    2
    11    17     1    1
    12     7     6    1
    13    16     1    1
    14     1     6    1
    15     1     2    1
    16     6     5    2
    17     2     3    1
    18     5    18    1
    19     5     4    1
    20     3     4    1
