@<TRIPOS>MOLECULE
1jvd_UD1_A_1.pdb
 39 41 0 0 0
SMALL
GASTEIGER

@<TRIPOS>ATOM
      1  C1'        1.7230   -3.6960   24.0570 C.3   901  UD1901      0.2633
      2  C2'        1.9590   -4.2180   25.5020 C.3   901  UD1901      0.1845
      3  C3'        0.7790   -3.8890   26.4230 C.3   901  UD1901      0.2094
      4  C4'        0.7250   -2.3600   26.4930 C.3   901  UD1901      0.2136
      5  C5'        0.4310   -1.8260   25.0380 C.3   901  UD1901      0.1834
      6  C6'        0.4120   -0.3050   25.0200 C.3   901  UD1901      0.2142
      7  C7'        3.4420   -6.0710   25.2070 C.2   901  UD1901      0.2420
      8  C8'        3.6520   -7.5450   25.1060 C.3   901  UD1901      0.0964
      9  N2'        2.1980   -5.6730   25.4000 N.am  901  UD1901     -0.1992
     10  O1'        0.6540   -4.5680   23.6130 O.3   901  UD1901     -0.2864
     11  O3'        1.0510   -4.4550   27.7030 O.3   901  UD1901     -0.2183
     12  O4'       -0.3370   -1.9460   27.3620 O.3   901  UD1901     -0.2176
     13  O5'        1.4420   -2.2740   24.1080 O.3   901  UD1901     -0.3260
     14  O6'       -0.0320    0.1800   23.8050 O.3   901  UD1901     -0.2176
     15  O7'        4.4140   -5.2760   25.1060 O.2   901  UD1901     -0.2733
     16  N1         6.7490   -5.9110   18.6480 N.am  901  UD1901     -0.1766
     17  C2         7.9820   -6.4640   18.2500 C.1   901  UD1901      0.2845
     18  N3         8.0070   -7.7520   17.9270 N.2   901  UD1901     -0.2452
     19  C4         6.9570   -8.5850   17.9480 C.1   901  UD1901      0.2182
     20  C5         5.6350   -8.0500   18.3650 C.2   901  UD1901      0.1242
     21  C6         5.5370   -6.7500   18.7010 C.2   901  UD1901      0.0929
     22  O2         9.0460   -5.8750   18.1820 O.2   901  UD1901     -0.1918
     23  O4         7.0910   -9.7690   17.6330 O.2   901  UD1901     -0.2085
     24  C1B        6.6690   -4.5090   19.0210 C.3   901  UD1901      0.2401
     25  C2B        5.9140   -3.5790   18.0590 C.3   901  UD1901      0.2319
     26  O2'        6.8260   -3.2060   17.0310 O.3   901  UD1901     -0.2157
     27  C3B        5.4400   -2.4290   18.9810 C.3   901  UD1901      0.2158
     28  C4B        5.3210   -3.1340   20.3520 C.3   901  UD1901      0.1799
     29  O4B        6.0540   -4.3570   20.2790 O.3   901  UD1901     -0.3320
     30  O3B        6.4690   -1.4750   19.0470 O.3   901  UD1901     -0.2175
     31  C5B        3.8680   -3.5210   20.7430 C.3   901  UD1901      0.1813
     32  O5B        3.3110   -4.6130   20.0110 O.3   901  UD1901     -0.3112
     33  PA         2.2480   -5.5790   20.6370 P.3   901  UD1901      0.2189
     34  O1A        2.9630   -6.3990   21.6710 O.3   901  UD1901     -0.4371
     35  O2A        1.7230   -6.4310   19.5580 O.2   901  UD1901     -0.5170
     36  O3A        1.2390   -4.5930   21.1890 O.3   901  UD1901     -0.2703
     37  PB         0.0880   -4.6840   22.1800 P.3   901  UD1901      0.2208
     38  O1B       -0.5920   -5.9580   22.0570 O.3   901  UD1901     -0.4371
     39  O2B       -0.8140   -3.5870   21.9970 O.2   901  UD1901     -0.5170
@<TRIPOS>BOND
     1    26    25    1
     2    23    19    2
     3    18    19    2
     4    18    17    2
     5    19    20    1
     6    25    27    1
     7    25    24    1
     8    22    17    2
     9    17    16   am
    10    20    21    2
    11    16    21    1
    12    16    24    1
    13    27    30    1
    14    27    28    1
    15    24    29    1
    16    35    33    2
    17    32    33    1
    18    32    31    1
    19    29    28    1
    20    28    31    1
    21    33    36    1
    22    33    34    1
    23    36    37    1
    24    39    37    2
    25    38    37    1
    26    37    10    1
    27    10     1    1
    28    14     6    1
    29     1    13    1
    30     1     2    1
    31    13     5    1
    32     6     5    1
    33     5     4    1
    34     8     7    1
    35    15     7    2
    36     7     9   am
    37     9     2    1
    38     2     3    1
    39     3     4    1
    40     3    11    1
    41     4    12    1
