@<TRIPOS>MOLECULE
1jvg_UD2_A_1.pdb
 39 41 0 0 0
SMALL
GASTEIGER

@<TRIPOS>ATOM
      1  C1'        0.6180   -3.0890   24.5010 C.3   1901  UD21901     0.2633
      2  C2'        0.7830   -3.5700   26.0340 C.3   1901  UD21901     0.1845
      3  C3'       -0.5680   -3.2380   26.7910 C.3   1901  UD21901     0.2094
      4  C4'       -0.4820   -1.6850   26.7490 C.3   1901  UD21901     0.2136
      5  C5'       -0.8980   -1.3030   25.2980 C.3   1901  UD21901     0.1834
      6  C6'       -0.9640    0.2390   25.2260 C.3   1901  UD21901     0.2142
      7  C7'        2.3940   -5.3930   25.7580 C.2   1901  UD21901     0.2420
      8  C8'        2.6800   -6.8550   25.6540 C.3   1901  UD21901     0.0964
      9  N2'        1.1130   -5.0320   25.9550 N.am  1901  UD21901    -0.1992
     10  O1'       -0.3580   -4.0040   23.9710 O.3   1901  UD21901    -0.2864
     11  O3'       -0.3170   -3.7210   28.1190 O.3   1901  UD21901    -0.2183
     12  O4'        0.4390   -1.0110   27.4680 O.3   1901  UD21901    -0.2176
     13  O5'        0.2290   -1.6530   24.4640 O.3   1901  UD21901    -0.3260
     14  O6'       -1.2790    0.7140   23.9280 O.3   1901  UD21901    -0.2176
     15  O7'        3.3370   -4.5750   25.6470 O.2   1901  UD21901    -0.2733
     16  N1         5.9350   -5.5500   19.3010 N.am  1901  UD21901    -0.1766
     17  C2         7.1710   -6.0460   18.9000 C.1   1901  UD21901     0.2845
     18  N3         7.2520   -7.3540   18.6030 N.2   1901  UD21901    -0.2452
     19  C4         6.2510   -8.2290   18.6410 C.1   1901  UD21901     0.2182
     20  C5         4.8960   -7.7610   19.0580 C.2   1901  UD21901     0.1242
     21  C6         4.7360   -6.4550   19.3730 C.2   1901  UD21901     0.0929
     22  O2         8.2000   -5.3780   18.8170 O.2   1901  UD21901    -0.1918
     23  O4         6.4420   -9.3750   18.3580 O.2   1901  UD21901    -0.2085
     24  C1B        5.8140   -4.1380   19.6430 C.3   1901  UD21901     0.2401
     25  C2B        4.8990   -3.3100   18.7540 C.3   1901  UD21901     0.2319
     26  O2'        5.6350   -2.9460   17.5560 O.3   1901  UD21901    -0.2157
     27  C3B        4.4980   -2.1360   19.7010 C.3   1901  UD21901     0.2158
     28  C4B        4.5420   -2.8110   21.1040 C.3   1901  UD21901     0.1799
     29  O4B        5.3330   -3.9880   20.9700 O.3   1901  UD21901    -0.3320
     30  O3B        5.5150   -1.1560   19.6740 O.3   1901  UD21901    -0.2175
     31  C5B        3.1600   -3.3020   21.6070 C.3   1901  UD21901     0.1813
     32  O5B        2.6370   -4.3370   20.7760 O.3   1901  UD21901    -0.3112
     33  PA         1.3530   -5.1350   21.0890 P.3   1901  UD21901     0.2189
     34  O1A        1.7730   -6.1710   22.1450 O.3   1901  UD21901    -0.4371
     35  O2A        0.9020   -5.7770   19.8620 O.2   1901  UD21901    -0.5170
     36  O3A        0.3670   -4.0980   21.5510 O.3   1901  UD21901    -0.2703
     37  PB        -0.8510   -4.0850   22.4690 P.3   1901  UD21901     0.2208
     38  O1B       -1.7270   -5.2760   22.3060 O.3   1901  UD21901    -0.4371
     39  O2B       -1.5910   -2.8220   22.2010 O.2   1901  UD21901    -0.5170
@<TRIPOS>BOND
     1    26    25    1
     2    23    19    2
     3    18    19    2
     4    18    17    2
     5    19    20    1
     6    25    24    1
     7    25    27    1
     8    22    17    2
     9    17    16   am
    10    20    21    2
    11    16    21    1
    12    16    24    1
    13    24    29    1
    14    30    27    1
    15    27    28    1
    16    35    33    2
    17    32    33    1
    18    32    31    1
    19    29    28    1
    20    33    36    1
    21    33    34    1
    22    28    31    1
    23    36    37    1
    24    39    37    2
    25    38    37    1
    26    37    10    1
    27    14     6    1
    28    10     1    1
    29    13     1    1
    30    13     5    1
    31     1     2    1
    32     6     5    1
    33     5     4    1
    34    15     7    2
    35     8     7    1
    36     7     9   am
    37     9     2    1
    38     2     3    1
    39     4     3    1
    40     4    12    1
    41     3    11    1
