@<TRIPOS>MOLECULE
1jvj_IM2_A_1.pdb
 20 20 0 0 0
SMALL
GASTEIGER

@<TRIPOS>ATOM
      1  C7        10.5420    7.0750   36.3250 C.2   300  IM2300      0.2115
      2  C2        10.4420   11.2980   35.8840 C.3   300  IM2300      0.0958
      3  C6        11.1200    8.2280   37.1330 C.3   300  IM2300      0.1175
      4  C5        10.1090    9.3700   37.1800 C.3   300  IM2300      0.1142
      5  C3         9.5630   10.5160   35.2250 C.2   300  IM2300      0.1428
      6  O7        11.0050    6.8060   35.2370 O.2   300  IM2300     -0.2882
      7  C61       11.6670    7.8330   38.5280 C.3   300  IM2300      0.1613
      8  O62       10.6030    7.2360   39.2960 O.3   300  IM2300     -0.2226
      9  C62       12.2250    8.9650   39.4070 C.3   300  IM2300      0.0360
     10  N4         9.1950    9.4290   36.0200 N.2   300  IM2300     -0.2688
     11  C31        9.0190   10.7590   33.8590 C.2   300  IM2300      0.4014
     12  O31        9.0840   11.9380   33.2340 O.co2 300  IM2300     -0.2392
     13  O32        8.4780    9.8450   33.2600 O.co2 300  IM2300     -0.2392
     14  S21       11.2020   12.8010   35.2510 S.3   300  IM2300     -0.1329
     15  C22       10.5300   13.9350   36.5260 C.3   300  IM2300      0.0812
     16  C23        9.1520   14.5340   36.1120 C.3   300  IM2300      0.1256
     17  N24        8.6630   13.9960   34.8320 N.pl3 300  IM2300     -0.2155
     18  C25        8.0950   14.8840   33.9340 C.2   300  IM2300      0.2043
     19  N26        7.7910   16.1260   34.1520 N.2   300  IM2300     -0.1271
     20  C1        10.7240   10.7870   37.2590 C.3   300  IM2300      0.0418
@<TRIPOS>BOND
     1    12    11   ar
     2    13    11   ar
     3    11     5    1
     4    18    19    2
     5    18    17    1
     6    17    16    1
     7     5     2    1
     8     5    10    2
     9     6     1    2
    10    14     2    1
    11    14    15    1
    12     2    20    1
    13    10     4    1
    14    16    15    1
    15     1     3    1
    16     3     4    1
    17     3     7    1
    18     4    20    1
    19     7     8    1
    20     7     9    1
