@<TRIPOS>MOLECULE
1jvp_LIG_P_1.pdb
 18 21 0 0 0
SMALL
GASTEIGER

@<TRIPOS>ATOM
      1  N1         1.8030   32.3060    7.3120 N.2   301  LIG301     -0.1480
      2  N3         0.6450   32.7880    7.8810 N.2   301  LIG301     -0.1480
      3  C4         0.1680   31.8990    8.6100 C.2   301  LIG301      0.1043
      4  C5         0.8640   30.8420    8.6180 C.2   301  LIG301      0.0388
      5  C6         1.9070   31.0640    7.8160 C.2   301  LIG301      0.1044
      6  C7         3.0170   30.0830    7.5160 C.ar  301  LIG301      0.0225
      7  C8         3.0440   28.8320    8.1300 C.ar  301  LIG301      0.0222
      8  C10        4.0860   27.9470    7.8380 C.ar  301  LIG301      0.0989
      9  N12        5.0630   28.2930    6.9650 N.ar  301  LIG301     -0.2423
     10  C13        5.0550   29.5040    6.3640 C.ar  301  LIG301      0.0989
     11  C15        4.0340   30.4220    6.6250 C.ar  301  LIG301      0.0222
     12  C17        0.3180   29.7090    9.5020 C.2   301  LIG301      0.0032
     13  C20       -0.9730   30.5370   10.0070 C.ar  301  LIG301      0.0016
     14  C21       -1.0230   31.8100    9.4680 C.ar  301  LIG301      0.0195
     15  C22       -2.0320   32.7270    9.7390 C.ar  301  LIG301      0.0016
     16  C24       -3.0390   32.3040   10.6240 C.ar  301  LIG301      0.0000
     17  C26       -3.0060   31.0070   11.1870 C.ar  301  LIG301      0.0000
     18  C28       -1.9670   30.1050   10.8820 C.ar  301  LIG301      0.0000
@<TRIPOS>BOND
     1    10    11   ar
     2    10     9   ar
     3    11     6   ar
     4     9     8   ar
     5     1     5    2
     6     1     2    1
     7     6     5    1
     8     6     7   ar
     9     5     4    1
    10     8     7   ar
    11     2     3    2
    12     3     4    1
    13     3    14    1
    14     4    12    2
    15    14    15   ar
    16    14    13   ar
    17    12    13    1
    18    15    16   ar
    19    13    18   ar
    20    16    17   ar
    21    18    17   ar
