@<TRIPOS>MOLECULE
1jvq_III_C_1.pdb
 47 46 0 0 0
SMALL
GASTEIGER

@<TRIPOS>ATOM
      1  C         15.5190    0.2230   -2.8710 C.2     1  ACE1        0.2423
      2  O         14.8690   -0.0950   -1.8660 O.2     1  ACE1       -0.2733
      3  CH3       14.8630    0.2210   -4.2520 C.3     1  ACE1        0.0964
      4  N         16.7310    0.7570   -2.7830 N.am    2  SER2       -0.1950
      5  CA        17.4330    0.7490   -1.5160 C.3     2  SER2        0.2054
      6  C         18.1140    2.0760   -1.3360 C.2     2  SER2        0.2643
      7  O         18.6050    2.6630   -2.3090 O.2     2  SER2       -0.2714
      8  CB        18.4920   -0.3560   -1.4790 C.3     2  SER2        0.2130
      9  OG        17.9300   -1.6180   -1.7480 O.3     2  SER2       -0.2179
     10  N         18.1140    2.5620   -0.0990 N.am    3  GLU3       -0.1963
     11  CA        18.7960    3.8030    0.2330 C.3     3  GLU3        0.1733
     12  C         19.7140    3.4710    1.4150 C.2     3  GLU3        0.2616
     13  O         19.2690    2.9140    2.4520 O.2     3  GLU3       -0.2715
     14  CB        17.8030    4.8870    0.6150 C.3     3  GLU3        0.0429
     15  CG        18.4540    6.2030    0.9730 C.3     3  GLU3        0.1163
     16  CD        17.4400    7.2870    1.2620 C.2     3  GLU3        0.3649
     17  OE1       16.2770    6.9440    1.5540 O.co2   3  GLU3       -0.2457
     18  OE2       17.8020    8.4750    1.2110 O.co2   3  GLU3       -0.2457
     19  N         20.9940    3.7860    1.2700 N.am    4  ALA4       -0.1963
     20  CA        21.9090    3.4670    2.3400 C.3     4  ALA4        0.1728
     21  C         22.9440    4.5490    2.5600 C.2     4  ALA4        0.2616
     22  O         23.3900    5.1950    1.6170 O.2     4  ALA4       -0.2715
     23  CB        22.6210    2.0600    2.0650 C.3     4  ALA4        0.0334
     24  N         23.3450    4.7030    3.8180 N.am    5  ALA5       -0.1963
     25  CA        24.3290    5.7000    4.2020 C.3     5  ALA5        0.1728
     26  C         25.0720    5.2680    5.4510 C.2     5  ALA5        0.2616
     27  O         24.5450    4.5520    6.3210 O.2     5  ALA5       -0.2715
     28  CB        23.6240    7.0350    4.4700 C.3     5  ALA5        0.0334
     29  N         26.3070    5.7170    5.5490 N.am    6  ALA6       -0.1963
     30  CA        27.1120    5.4160    6.7240 C.3     6  ALA6        0.1728
     31  C         28.1300    6.5160    6.9310 C.2     6  ALA6        0.2617
     32  O         28.4390    7.3020    6.0270 O.2     6  ALA6       -0.2715
     33  CB        27.8260    4.0530    6.5670 C.3     6  ALA6        0.0334
     34  N         28.6300    6.5880    8.1500 N.am    7  SER7       -0.1936
     35  CA        29.6590    7.5580    8.4720 C.3     7  SER7        0.2055
     36  C         30.5800    6.9300    9.4860 C.2     7  SER7        0.2644
     37  O         30.1320    6.2540   10.4160 O.2     7  SER7       -0.2714
     38  CB        29.0610    8.8380    9.0590 C.3     7  SER7        0.2130
     39  OG        30.0750    9.8160    9.2170 O.3     7  SER7       -0.2179
     40  N         31.8710    7.1230    9.2770 N.am    8  THR8       -0.1914
     41  CA        32.8650    6.6220   10.2020 C.3     8  THR8        0.2278
     42  C         33.7500    7.8150   10.5130 C.2     8  THR8        0.3868
     43  O         34.0540    8.5690    9.5630 O.co2   8  THR8       -0.2437
     44  CB        33.7280    5.5430    9.5810 C.3     8  THR8        0.1829
     45  OG1       32.8890    4.5260    9.0270 O.3     8  THR8       -0.2207
     46  CG2       34.6400    4.9310   10.6460 C.3     8  THR8        0.0380
     47  OXT       34.1330    7.9790   11.6890 O.co2   8  THR8       -0.2437
@<TRIPOS>BOND
     1     3     1    1
     2     1     4   am
     3     1     2    2
     4     4     5    1
     5     7     6    2
     6     9     8    1
     7     5     8    1
     8     5     6    1
     9     6    10   am
    10    10    11    1
    11    11    14    1
    12    11    12    1
    13    14    15    1
    14    15    16    1
    15    18    16   ar
    16    16    17   ar
    17    19    12   am
    18    19    20    1
    19    12    13    2
    20    22    21    2
    21    23    20    1
    22    20    21    1
    23    21    24   am
    24    24    25    1
    25    25    28    1
    26    25    26    1
    27    26    29   am
    28    26    27    2
    29    29    30    1
    30    32    31    2
    31    33    30    1
    32    30    31    1
    33    31    34   am
    34    34    35    1
    35    35    38    1
    36    35    36    1
    37    45    44    1
    38    38    39    1
    39    40    36   am
    40    40    41    1
    41    36    37    2
    42    43    42   ar
    43    44    41    1
    44    44    46    1
    45    41    42    1
    46    42    47   ar
