@<TRIPOS>MOLECULE
1jvs_NDP_A_1.pdb
 48 52 0 0 0
SMALL
GASTEIGER

@<TRIPOS>ATOM
      1  PA        13.8200   32.5630   70.2350 P.3   2001  NDP2001     0.2189
      2  O1A       14.2040   33.4670   71.3610 O.3   2001  NDP2001    -0.4371
      3  O2A       12.5200   31.9360   70.2780 O.2   2001  NDP2001    -0.5170
      4  O5B       15.0060   31.4400   70.0760 O.3   2001  NDP2001    -0.3112
      5  C5B       16.0960   31.3160   71.0230 C.3   2001  NDP2001     0.1813
      6  C4B       16.4440   29.8510   71.1870 C.3   2001  NDP2001     0.1820
      7  O4B       17.5360   29.7690   72.1170 O.3   2001  NDP2001    -0.3136
      8  C3B       15.3390   28.9920   71.7550 C.3   2001  NDP2001     0.2157
      9  O3B       15.3620   27.6980   71.1160 O.3   2001  NDP2001    -0.2175
     10  C2B       15.6810   28.9010   73.2210 C.3   2001  NDP2001     0.2314
     11  O2B       15.1790   27.6940   73.8520 O.3   2001  NDP2001    -0.2630
     12  C1B       17.1830   28.9060   73.2050 C.3   2001  NDP2001     0.3158
     13  N9A       17.8520   29.4400   74.4360 N.pl3 2001  NDP2001    -0.1439
     14  C8A       17.5970   30.6010   75.1570 C.3   2001  NDP2001     0.3377
     15  N7A       18.3910   30.7460   76.1860 N.2   2001  NDP2001    -0.2095
     16  C5A       19.2120   29.6400   76.1540 C.2   2001  NDP2001     0.2526
     17  C6A       20.2770   29.2100   76.9850 C.2   2001  NDP2001     0.4393
     18  N6A       20.6670   29.9100   78.0370 N.pl3 2001  NDP2001     0.2180
     19  N1A       20.9070   28.0370   76.6770 N.2   2001  NDP2001     0.0021
     20  C2A       20.5170   27.3120   75.6040 C.3   2001  NDP2001     0.5254
     21  N3A       19.5240   27.6430   74.7680 N.2   2001  NDP2001    -0.0055
     22  C4A       18.9050   28.8320   75.1020 C.2   2001  NDP2001     0.3518
     23  O3        14.0180   33.3820   68.8480 O.3   2001  NDP2001    -0.2703
     24  PN        14.9630   33.3650   67.5340 P.3   2001  NDP2001     0.2189
     25  O1N       14.4770   34.4730   66.6920 O.2   2001  NDP2001    -0.5170
     26  O2N       14.8090   31.9580   66.9770 O.3   2001  NDP2001    -0.4371
     27  O5D       16.5150   33.4640   67.9530 O.3   2001  NDP2001    -0.3112
     28  C5D       17.5350   33.4540   66.9170 C.3   2001  NDP2001     0.1813
     29  C4D       18.7590   34.3700   67.1630 C.3   2001  NDP2001     0.1799
     30  O4D       19.2080   34.8440   65.8930 O.3   2001  NDP2001    -0.3327
     31  C3D       18.5340   35.6710   67.9680 C.3   2001  NDP2001     0.2158
     32  O3D       19.7000   36.1040   68.7070 O.3   2001  NDP2001    -0.2175
     33  C2D       18.1010   36.7020   66.9400 C.3   2001  NDP2001     0.2309
     34  O2D       18.4480   38.0060   67.3590 O.3   2001  NDP2001    -0.2158
     35  C1D       18.8710   36.2190   65.6710 C.3   2001  NDP2001     0.2263
     36  N1N       18.0700   36.3310   64.4060 N.pl3 2001  NDP2001    -0.2787
     37  C2N       16.6560   36.1360   64.4850 C.3   2001  NDP2001     0.1244
     38  C3N       15.9080   36.2430   63.2510 C.2   2001  NDP2001     0.0544
     39  C7N       14.4490   36.0590   63.2180 C.2   2001  NDP2001     0.2818
     40  O7N       13.7960   36.1450   62.1680 O.2   2001  NDP2001    -0.2670
     41  N7N       13.7590   35.7880   64.3420 N.am  2001  NDP2001    -0.0839
     42  C4N       16.6070   36.5260   62.0590 C.2   2001  NDP2001     0.0033
     43  C5N       17.9490   36.7070   62.0060 C.2   2001  NDP2001     0.0157
     44  C6N       18.6840   36.6100   63.1720 C.2   2001  NDP2001     0.0633
     45  P2B       13.7750   27.6200   74.6300 P.3   2001  NDP2001     0.5328
     46  O1X       12.7310   28.3680   73.8840 O.2   2001  NDP2001    -0.2224
     47  O2X       13.6050   26.1680   74.6850 O.3   2001  NDP2001    -0.1145
     48  O3X       14.1070   28.1930   75.9370 O.3   2001  NDP2001    -0.1145
@<TRIPOS>BOND
     1    43    42    1
     2    43    44    2
     3    42    38    2
     4    40    39    2
     5    44    36    1
     6    39    38    1
     7    39    41   am
     8    38    37    1
     9    36    37    1
    10    36    35    1
    11    35    30    1
    12    35    33    1
    13    30    29    1
    14    25    24    2
    15    28    29    1
    16    28    27    1
    17    33    34    1
    18    33    31    1
    19    26    24    1
    20    29    31    1
    21    24    27    1
    22    24    23    1
    23    31    32    1
    24    23     1    1
    25     4     1    1
    26     4     5    1
    27     1     3    2
    28     1     2    1
    29     5     6    1
    30     9     8    1
    31     6     8    1
    32     6     7    1
    33     8    10    1
    34     7    12    1
    35    12    10    1
    36    12    13    1
    37    10    11    1
    38    11    45    1
    39    46    45    2
    40    13    22    1
    41    13    14    1
    42    45    47    1
    43    45    48    1
    44    21    22    2
    45    21    20    1
    46    22    16    1
    47    14    15    1
    48    20    19    1
    49    16    15    2
    50    16    17    1
    51    19    17    2
    52    17    18    1
