@<TRIPOS>MOLECULE
1jvu_C2P_A_1.pdb
 21 22 0 0 0
SMALL
GASTEIGER

@<TRIPOS>ATOM
      1  N1        36.2160    2.1250   24.7180 N.am  130  C2P130     -0.1779
      2  C2        35.0120    2.3330   25.4030 C.1   130  C2P130      0.2756
      3  N3        34.3660    3.5250   25.2700 N.2   130  C2P130     -0.3024
      4  C4        34.8690    4.4710   24.4650 C.2   130  C2P130      0.2346
      5  C5        36.0820    4.2620   23.7200 C.2   130  C2P130      0.0687
      6  C6        36.7150    3.0850   23.8760 C.2   130  C2P130      0.0836
      7  O2        34.5620    1.4140   26.1150 O.2   130  C2P130     -0.1925
      8  N4        34.2180    5.6240   24.3810 N.pl3 130  C2P130     -0.0921
      9  C1'       36.9380    0.8650   24.9360 C.3   130  C2P130      0.2373
     10  C2'       36.8240   -0.1360   23.7770 C.3   130  C2P130      0.2063
     11  O2'       36.7810   -1.3880   24.4620 O.3   130  C2P130     -0.2656
     12  C3'       38.0610    0.2430   22.9700 C.3   130  C2P130      0.2133
     13  C4'       39.0810    0.4720   24.0680 C.3   130  C2P130      0.1828
     14  O4'       38.3160    1.1710   25.0910 O.3   130  C2P130     -0.3319
     15  O3'       38.4990   -0.7380   22.0650 O.3   130  C2P130     -0.2176
     16  C5'       40.2670    1.2940   23.6540 C.3   130  C2P130      0.2142
     17  O5'       39.8320    2.4050   22.8510 O.3   130  C2P130     -0.2176
     18  P         36.5890   -2.7950   23.6530 P.3   130  C2P130      0.5327
     19  O1P       35.1020   -2.8510   23.4440 O.3   130  C2P130     -0.1145
     20  O2P       37.2900   -3.8970   24.3790 O.3   130  C2P130     -0.1145
     21  O3P       37.2640   -2.6330   22.2230 O.2   130  C2P130     -0.2224
@<TRIPOS>BOND
     1    15    12    1
     2    21    18    2
     3    17    16    1
     4    12    10    1
     5    12    13    1
     6    19    18    1
     7    18    20    1
     8    18    11    1
     9    16    13    1
    10     5     6    2
    11     5     4    1
    12    10    11    1
    13    10     9    1
    14     6     1    1
    15    13    14    1
    16     8     4    1
    17     4     3    2
    18     1     9    1
    19     1     2   am
    20     9    14    1
    21     3     2    2
    22     2     7    2
