@<TRIPOS>MOLECULE
1jvx_MAL_A_1.pdb
 23 24 0 0 0
SMALL
GASTEIGER

@<TRIPOS>ATOM
      1  C1        10.4390   15.4050   39.8300 C.3   703  MAL703      0.2695
      2  C2         9.9350   15.8410   41.1920 C.3   703  MAL703      0.2406
      3  C3         9.5740   17.3250   41.1030 C.3   703  MAL703      0.2198
      4  C4        10.8190   18.1370   40.6840 C.3   703  MAL703      0.2144
      5  C5        11.4440   17.5520   39.4090 C.3   703  MAL703      0.1835
      6  C6        12.8010   18.1270   39.0950 C.3   703  MAL703      0.2142
      7  O1         9.4460   15.6130   38.8660 O.3   703  MAL703     -0.3257
      8  O2         8.8170   15.0540   41.5950 O.3   703  MAL703     -0.2149
      9  O3         9.0830   17.7780   42.3520 O.3   703  MAL703     -0.2174
     10  O4        10.4770   19.5050   40.4640 O.3   703  MAL703     -0.2176
     11  O5        11.6190   16.1260   39.5310 O.3   703  MAL703     -0.3256
     12  O6        13.0680   18.0630   37.6960 O.3   703  MAL703     -0.2176
     13  C1'        7.4410   13.1230   36.1260 C.3   703  MAL703      0.3023
     14  C2'        7.5660   12.6110   37.5690 C.3   703  MAL703      0.2433
     15  C3'        8.0160   13.7030   38.5400 C.3   703  MAL703      0.2168
     16  C4'        9.1960   14.4930   37.9940 C.3   703  MAL703      0.1804
     17  C5'        8.9200   14.9810   36.5570 C.3   703  MAL703      0.1804
     18  C6'       10.1490   15.6630   35.9500 C.3   703  MAL703      0.2141
     19  O1'        6.3570   13.9570   36.0110 O.3   703  MAL703     -0.1869
     20  O2'        6.3160   12.1160   38.0160 O.3   703  MAL703     -0.2148
     21  O3'        8.3960   13.1120   39.7780 O.3   703  MAL703     -0.2175
     22  O5'        8.6130   13.8490   35.7130 O.3   703  MAL703     -0.3237
     23  O6'        9.8000   16.6910   35.0240 O.3   703  MAL703     -0.2176
@<TRIPOS>BOND
     1    23    18    1
     2    22    13    1
     3    22    17    1
     4    18    17    1
     5    19    13    1
     6    13    14    1
     7    17    16    1
     8    14    20    1
     9    14    15    1
    10    12     6    1
    11    16    15    1
    12    16     7    1
    13    15    21    1
    14     7     1    1
    15     6     5    1
    16     5    11    1
    17     5     4    1
    18    11     1    1
    19     1     2    1
    20    10     4    1
    21     4     3    1
    22     3     2    1
    23     3     9    1
    24     2     8    1
