@<TRIPOS>MOLECULE
1jvy_MAL_A_1.pdb
 23 24 0 0 0
SMALL
GASTEIGER

@<TRIPOS>ATOM
      1  C1        11.4140   15.2820   39.4010 C.3   703  MAL703      0.2695
      2  C2        10.8600   15.7360   40.7560 C.3   703  MAL703      0.2406
      3  C3        10.4860   17.2430   40.6270 C.3   703  MAL703      0.2198
      4  C4        11.6860   18.0790   40.2280 C.3   703  MAL703      0.2144
      5  C5        12.3130   17.5150   38.9500 C.3   703  MAL703      0.1835
      6  C6        13.6620   18.1780   38.6390 C.3   703  MAL703      0.2142
      7  O1        10.3920   15.4170   38.4460 O.3   703  MAL703     -0.3257
      8  O2         9.6960   14.9570   41.0730 O.3   703  MAL703     -0.2149
      9  O3         9.9560   17.7440   41.8590 O.3   703  MAL703     -0.2174
     10  O4        11.2600   19.4530   39.9980 O.3   703  MAL703     -0.2176
     11  O5        12.5610   16.0760   39.0660 O.3   703  MAL703     -0.3256
     12  O6        14.0620   17.9060   37.2930 O.3   703  MAL703     -0.2176
     13  C1'        8.6890   12.8770   35.5310 C.3   703  MAL703      0.3023
     14  C2'        8.7850   12.3270   36.9790 C.3   703  MAL703      0.2433
     15  C3'        9.0650   13.4470   37.9780 C.3   703  MAL703      0.2168
     16  C4'       10.2450   14.3200   37.5240 C.3   703  MAL703      0.1804
     17  C5'        9.9830   14.8670   36.1020 C.3   703  MAL703      0.1804
     18  C6'       11.2140   15.6510   35.5780 C.3   703  MAL703      0.2141
     19  O1'        7.4990   13.5500   35.3320 O.3   703  MAL703     -0.1869
     20  O2'        7.5610   11.6700   37.3610 O.3   703  MAL703     -0.2148
     21  O3'        9.3830   12.8650   39.2250 O.3   703  MAL703     -0.2175
     22  O5'        9.7940   13.7530   35.1950 O.3   703  MAL703     -0.3237
     23  O6'       10.9020   16.4850   34.4640 O.3   703  MAL703     -0.2176
@<TRIPOS>BOND
     1    23    18    1
     2    22    13    1
     3    22    17    1
     4    19    13    1
     5    13    14    1
     6    18    17    1
     7    17    16    1
     8    14    20    1
     9    14    15    1
    10    12     6    1
    11    16    15    1
    12    16     7    1
    13    15    21    1
    14     7     1    1
    15     6     5    1
    16     5    11    1
    17     5     4    1
    18    11     1    1
    19     1     2    1
    20    10     4    1
    21     4     3    1
    22     3     2    1
    23     3     9    1
    24     2     8    1
