@<TRIPOS>MOLECULE
1jvz_CEN_B_1.pdb
 26 27 0 0 0
SMALL
GASTEIGER

@<TRIPOS>ATOM
      1  S1        67.5720   13.8900   29.1280 S.3   999  CEN999     -0.1140
      2  C2        68.6590   14.5770   30.4310 C.3   999  CEN999      0.0862
      3  C3        69.6390   13.6220   31.1470 C.2   999  CEN999      0.0301
      4  C4        69.8630   12.3000   30.7550 C.2   999  CEN999      0.1314
      5  N5        69.1870   11.8700   29.5670 N.am  999  CEN999     -0.2420
      6  C6        68.7330   12.6970   28.4360 C.3   999  CEN999      0.1570
      7  C7        68.1410   11.4180   27.7470 C.3   999  CEN999      0.2002
      8  C8        68.6620   10.6700   29.0490 C.2   999  CEN999      0.2526
      9  O9        68.6160    9.5200   29.4400 O.2   999  CEN999     -0.2726
     10  C13       70.3280   14.3740   32.2660 C.3   999  CEN999      0.2331
     11  N14       66.6830   11.6070   27.7470 N.am  999  CEN999     -0.1951
     12  C15       65.9920   11.5390   26.5550 C.2   999  CEN999      0.2418
     13  O16       66.5460   11.3040   25.4740 O.2   999  CEN999     -0.2733
     14  C17       64.4840   11.7390   26.6530 C.3   999  CEN999      0.0874
     15  C1        72.2230   15.7150   32.7240 C.2   999  CEN999      0.3179
     16  O2        71.9740   16.8530   33.0520 O.2   999  CEN999     -0.2501
     17  O3        71.5260   15.0270   31.8030 O.3   999  CEN999     -0.4438
     18  C         73.3620   14.8420   33.2600 C.3   999  CEN999      0.1212
     19  C5        64.0180   13.1970   26.4980 C.3   999  CEN999      0.0214
     20  C9        62.4860   13.3970   26.6130 C.3   999  CEN999      0.1146
     21  C11       61.8470   13.0000   27.9480 C.2   999  CEN999      0.3649
     22  O         60.6280   13.1500   28.0470 O.co2 999  CEN999     -0.2457
     23  O1        62.5750   12.5660   28.8350 O.co2 999  CEN999     -0.2457
     24  C10       70.8320   11.3230   31.4390 C.2   999  CEN999      0.4007
     25  O4        71.8020   10.8990   30.7660 O.co2 999  CEN999     -0.2392
     26  O5        70.6170   11.0380   32.6410 O.co2 999  CEN999     -0.2392
@<TRIPOS>BOND
     1    13    12    2
     2    19    20    1
     3    19    14    1
     4    12    14    1
     5    12    11   am
     6    20    21    1
     7     7    11    1
     8     7     6    1
     9     7     8    1
    10    21    22   ar
    11    21    23   ar
    12     6     1    1
    13     6     5    1
    14     8     9    2
    15     8     5   am
    16     1     2    1
    17     5     4    1
    18     2     3    1
    19     4     3    2
    20     4    24    1
    21    25    24   ar
    22     3    10    1
    23    24    26   ar
    24    17    10    1
    25    17    15    1
    26    15    16    2
    27    15    18    1
