@<TRIPOS>MOLECULE
1jw5_GLC_A_1.pdb
 11 11 0 0 0
SMALL
GASTEIGER

@<TRIPOS>ATOM
      1  C1        -5.9610   -2.3370    3.4270 C.3   1001  GLC1001     0.3022
      2  C2        -4.5650   -2.4840    2.8060 C.3   1001  GLC1001     0.2409
      3  C3        -3.9000   -3.7750    3.2800 C.3   1001  GLC1001     0.1899
      4  C4        -3.8910   -3.8300    4.8090 C.3   1001  GLC1001     0.0681
      5  C5        -5.3260   -3.6620    5.3270 C.3   1001  GLC1001     0.1534
      6  C6        -5.4070   -3.6510    6.8400 C.3   1001  GLC1001     0.2116
      7  O1        -6.7910   -3.3550    2.9860 O.3   1001  GLC1001    -0.1869
      8  O2        -4.6660   -2.4960    1.3910 O.3   1001  GLC1001    -0.2149
      9  O3        -2.5680   -3.8380    2.7840 O.3   1001  GLC1001    -0.2201
     10  O5        -5.8810   -2.4110    4.8590 O.3   1001  GLC1001    -0.3263
     11  O6        -6.6340   -4.2060    7.2910 O.3   1001  GLC1001    -0.2177
@<TRIPOS>BOND
     1     8     2    1
     2     9     3    1
     3     2     3    1
     4     2     1    1
     5     7     1    1
     6     3     4    1
     7     1    10    1
     8     4     5    1
     9    10     5    1
    10     5     6    1
    11     6    11    1
