@<TRIPOS>MOLECULE
1jw8_HEM_A_1.pdb
 43 50 0 0 0
SMALL
GASTEIGER

@<TRIPOS>ATOM
      1  CHA       37.4400    2.3370   11.4400 C.2   155  HEM155      0.0000
      2  CHB       36.7010    5.2950    7.7070 C.2   155  HEM155      0.0000
      3  CHC       32.1640    5.9850    9.1380 C.2   155  HEM155      0.0000
      4  CHD       32.8800    3.0330   12.8770 C.2   155  HEM155      0.0000
      5  C1A       37.6480    3.0700   10.2700 C.ar  155  HEM155      0.0000
      6  C2A       38.8670    3.0770    9.4980 C.ar  155  HEM155      0.0000
      7  C3A       38.6780    3.9210    8.4670 C.ar  155  HEM155      0.0000
      8  C4A       37.3220    4.4240    8.5940 C.ar  155  HEM155      0.0000
      9  CMA       39.6310    4.2780    7.3270 C.3   155  HEM155      0.0000
     10  CAA       40.0810    2.1900    9.7980 C.3   155  HEM155      0.0000
     11  CBA       40.1850    0.9600    8.8510 C.3   155  HEM155      0.0000
     12  CGA       38.9100    0.1420    8.8520 C.2   155  HEM155      0.0000
     13  O1A       38.6500   -0.5030    9.9110 O.co2 155  HEM155      0.0000
     14  O2A       38.2020    0.1460    7.8250 O.co2 155  HEM155      0.0000
     15  C1B       35.3830    5.7230    7.7290 C.2   155  HEM155      0.0000
     16  C2B       34.7970    6.6420    6.7830 C.2   155  HEM155      0.0000
     17  C3B       33.5270    6.8560    7.1910 C.2   155  HEM155      0.0000
     18  C4B       33.3290    6.0610    8.3850 C.2   155  HEM155      0.0000
     19  CMB       35.5250    7.1940    5.5570 C.3   155  HEM155      0.0000
     20  CAB       32.4740    7.6890    6.6490 C.3   155  HEM155      0.0000
     21  CBB       32.7340    8.9270    6.0520 C.3   155  HEM155      0.0000
     22  C1C       31.9660    5.2950   10.3340 C.ar  155  HEM155      0.0000
     23  C2C       30.8110    5.4390   11.1840 C.ar  155  HEM155      0.0000
     24  C3C       30.9910    4.5940   12.2430 C.ar  155  HEM155      0.0000
     25  C4C       32.2750    3.9580   12.0310 C.ar  155  HEM155      0.0000
     26  CMC       29.6420    6.3880   10.9100 C.3   155  HEM155      0.0000
     27  CAC       30.2660    4.3400   13.4700 C.3   155  HEM155      0.0000
     28  CBC       29.0080    4.9390   13.7710 C.3   155  HEM155      0.0000
     29  C1D       34.1830    2.5410   12.8000 C.2   155  HEM155      0.0000
     30  C2D       34.8060    1.7140   13.8000 C.2   155  HEM155      0.0000
     31  C3D       36.1010    1.5840   13.4390 C.2   155  HEM155      0.0000
     32  C4D       36.2620    2.2710   12.1830 C.2   155  HEM155      0.0000
     33  CMD       34.0870    1.1640   15.0280 C.3   155  HEM155      0.0000
     34  CAD       37.2390    0.9270   14.2430 C.3   155  HEM155      0.0000
     35  CBD       37.9410    1.9460   15.1590 C.3   155  HEM155      0.0000
     36  CGD       39.0590    1.3710   16.0030 C.2   155  HEM155      0.0000
     37  O1D       38.8060    1.0650   17.1620 O.co2 155  HEM155      0.0000
     38  O2D       40.1710    1.2800   15.4560 O.co2 155  HEM155      0.0000
     39  NA        36.6850    3.8980    9.7120 N.ar  155  HEM155      0.0000
     40  NB        34.4830    5.3550    8.7160 N.2   155  HEM155      0.0000
     41  NC        32.8670    4.3720   10.8380 N.ar  155  HEM155      0.0000
     42  ND        35.0760    2.8880   11.7920 N.2   155  HEM155      0.0000
     43 FE         34.7830    4.1400   10.2490 Fe    155  HEM155      0.0000
@<TRIPOS>BOND
     1    19    16    1
     2    21    20    1
     3    20    17    1
     4    16    17    2
     5    16    15    1
     6    17    18    1
     7     9     7    1
     8     2    15    1
     9     2     8    2
    10    15    40    2
    11    14    12   ar
    12    18    40    1
    13    18     3    2
    14     7     8   ar
    15     7     6   ar
    16     8    39   ar
    17    40    43    1
    18    11    12    1
    19    11    10    1
    20    12    13   ar
    21     3    22    1
    22     6    10    1
    23     6     5   ar
    24    39    43    1
    25    39     5   ar
    26    43    41    1
    27    43    42    1
    28     5     1    2
    29    22    41   ar
    30    22    23   ar
    31    41    25   ar
    32    26    23    1
    33    23    24   ar
    34     1    32    1
    35    42    32    2
    36    42    29    1
    37    25    24   ar
    38    25     4    1
    39    32    31    1
    40    24    27    1
    41    29     4    2
    42    29    30    1
    43    31    30    2
    44    31    34    1
    45    27    28    1
    46    30    33    1
    47    34    35    1
    48    35    36    1
    49    38    36   ar
    50    36    37   ar
