@<TRIPOS>MOLECULE
1jwa_ATP_B_1.pdb
 31 33 0 0 0
SMALL
GASTEIGER

@<TRIPOS>ATOM
      1  PG        38.8620   21.6300   13.3910 P.3   250  ATP250      0.5373
      2  O1G       38.0060   20.5450   13.0350 O.3   250  ATP250     -0.1143
      3  O2G       40.3450   21.6210   12.9130 O.2   250  ATP250     -0.2221
      4  O3G       37.9990   22.7650   12.9670 O.3   250  ATP250     -0.1143
      5  PB        38.4790   20.8690   16.2210 P.3   250  ATP250      0.2277
      6  O1B       37.0710   20.4330   16.2980 O.2   250  ATP250     -0.5168
      7  O2B       39.4080   20.0190   17.0000 O.3   250  ATP250     -0.4368
      8  O3B       39.0030   21.7510   14.9830 O.3   250  ATP250     -0.2258
      9  PA        37.4110   22.9990   17.7470 P.3   250  ATP250      0.2189
     10  O1A       37.8250   23.8140   18.8080 O.3   250  ATP250     -0.4371
     11  O2A       36.1160   23.3590   16.9910 O.2   250  ATP250     -0.5170
     12  O3A       38.6210   22.2070   17.0840 O.3   250  ATP250     -0.2700
     13  O5'       36.9500   21.7760   18.5370 O.3   250  ATP250     -0.3112
     14  C5'       37.0050   21.7730   19.8980 C.3   250  ATP250      0.1813
     15  C4'       36.7850   20.3610   20.4360 C.3   250  ATP250      0.1821
     16  O4'       35.5700   19.8940   20.9410 O.3   250  ATP250     -0.3135
     17  C3'       37.4000   19.2310   19.5630 C.3   250  ATP250      0.2184
     18  O3'       38.7760   19.0590   19.7400 O.3   250  ATP250     -0.2174
     19  C2'       36.2890   18.2330   19.6010 C.3   250  ATP250      0.2570
     20  O2'       36.9110   16.9980   19.6060 O.3   250  ATP250     -0.2130
     21  C1'       35.5990   18.5090   20.9160 C.3   250  ATP250      0.3186
     22  N9        34.2530   17.8900   21.1330 N.pl3 250  ATP250     -0.1439
     23  C8        33.1100   18.0430   20.3990 C.3   250  ATP250      0.3377
     24  N7        32.1140   17.3290   20.9300 N.2   250  ATP250     -0.2095
     25  C5        32.5980   16.7040   22.0170 C.2   250  ATP250      0.2526
     26  C6        32.0110   15.8240   22.9260 C.2   250  ATP250      0.4393
     27  N6        30.8220   15.2650   22.7530 N.pl3 250  ATP250      0.2180
     28  N1        32.7860   15.3510   23.9360 N.2   250  ATP250      0.0021
     29  C2        34.1000   15.7170   24.0660 C.3   250  ATP250      0.5254
     30  N3        34.6580   16.5770   23.1720 N.2   250  ATP250     -0.0055
     31  C4        33.9270   17.0590   22.1600 C.2   250  ATP250      0.3518
@<TRIPOS>BOND
     1     3     1    2
     2     4     1    1
     3     2     1    1
     4     1     8    1
     5     8     5    1
     6     5     6    2
     7     5     7    1
     8     5    12    1
     9    11     9    2
    10    12     9    1
    11     9    13    1
    12     9    10    1
    13    13    14    1
    14    17    19    1
    15    17    18    1
    16    17    15    1
    17    19    20    1
    18    19    21    1
    19    14    15    1
    20    23    24    1
    21    23    22    1
    22    15    16    1
    23    21    16    1
    24    21    22    1
    25    24    25    2
    26    22    31    1
    27    25    31    1
    28    25    26    1
    29    31    30    2
    30    27    26    1
    31    26    28    2
    32    30    29    1
    33    28    29    1
