@<TRIPOS>MOLECULE
1jwb_AMP_D_1.pdb
 23 25 0 0 0
SMALL
GASTEIGER

@<TRIPOS>ATOM
      1  P         36.6520   22.7650   17.8030 P.3    82  AMP82       0.5327
      2  O1P       35.5800   23.7280   17.8940 O.3    82  AMP82      -0.1145
      3  O2P       36.3010   21.8760   16.6100 O.2    82  AMP82      -0.2224
      4  O3P       37.9480   23.5760   17.6990 O.3    82  AMP82      -0.1145
      5  O5'       36.5640   22.0020   19.2040 O.3    82  AMP82      -0.2675
      6  C5'       35.4080   21.2990   19.5870 C.3    82  AMP82       0.1860
      7  C4'       35.9050   19.9950   20.1700 C.3    82  AMP82       0.1823
      8  O4'       34.7360   19.4690   20.6780 O.3    82  AMP82      -0.3135
      9  C3'       36.4510   18.9510   19.2250 C.3    82  AMP82       0.2184
     10  O3'       37.7790   18.7290   19.4610 O.3    82  AMP82      -0.2174
     11  C2'       35.3630   17.9160   19.0660 C.3    82  AMP82       0.2570
     12  O2'       35.9520   16.6430   18.8630 O.3    82  AMP82      -0.2130
     13  C1'       34.7320   18.0950   20.4310 C.3    82  AMP82       0.3186
     14  N9        33.3970   17.4960   20.5550 N.pl3  82  AMP82      -0.1439
     15  C8        32.3060   17.6820   19.7870 C.3    82  AMP82       0.3377
     16  N7        31.3220   16.9020   20.2750 N.2    82  AMP82      -0.2095
     17  C5        31.8010   16.2100   21.3380 C.2    82  AMP82       0.2526
     18  C6        31.2250   15.2590   22.1660 C.2    82  AMP82       0.4393
     19  N6        29.9690   14.8750   21.9850 N.pl3  82  AMP82       0.2180
     20  N1        31.9880   14.7610   23.1900 N.2    82  AMP82       0.0021
     21  C2        33.3200   15.1690   23.3550 C.3    82  AMP82       0.5254
     22  N3        33.8750   16.0920   22.5040 N.2    82  AMP82      -0.0055
     23  C4        33.1030   16.5950   21.5280 C.2    82  AMP82       0.3518
@<TRIPOS>BOND
     1     3     1    2
     2     4     1    1
     3     1     2    1
     4     1     5    1
     5    12    11    1
     6    11     9    1
     7    11    13    1
     8     5     6    1
     9     9    10    1
    10     9     7    1
    11     6     7    1
    12    15    16    1
    13    15    14    1
    14     7     8    1
    15    16    17    2
    16    13    14    1
    17    13     8    1
    18    14    23    1
    19    17    23    1
    20    17    18    1
    21    23    22    2
    22    19    18    1
    23    18    20    2
    24    22    21    1
    25    20    21    1
