@<TRIPOS>MOLECULE
1jwg_III_D_1.pdb
 43 43 0 0 0
SMALL
GASTEIGER

@<TRIPOS>ATOM
      1  N         20.2500   12.0660   66.9730 N.3     9  ASP9       -0.1225
      2  CA        21.5380   11.3290   67.0470 C.3     9  ASP9        0.1805
      3  C         21.3120    9.9570   66.4680 C.2     9  ASP9        0.2598
      4  O         21.9570    9.5730   65.4950 O.2     9  ASP9       -0.2718
      5  CB        21.9910   11.1840   68.4930 C.3     9  ASP9        0.1424
      6  CG        23.4690   11.3810   68.6590 C.2     9  ASP9        0.3668
      7  OD1       24.1780   11.4210   67.6390 O.co2   9  ASP9       -0.2456
      8  OD2       24.0150   11.5330   69.7750 O.co2   9  ASP9       -0.2456
      9  N         20.3830    9.2200   67.0640 N.am   10  LEU10      -0.1966
     10  CA        20.0890    7.8780   66.5910 C.3    10  LEU10       0.1728
     11  C         19.7930    7.9070   65.0970 C.2    10  LEU10       0.2616
     12  O         19.1140    8.8190   64.6040 O.2    10  LEU10      -0.2715
     13  CB        18.9420    7.2390   67.3680 C.3    10  LEU10       0.0311
     14  CG        18.5590    5.8400   66.8720 C.3    10  LEU10       0.0022
     15  CD1       19.6780    4.8260   67.1010 C.3    10  LEU10       0.0001
     16  CD2       17.3100    5.3550   67.5290 C.3    10  LEU10       0.0001
     17  N         20.3150    6.9050   64.3880 N.am   11  LEU11      -0.1963
     18  CA        20.2160    6.8280   62.9380 C.3    11  LEU11       0.1728
     19  C         18.7840    6.7060   62.4340 C.2    11  LEU11       0.2616
     20  O         18.0050    5.9080   62.9380 O.2    11  LEU11      -0.2715
     21  CB        20.9900    5.6130   62.4390 C.3    11  LEU11       0.0311
     22  CG        21.9450    5.7700   61.2490 C.3    11  LEU11       0.0022
     23  CD1       21.8900    4.5310   60.3670 C.3    11  LEU11       0.0001
     24  CD2       21.6740    7.0180   60.4430 C.3    11  LEU11       0.0001
     25  N         18.4560    7.4790   61.4050 N.am   12  HIS12      -0.1959
     26  CA        17.1280    7.3980   60.8060 C.3    12  HIS12       0.1784
     27  C         17.0020    6.2010   59.8660 C.2    12  HIS12       0.2621
     28  O         17.7020    6.1000   58.8690 O.2    12  HIS12      -0.2715
     29  CB        16.7740    8.6890   60.0650 C.3    12  HIS12       0.0745
     30  CG        15.4290    8.6600   59.4110 C.2    12  HIS12       0.0653
     31  ND1       15.0410    9.5890   58.4700 N.2    12  HIS12      -0.2310
     32  CD2       14.3730    7.8290   59.5760 C.3    12  HIS12       0.1683
     33  CE1       13.8080    9.3270   58.0780 C.2    12  HIS12       0.1939
     34  NE2       13.3850    8.2570   58.7250 N.2    12  HIS12      -0.2440
     35  N         16.0830    5.3180   60.2210 N.am   13  ILE13      -0.1941
     36  CA        15.7070    4.0970   59.4890 C.3    13  ILE13       0.1977
     37  C         16.7660    3.0130   59.2670 C.2    13  ILE13       0.3842
     38  O         17.6380    3.1390   58.4040 O.co2  13  ILE13      -0.2437
     39  CB        14.8410    4.3690   58.2060 C.3    13  ILE13       0.0311
     40  CG1       14.6480    3.0700   57.4170 C.3    13  ILE13       0.0023
     41  CG2       15.4350    5.4700   57.3080 C.3    13  ILE13       0.0023
     42  CD1       14.0280    3.2650   56.0070 C.3    13  ILE13       0.0001
     43  OXT       16.7020    1.9920   59.9660 O.co2  13  ILE13      -0.2437
@<TRIPOS>BOND
     1    42    40    1
     2    41    39    1
     3    40    39    1
     4    33    31    1
     5    33    34    2
     6    39    36    1
     7    38    37   ar
     8    31    30    2
     9    34    32    1
    10    28    27    2
    11    37    36    1
    12    37    43   ar
    13    30    32    1
    14    30    29    1
    15    36    35    1
    16    27    35   am
    17    27    26    1
    18    29    26    1
    19    23    22    1
    20    24    22    1
    21    26    25    1
    22    22    21    1
    23    25    19   am
    24    19    20    2
    25    19    18    1
    26    21    18    1
    27    18    17    1
    28    17    11   am
    29    12    11    2
    30    11    10    1
    31     4     3    2
    32     3     2    1
    33     3     9   am
    34    10     9    1
    35    10    13    1
    36    14    15    1
    37    14    13    1
    38    14    16    1
    39     1     2    1
    40     2     5    1
    41     7     6   ar
    42     5     6    1
    43     6     8   ar
