@<TRIPOS>MOLECULE
1jwh_ANP_A_1.pdb
 31 33 0 0 0
SMALL
GASTEIGER

@<TRIPOS>ATOM
      1  PG        -3.9240   54.3860  -52.3200 P.3   340  ANP340      0.4884
      2  O1G       -5.0920   54.6380  -51.4870 O.3   340  ANP340     -0.1240
      3  O2G       -2.9140   55.5370  -52.0040 O.2   340  ANP340     -0.2331
      4  O3G       -3.2380   53.1380  -51.9890 O.3   340  ANP340     -0.1240
      5  PB        -4.3130   53.5310  -55.1910 P.3   340  ANP340      0.4669
      6  O1B       -4.0910   52.2500  -54.5750 O.3   340  ANP340     -0.1253
      7  O2B       -5.6030   53.4960  -55.9570 O.2   340  ANP340     -0.2351
      8  N3B       -4.0850   54.4820  -53.8960 N.3   340  ANP340     -0.0163
      9  PA        -2.2240   54.8730  -56.8530 P.3   340  ANP340      0.2220
     10  O1A       -1.9200   54.5540  -58.2530 O.2   340  ANP340     -0.5170
     11  O2A       -3.0210   56.0440  -56.6890 O.3   340  ANP340     -0.4370
     12  O3A       -3.1070   53.9630  -55.9600 O.3   340  ANP340     -0.2360
     13  O5'       -0.8840   55.0450  -56.0090 O.3   340  ANP340     -0.3111
     14  C5'       -0.5530   56.2380  -55.2580 C.3   340  ANP340      0.1813
     15  C4'        0.3840   56.0890  -54.1100 C.3   340  ANP340      0.1821
     16  O4'        1.7010   55.9450  -54.7260 O.3   340  ANP340     -0.3135
     17  C3'        0.4710   57.3150  -53.1770 C.3   340  ANP340      0.2184
     18  O3'       -0.5430   57.1910  -52.1190 O.3   340  ANP340     -0.2174
     19  C2'        1.9780   57.2650  -52.8340 C.3   340  ANP340      0.2570
     20  O2'        2.4260   56.5630  -51.6660 O.3   340  ANP340     -0.2130
     21  C1'        2.6710   56.7270  -54.1240 C.3   340  ANP340      0.3186
     22  N9         3.1050   57.8980  -55.0240 N.pl3 340  ANP340     -0.1439
     23  C8         2.5000   58.2820  -56.2270 C.3   340  ANP340      0.3377
     24  N7         2.9850   59.2820  -56.8800 N.2   340  ANP340     -0.2095
     25  C5         4.0170   59.6100  -56.1290 C.2   340  ANP340      0.2526
     26  C6         4.9530   60.6720  -56.3290 C.2   340  ANP340      0.4393
     27  N6         4.9420   61.4950  -57.3770 N.pl3 340  ANP340      0.2180
     28  N1         5.9840   60.8350  -55.3720 N.2   340  ANP340      0.0021
     29  C2         6.0690   59.9910  -54.2300 C.3   340  ANP340      0.5254
     30  N3         5.1860   58.9730  -53.9850 N.2   340  ANP340     -0.0055
     31  C4         4.1770   58.8080  -54.9540 C.2   340  ANP340      0.3518
@<TRIPOS>BOND
     1    10     9    2
     2    27    26    1
     3    24    23    1
     4    24    25    2
     5     9    11    1
     6     9    13    1
     7     9    12    1
     8    26    25    1
     9    26    28    2
    10    23    22    1
    11    25    31    1
    12    13    14    1
    13    12     5    1
    14     7     5    2
    15    28    29    1
    16    14    15    1
    17     5     6    1
    18     5     8    1
    19    22    31    1
    20    22    21    1
    21    31    30    2
    22    16    21    1
    23    16    15    1
    24    29    30    1
    25    21    19    1
    26    15    17    1
    27     8     1    1
    28    17    19    1
    29    17    18    1
    30    19    20    1
    31     1     3    2
    32     1     4    1
    33     1     2    1
