@<TRIPOS>MOLECULE
1jwj_HEM_A_1.pdb
 43 50 0 0 0
SMALL
GASTEIGER

@<TRIPOS>ATOM
      1  CHA      121.8160  110.4750   30.9850 C.2   801  HEM801      0.0000
      2  CHB      122.7620  114.4890   28.4020 C.2   801  HEM801      0.0000
      3  CHC      127.0760  112.6580   27.4080 C.2   801  HEM801      0.0000
      4  CHD      125.8860  108.4880   29.4880 C.2   801  HEM801      0.0000
      5  C1A      121.7370  111.7780   30.4780 C.ar  801  HEM801      0.0000
      6  C2A      120.6610  112.7440   30.7690 C.ar  801  HEM801      0.0000
      7  C3A      120.9170  113.8440   29.9890 C.ar  801  HEM801      0.0000
      8  C4A      122.1440  113.5820   29.2640 C.ar  801  HEM801      0.0000
      9  CMA      120.0430  115.0760   29.8050 C.3   801  HEM801      0.0000
     10  CAA      119.5440  112.5480   31.7590 C.3   801  HEM801      0.0000
     11  CBA      120.0820  112.8370   33.1460 C.3   801  HEM801      0.0000
     12  CGA      119.0250  112.7050   34.2330 C.2   801  HEM801      0.0000
     13  O1A      119.2420  111.9220   35.1810 O.co2 801  HEM801      0.0000
     14  O2A      117.9770  113.3820   34.1390 O.co2 801  HEM801      0.0000
     15  C1B      123.9850  114.2980   27.7600 C.2   801  HEM801      0.0000
     16  C2B      124.7260  115.3590   27.0830 C.2   801  HEM801      0.0000
     17  C3B      125.9580  114.8890   26.8100 C.2   801  HEM801      0.0000
     18  C4B      125.9760  113.5000   27.3440 C.2   801  HEM801      0.0000
     19  CMB      124.2910  116.8070   26.8340 C.3   801  HEM801      0.0000
     20  CAB      126.9530  115.6980   26.2540 C.3   801  HEM801      0.0000
     21  CBB      128.1290  115.3320   25.6100 C.3   801  HEM801      0.0000
     22  C1C      127.1410  111.3820   27.9200 C.ar  801  HEM801      0.0000
     23  C2C      128.3730  110.5840   28.0290 C.ar  801  HEM801      0.0000
     24  C3C      128.0170  109.3490   28.5600 C.ar  801  HEM801      0.0000
     25  C4C      126.5750  109.4450   28.7790 C.ar  801  HEM801      0.0000
     26  CMC      129.7360  111.1270   27.6490 C.3   801  HEM801      0.0000
     27  CAC      128.7740  108.2290   28.9240 C.3   801  HEM801      0.0000
     28  CBC      129.9490  107.7440   28.3490 C.3   801  HEM801      0.0000
     29  C1D      124.6390  108.6040   30.0290 C.2   801  HEM801      0.0000
     30  C2D      123.9720  107.6030   30.8450 C.2   801  HEM801      0.0000
     31  C3D      122.8600  108.1770   31.2770 C.2   801  HEM801      0.0000
     32  C4D      122.8060  109.5310   30.7400 C.2   801  HEM801      0.0000
     33  CMD      124.3620  106.1880   31.1780 C.3   801  HEM801      0.0000
     34  CAD      121.8430  107.5370   32.1380 C.3   801  HEM801      0.0000
     35  CBD      122.0730  108.0540   33.5340 C.3   801  HEM801      0.0000
     36  CGD      120.9430  107.7000   34.4590 C.2   801  HEM801      0.0000
     37  O1D      120.8660  108.2760   35.5620 O.co2 801  HEM801      0.0000
     38  O2D      120.1150  106.8500   34.0780 O.co2 801  HEM801      0.0000
     39  NA       122.6290  112.3130   29.5930 N.ar  801  HEM801      0.0000
     40  NB       124.7520  113.1650   27.8840 N.2   801  HEM801      0.0000
     41  NC       126.0720  110.6720   28.3960 N.ar  801  HEM801      0.0000
     42  ND       123.9060  109.7580   29.9640 N.2   801  HEM801      0.0000
     43 FE        124.1940  111.3590   28.7490 Fe    801  HEM801      0.0000
@<TRIPOS>BOND
     1    21    20    1
     2    20    17    1
     3    17    16    2
     4    17    18    1
     5    19    16    1
     6    16    15    1
     7    18     3    2
     8    18    40    1
     9     3    22    1
    10    26    23    1
    11    15    40    2
    12    15     2    1
    13    40    43    1
    14    22    23   ar
    15    22    41   ar
    16    23    24   ar
    17    28    27    1
    18    41    43    1
    19    41    25   ar
    20     2     8    2
    21    24    25   ar
    22    24    27    1
    23    43    39    1
    24    43    42    1
    25    25     4    1
    26     8    39   ar
    27     8     7   ar
    28     4    29    2
    29    39     5   ar
    30     9     7    1
    31    42    29    1
    32    42    32    2
    33     7     6   ar
    34    29    30    1
    35     5     6   ar
    36     5     1    2
    37    32     1    1
    38    32    31    1
    39     6    10    1
    40    30    33    1
    41    30    31    2
    42    31    34    1
    43    10    11    1
    44    34    35    1
    45    11    12    1
    46    35    36    1
    47    38    36   ar
    48    14    12   ar
    49    12    13   ar
    50    36    37   ar
