@<TRIPOS>MOLECULE
1jwj_H4B_A_1.pdb
 17 18 0 0 0
SMALL
GASTEIGER

@<TRIPOS>ATOM
      1  N1       113.6060  111.9350   32.8660 N.2   802  H4B802     -0.2672
      2  C2       114.8770  112.2990   33.0540 C.1   802  H4B802      0.2609
      3  N2       115.5930  112.7090   32.0200 N.pl3 802  H4B802     -0.0220
      4  N3       115.4470  112.2660   34.2630 N.2   802  H4B802     -0.2466
      5  C4       114.7620  111.8570   35.3330 C.1   802  H4B802      0.2569
      6  O4       115.2740  111.8040   36.4560 O.2   802  H4B802     -0.2052
      7  C4A      113.4100  111.4580   35.1990 C.2   802  H4B802      0.2989
      8  C8A      112.8510  111.5190   33.8890 C.1   802  H4B802      0.1401
      9  N5       112.6910  110.9930   36.2380 N.2   802  H4B802     -0.3830
     10  N8       111.5580  111.1890   33.6830 N.2   802  H4B802     -0.1992
     11  C6       111.4020  110.3360   35.9420 C.2   802  H4B802      0.1466
     12  C7       110.7270  110.8360   34.7580 C.3   802  H4B802      0.1940
     13  C9       110.5970  109.9260   37.2010 C.3   802  H4B802      0.2313
     14  O9       109.9020  111.0560   37.7000 O.3   802  H4B802     -0.2130
     15  C10      109.5740  108.8210   36.8610 C.3   802  H4B802      0.1888
     16  C11      108.7700  108.4100   38.0890 C.3   802  H4B802      0.0387
     17  O10      110.2680  107.6690   36.3480 O.3   802  H4B802     -0.2200
@<TRIPOS>BOND
     1     3     2    1
     2     1     2    2
     3     1     8    2
     4     2     4    2
     5    10     8    2
     6    10    12    1
     7     8     7    1
     8     4     5    2
     9    12    11    1
    10     7     5    1
    11     7     9    2
    12     5     6    2
    13    11     9    2
    14    11    13    1
    15    17    15    1
    16    15    13    1
    17    15    16    1
    18    13    14    1
