@<TRIPOS>MOLECULE
1jwk_HEM_A_1.pdb
 43 50 0 0 0
SMALL
GASTEIGER

@<TRIPOS>ATOM
      1  CHA      121.7910  110.3540   30.5470 C.2   801  HEM801      0.0000
      2  CHB      122.9130  114.4480   28.1950 C.2   801  HEM801      0.0000
      3  CHC      127.1660  112.6020   27.1800 C.2   801  HEM801      0.0000
      4  CHD      125.9050  108.4210   29.1170 C.2   801  HEM801      0.0000
      5  C1A      121.7600  111.6680   30.0800 C.ar  801  HEM801      0.0000
      6  C2A      120.7390  112.6250   30.3950 C.ar  801  HEM801      0.0000
      7  C3A      121.0220  113.7790   29.7500 C.ar  801  HEM801      0.0000
      8  C4A      122.2600  113.5280   29.0270 C.ar  801  HEM801      0.0000
      9  CMA      120.1710  115.0570   29.7390 C.3   801  HEM801      0.0000
     10  CAA      119.6200  112.4030   31.3750 C.3   801  HEM801      0.0000
     11  CBA      120.1020  112.7280   32.7790 C.3   801  HEM801      0.0000
     12  CGA      119.0290  112.4770   33.8110 C.2   801  HEM801      0.0000
     13  O1A      119.1810  111.5350   34.6130 O.co2 801  HEM801      0.0000
     14  O2A      118.0210  113.2080   33.8060 O.co2 801  HEM801      0.0000
     15  C1B      124.1150  114.2540   27.5420 C.2   801  HEM801      0.0000
     16  C2B      124.8200  115.2980   26.8630 C.2   801  HEM801      0.0000
     17  C3B      126.0530  114.8200   26.5560 C.2   801  HEM801      0.0000
     18  C4B      126.0690  113.4370   27.0910 C.2   801  HEM801      0.0000
     19  CMB      124.3000  116.6900   26.5450 C.3   801  HEM801      0.0000
     20  CAB      127.0380  115.6050   25.9380 C.3   801  HEM801      0.0000
     21  CBB      128.0830  115.2190   25.1200 C.3   801  HEM801      0.0000
     22  C1C      127.2250  111.3230   27.7120 C.ar  801  HEM801      0.0000
     23  C2C      128.4170  110.5290   27.7660 C.ar  801  HEM801      0.0000
     24  C3C      128.0420  109.3030   28.2350 C.ar  801  HEM801      0.0000
     25  C4C      126.6270  109.4110   28.4760 C.ar  801  HEM801      0.0000
     26  CMC      129.7900  111.0780   27.3990 C.3   801  HEM801      0.0000
     27  CAC      128.7680  108.1550   28.5190 C.3   801  HEM801      0.0000
     28  CBC      130.0160  107.8050   28.0130 C.3   801  HEM801      0.0000
     29  C1D      124.6370  108.5370   29.6160 C.2   801  HEM801      0.0000
     30  C2D      123.9560  107.5420   30.4260 C.2   801  HEM801      0.0000
     31  C3D      122.8270  108.1040   30.8650 C.2   801  HEM801      0.0000
     32  C4D      122.7890  109.4210   30.3060 C.2   801  HEM801      0.0000
     33  CMD      124.3780  106.1170   30.7250 C.3   801  HEM801      0.0000
     34  CAD      121.8310  107.5040   31.8340 C.3   801  HEM801      0.0000
     35  CBD      122.1460  107.9080   33.2610 C.3   801  HEM801      0.0000
     36  CGD      121.0630  107.5110   34.2370 C.2   801  HEM801      0.0000
     37  O1D      121.0960  107.9830   35.3890 O.co2 801  HEM801      0.0000
     38  O2D      120.1630  106.7390   33.8600 O.co2 801  HEM801      0.0000
     39  NA       122.7040  112.2400   29.2650 N.ar  801  HEM801      0.0000
     40  NB       124.8680  113.1140   27.6380 N.2   801  HEM801      0.0000
     41  NC       126.1570  110.6380   28.1670 N.ar  801  HEM801      0.0000
     42  ND       123.9110  109.6640   29.5430 N.2   801  HEM801      0.0000
     43 FE        124.2760  111.3290   28.4030 Fe    801  HEM801      0.0000
@<TRIPOS>BOND
     1    21    20    1
     2    20    17    1
     3    19    16    1
     4    17    16    2
     5    17    18    1
     6    16    15    1
     7    18     3    2
     8    18    40    1
     9     3    22    1
    10    26    23    1
    11    15    40    2
    12    15     2    1
    13    40    43    1
    14    22    23   ar
    15    22    41   ar
    16    23    24   ar
    17    28    27    1
    18    41    43    1
    19    41    25   ar
    20     2     8    2
    21    24    25   ar
    22    24    27    1
    23    43    39    1
    24    43    42    1
    25    25     4    1
    26     8    39   ar
    27     8     7   ar
    28     4    29    2
    29    39     5   ar
    30    42    29    1
    31    42    32    2
    32    29    30    1
    33     9     7    1
    34     7     6   ar
    35     5     6   ar
    36     5     1    2
    37    32     1    1
    38    32    31    1
    39     6    10    1
    40    30    33    1
    41    30    31    2
    42    31    34    1
    43    10    11    1
    44    34    35    1
    45    11    12    1
    46    35    36    1
    47    14    12   ar
    48    12    13   ar
    49    38    36   ar
    50    36    37   ar
