@<TRIPOS>MOLECULE
1jwk_HBI_A_1.pdb
 17 18 0 0 0
SMALL
GASTEIGER

@<TRIPOS>ATOM
      1  N1       113.6750  111.8090   32.5500 N.2   802  HBI802     -0.2672
      2  N2       115.7150  112.4950   31.7120 N.pl3 802  HBI802     -0.0220
      3  C2       114.9570  112.1610   32.7510 C.1   802  HBI802      0.2609
      4  N3       115.4950  112.1890   33.9830 N.2   802  HBI802     -0.2466
      5  C4       114.7700  111.8570   35.0580 C.1   802  HBI802      0.2569
      6  O4       115.2420  111.8590   36.2060 O.2   802  HBI802     -0.2052
      7  C4A      113.4210  111.4800   34.9120 C.2   802  HBI802      0.2989
      8  C8A      112.8870  111.4700   33.5820 C.1   802  HBI802      0.1401
      9  N8       111.5910  111.1520   33.3690 N.2   802  HBI802     -0.1992
     10  C7       110.7360  110.8830   34.4500 C.3   802  HBI802      0.1940
     11  C6       111.3860  110.4540   35.6910 C.2   802  HBI802      0.1466
     12  N5       112.6800  111.0990   35.9670 N.2   802  HBI802     -0.3830
     13  C9       110.5630  110.1460   36.9610 C.3   802  HBI802      0.2313
     14  O9       109.8780  111.3210   37.3580 O.3   802  HBI802     -0.2130
     15  C10      109.5310  109.0290   36.6960 C.3   802  HBI802      0.1888
     16  O10      110.2140  107.8360   36.2810 O.3   802  HBI802     -0.2200
     17  C11      108.7100  108.7220   37.9440 C.3   802  HBI802      0.0387
@<TRIPOS>BOND
     1     2     3    1
     2     1     3    2
     3     1     8    2
     4     3     4    2
     5     9     8    2
     6     9    10    1
     7     8     7    1
     8     4     5    2
     9    10    11    1
    10     7     5    1
    11     7    12    2
    12     5     6    2
    13    11    12    2
    14    11    13    1
    15    16    15    1
    16    15    13    1
    17    15    17    1
    18    13    14    1
