@<TRIPOS>MOLECULE
1jwl_NPF_A_1.pdb
 20 21 0 0 0
SMALL
GASTEIGER

@<TRIPOS>ATOM
      1  C1       -13.5920   89.2980   32.9610 C.ar  334  NPF334      0.1637
      2  C2       -12.7840   90.4690   32.7780 C.ar  334  NPF334      0.0387
      3  C3       -11.5090   90.6350   33.3430 C.ar  334  NPF334      0.0032
      4  C4       -10.9800   89.6050   34.1460 C.ar  334  NPF334      0.0019
      5  C5       -11.7750   88.4870   34.4480 C.ar  334  NPF334      0.0272
      6  C6       -13.0850   88.3460   33.8930 C.ar  334  NPF334      0.1766
      7  N6       -13.9070   87.2990   34.3630 N.pl3 334  NPF334      0.0607
      8  O6A      -14.9370   86.9310   33.8270 O.2   334  NPF334     -0.1260
      9  O6B      -13.5150   86.5730   35.2490 O.2   334  NPF334     -0.1260
     10  O1'      -14.3370   88.7470   31.8210 O.3   334  NPF334     -0.4488
     11  C1'      -15.7630   88.9000   31.6000 C.3   334  NPF334      0.3218
     12  C2'      -15.9560   90.1790   30.7490 C.3   334  NPF334      0.2541
     13  O2'      -16.2140   91.2940   31.6100 O.3   334  NPF334     -0.2135
     14  C3'      -17.0140   90.1750   29.6660 C.3   334  NPF334      0.2210
     15  O3'      -16.7220   91.3010   28.8040 O.3   334  NPF334     -0.2173
     16  C4'      -16.8620   88.8810   28.9000 C.3   334  NPF334      0.2119
     17  O4'      -15.5270   88.9610   28.3340 O.3   334  NPF334     -0.2177
     18  C5'      -17.1410   87.6890   29.8590 C.3   334  NPF334      0.1519
     19  C6'      -17.0340   86.3640   29.1330 C.3   334  NPF334      0.0350
     20  O5'      -16.2480   87.6590   31.0080 O.3   334  NPF334     -0.3184
@<TRIPOS>BOND
     1    17    16    1
     2    15    14    1
     3    16    14    1
     4    16    18    1
     5    19    18    1
     6    14    12    1
     7    18    20    1
     8    12    11    1
     9    12    13    1
    10    20    11    1
    11    11    10    1
    12    10     1    1
    13     2     1   ar
    14     2     3   ar
    15     1     6   ar
    16     3     4   ar
    17     8     7    2
    18     6     7    1
    19     6     5   ar
    20     4     5   ar
    21     7     9    2
