@<TRIPOS>MOLECULE
1jwn_HEM_A_1.pdb
 43 50 0 0 0
SMALL
GASTEIGER

@<TRIPOS>ATOM
      1 FE         29.7600   -1.4380   12.5120 Fe    147  HEM147      0.0000
      2  CHA       28.2140    0.4840   14.9660 C.2   147  HEM147      0.0000
      3  CHB       32.7140   -1.1830   14.2940 C.2   147  HEM147      0.0000
      4  CHC       31.3510   -3.2760   10.0810 C.2   147  HEM147      0.0000
      5  CHD       26.8430   -1.4420   10.7160 C.2   147  HEM147      0.0000
      6  NA        30.3230   -0.5970   14.2890 N.2   147  HEM147      0.0000
      7  C1A       29.5240    0.0780   15.2060 C.2   147  HEM147      0.0000
      8  C2A       30.2620    0.3930   16.4070 C.2   147  HEM147      0.0000
      9  C3A       31.5320   -0.0220   16.2070 C.2   147  HEM147      0.0000
     10  C4A       31.5820   -0.6170   14.8800 C.2   147  HEM147      0.0000
     11  CMA       32.6580    0.0950   17.2310 C.3   147  HEM147      0.0000
     12  CAA       29.7500    1.0900   17.6680 C.3   147  HEM147      0.0000
     13  CBA       29.1650    0.2340   18.7850 C.3   147  HEM147      0.0000
     14  CGA       27.9470   -0.5540   18.3460 C.2   147  HEM147      0.0000
     15  O1A       28.1020   -1.7370   17.9790 O.co2 147  HEM147      0.0000
     16  O2A       26.8330    0.0090   18.3550 O.co2 147  HEM147      0.0000
     17  NB        31.6420   -2.1200   12.2520 N.ar  147  HEM147      0.0000
     18  C1B       32.7380   -1.9000   13.0850 C.ar  147  HEM147      0.0000
     19  C2B       33.9180   -2.5540   12.5560 C.ar  147  HEM147      0.0000
     20  C3B       33.5680   -3.1580   11.3740 C.ar  147  HEM147      0.0000
     21  C4B       32.1350   -2.8750   11.1870 C.ar  147  HEM147      0.0000
     22  CMB       35.2610   -2.5920   13.2770 C.3   147  HEM147      0.0000
     23  CAB       34.3740   -3.8960   10.5010 C.3   147  HEM147      0.0000
     24  CBB       35.7710   -4.2600   10.6650 C.3   147  HEM147      0.0000
     25  NC        29.1910   -2.2530   10.7740 N.2   147  HEM147      0.0000
     26  C1C       29.9770   -2.9840    9.8940 C.2   147  HEM147      0.0000
     27  C2C       29.2000   -3.3470    8.7240 C.2   147  HEM147      0.0000
     28  C3C       27.9580   -2.7910    8.8720 C.2   147  HEM147      0.0000
     29  C4C       27.9460   -2.1410   10.1730 C.2   147  HEM147      0.0000
     30  CMC       29.6890   -4.1900    7.5460 C.3   147  HEM147      0.0000
     31  CAC       26.9190   -2.7310    7.9310 C.3   147  HEM147      0.0000
     32  CBC       26.4470   -3.8170    7.1250 C.3   147  HEM147      0.0000
     33  ND        27.9330   -0.6220   12.7720 N.ar  147  HEM147      0.0000
     34  C1D       26.8640   -0.6850   11.8960 C.ar  147  HEM147      0.0000
     35  C2D       25.8120    0.2290   12.3260 C.ar  147  HEM147      0.0000
     36  C3D       26.1990    0.7840   13.4950 C.ar  147  HEM147      0.0000
     37  C4D       27.5000    0.2110   13.8000 C.ar  147  HEM147      0.0000
     38  CMD       24.5560    0.6040   11.5510 C.3   147  HEM147      0.0000
     39  CAD       25.4800    1.8950   14.2620 C.3   147  HEM147      0.0000
     40  CBD       25.7600    3.2800   13.6860 C.3   147  HEM147      0.0000
     41  CGD       25.0800    4.3890   14.4690 C.2   147  HEM147      0.0000
     42  O1D       23.8370    4.3660   14.5750 O.co2 147  HEM147      0.0000
     43  O2D       25.7870    5.2850   14.9800 O.co2 147  HEM147      0.0000
@<TRIPOS>BOND
     1    32    31    1
     2    30    27    1
     3    31    28    1
     4    27    28    2
     5    27    26    1
     6    28    29    1
     7    26     4    2
     8    26    25    1
     9     4    21    1
    10    29     5    1
    11    29    25    2
    12    23    24    1
    13    23    20    1
    14     5    34    2
    15    25     1    1
    16    21    20   ar
    17    21    17   ar
    18    20    19   ar
    19    38    35    1
    20    34    35   ar
    21    34    33   ar
    22    17     1    1
    23    17    18   ar
    24    35    36   ar
    25     1    33    1
    26     1     6    1
    27    19    18   ar
    28    19    22    1
    29    33    37   ar
    30    18     3    1
    31    36    37   ar
    32    36    39    1
    33    40    39    1
    34    40    41    1
    35    37     2    2
    36     6    10    1
    37     6     7    2
    38     3    10    2
    39    41    42   ar
    40    41    43   ar
    41    10     9    1
    42     2     7    1
    43     7     8    1
    44     9     8    2
    45     9    11    1
    46     8    12    1
    47    12    13    1
    48    15    14   ar
    49    14    16   ar
    50    14    13    1
