@<TRIPOS>MOLECULE
1jwt_BLI_A_1.pdb
 34 37 0 0 0
SMALL
GASTEIGER

@<TRIPOS>ATOM
      1  N1        17.7350  -13.9960   22.2350 N.am  300  BLI300     -0.2720
      2  C1        18.8210  -14.6480   21.5290 C.3   300  BLI300      0.0935
      3  C2        19.7850  -15.3630   22.4630 C.3   300  BLI300      0.1157
      4  N3        19.0680  -16.2000   23.4190 N.3   300  BLI300     -0.1481
      5  C4        17.6270  -15.9660   23.5790 C.3   300  BLI300      0.1802
      6  C5        17.1710  -14.5240   23.3250 C.2   300  BLI300      0.2440
      7  O11       16.3340  -13.9400   24.0230 O.2   300  BLI300     -0.2733
      8  C01       17.1860  -12.8340   21.5380 C.3   300  BLI300      0.1535
      9  C09       15.6420  -12.9580   21.2390 C.2   300  BLI300      0.2595
     10  O09       15.0830  -14.0220   21.4130 O.2   300  BLI300     -0.2716
     11  N10       14.9840  -11.8570   20.8010 N.am  300  BLI300     -0.2040
     12  C03       18.0920  -12.7750   20.2820 C.3   300  BLI300      0.0310
     13  C06       19.3810  -13.5080   20.6810 C.3   300  BLI300      0.0235
     14  S1        19.6420  -17.7900   23.8030 S.O2  300  BLI300      0.0486
     15  O2        19.9080  -18.4020   22.5110 O.2   300  BLI300     -0.1569
     16  C02       21.2350  -17.5760   24.6220 C.3   300  BLI300      0.1955
     17  O1        18.6420  -18.3240   24.6480 O.2   300  BLI300     -0.1569
     18  C1'       13.5690  -11.9310   20.4640 C.3   300  BLI300      0.1154
     19  C2'       12.8440  -11.9540   21.7800 C.3   300  BLI300      0.0282
     20  C3'       11.9430  -10.7470   21.9030 C.3   300  BLI300      0.0424
     21  C7'       11.3780  -10.7110   23.3130 C.3   300  BLI300      0.1678
     22  C4'       12.0540  -13.2410   21.9710 C.3   300  BLI300      0.0424
     23  C5'       11.4820  -13.2180   23.3890 C.3   300  BLI300      0.1678
     24  N1'       10.7820  -11.9750   23.7580 N.pl3 300  BLI300     -0.1890
     25  C6'       10.4520  -11.8810   25.1140 C.2   300  BLI300      0.4888
     26  N2'        9.8710  -12.8690   25.6700 N.2   300  BLI300      0.1291
     27  N3'       10.6950  -10.8010   25.8880 N.4   300  BLI300      0.1084
     28  O3'       10.3130   -9.4370   25.6980 O.3   300  BLI300      0.0292
     29  C6B       21.2170  -16.4670   25.6310 C.ar  300  BLI300      0.0029
     30  C1B       22.1830  -15.4710   25.6220 C.ar  300  BLI300     -0.0025
     31  C2B       21.9100  -14.2860   26.2620 C.ar  300  BLI300     -0.0003
     32  C3B       20.7220  -14.1480   26.9540 C.ar  300  BLI300     -0.0000
     33  C4B       19.8590  -15.2210   27.1250 C.ar  300  BLI300     -0.0003
     34  C5B       20.1350  -16.4010   26.4960 C.ar  300  BLI300     -0.0025
@<TRIPOS>BOND
     1    12    13    1
     2    12     8    1
     3    18    11    1
     4    18    19    1
     5    13     2    1
     6    11     9   am
     7     9    10    2
     8     9     8    1
     9     2     1    1
    10     2     3    1
    11     8     1    1
    12    19    20    1
    13    19    22    1
    14    20    21    1
    15    22    23    1
    16     1     6   am
    17     3     4    1
    18    15    14    2
    19    21    24    1
    20     6     5    1
    21     6     7    2
    22    23    24    1
    23     4     5    1
    24     4    14    1
    25    24    25    1
    26    14    16    1
    27    14    17    2
    28    16    29    1
    29    25    26    2
    30    25    27    1
    31    30    29   ar
    32    30    31   ar
    33    29    34   ar
    34    28    27    1
    35    31    32   ar
    36    34    33   ar
    37    32    33   ar
