@<TRIPOS>MOLECULE
1jwv_CB4_A_1.pdb
 22 22 0 0 0
SMALL
GASTEIGER

@<TRIPOS>ATOM
      1  B         10.4440    7.4240   36.3550 B     300  CB4300      0.0000
      2  OB1       11.3460    6.9540   35.2810 O.3   300  CB4300      0.0000
      3  OB2        9.5460    8.4570   35.8150 O.3   300  CB4300      0.0000
      4  C7        11.2870    8.0300   37.5100 C.3   300  CB4300      0.0000
      5  N10       12.2280    8.9720   36.9310 N.am  300  CB4300      0.0000
      6  C11       12.9860    9.7430   37.6890 C.2   300  CB4300      0.0000
      7  O12       12.9320    9.7030   38.9230 O.2   300  CB4300      0.0000
      8  C13       13.9440   10.6810   37.0170 C.2   300  CB4300      0.0000
      9  N16       13.6150   11.8770   36.5250 N.2   300  CB4300      0.0000
     10  O17       12.3320   12.2350   36.8140 O.2   300  CB4300      0.0000
     11  C18       12.1690   13.6790   36.7410 C.3   300  CB4300      0.0000
     12  C14       15.3670   10.3480   36.8580 C.2   300  CB4300      0.0000
     13  C15       15.9860    9.3050   37.5140 C.3   300  CB4300      0.0000
     14  S16       17.6670    9.1660   37.1610 S.3   300  CB4300      0.0000
     15  C17       17.5450   10.4790   36.1050 C.2   300  CB4300      0.0000
     16  N18       18.5650   10.9720   35.3460 N.pl3 300  CB4300      0.0000
     17  N19       16.3250   10.9620   36.0810 N.2   300  CB4300      0.0000
     18  C19       13.0680   14.3680   37.7850 C.3   300  CB4300      0.0000
     19  C20       10.7030   14.0220   37.0540 C.3   300  CB4300      0.0000
     20  C21       12.4960   14.2040   35.3140 C.2   300  CB4300      0.0000
     21  O2A       12.7470   15.4260   35.1700 O.co2 300  CB4300      0.0000
     22  O2B       12.4790   13.3860   34.3650 O.co2 300  CB4300      0.0000
@<TRIPOS>BOND
     1    22    20   ar
     2    21    20   ar
     3     2     1    1
     4    20    11    1
     5    16    15    1
     6     3     1    1
     7    17    15    2
     8    17    12    2
     9    15    14    1
    10     1     4    1
    11     9    10    1
    12     9     8    2
    13    11    10    1
    14    11    19    1
    15    11    18    1
    16    12     8    1
    17    12    13    1
    18     5     4    1
    19     5     6   am
    20     8     6    1
    21    14    13    1
    22     6     7    2
