@<TRIPOS>MOLECULE
1jwy_ADP_A_1.pdb
 27 29 0 0 0
SMALL
GASTEIGER

@<TRIPOS>ATOM
      1  PB       -59.2760  -61.5830   62.5680 P.3   801  ADP801      0.5373
      2  O1B      -59.5130  -61.4490   61.1090 O.2   801  ADP801     -0.2221
      3  O2B      -60.3020  -62.3050   63.2660 O.3   801  ADP801     -0.1143
      4  O3B      -57.9160  -62.2340   62.8650 O.3   801  ADP801     -0.1143
      5  PA       -60.2120  -59.6040   64.4940 P.3   801  ADP801      0.2231
      6  O1A      -61.6390  -59.6430   64.0750 O.2   801  ADP801     -0.5169
      7  O2A      -59.9240  -60.2510   65.7640 O.3   801  ADP801     -0.4370
      8  O3A      -59.3440  -60.1650   63.2610 O.3   801  ADP801     -0.2261
      9  O5'      -59.8540  -58.0520   64.5950 O.3   801  ADP801     -0.3111
     10  C5'      -58.5640  -57.6860   65.1640 C.3   801  ADP801      0.1813
     11  C4'      -58.7360  -56.3960   65.9140 C.3   801  ADP801      0.1821
     12  O4'      -59.1540  -55.5030   64.9020 O.3   801  ADP801     -0.3135
     13  C3'      -59.9140  -56.3760   66.8400 C.3   801  ADP801      0.2184
     14  O3'      -59.8680  -57.1360   68.0320 O.3   801  ADP801     -0.2174
     15  C2'      -60.1890  -54.9160   66.9360 C.3   801  ADP801      0.2570
     16  O2'      -59.2740  -54.2020   67.8120 O.3   801  ADP801     -0.2130
     17  C1'      -60.0550  -54.5560   65.4860 C.3   801  ADP801      0.3186
     18  N9       -61.3040  -54.5760   64.6970 N.pl3 801  ADP801     -0.1439
     19  C8       -61.6090  -55.3510   63.6260 C.3   801  ADP801      0.3377
     20  N7       -62.7080  -55.0260   63.0560 N.2   801  ADP801     -0.2095
     21  C5       -63.1690  -53.9700   63.8020 C.2   801  ADP801      0.2526
     22  C6       -64.3480  -53.1900   63.6860 C.2   801  ADP801      0.4393
     23  N6       -65.1570  -53.3480   62.6580 N.pl3 801  ADP801      0.2180
     24  N1       -64.5560  -52.1690   64.6280 N.2   801  ADP801      0.0021
     25  C2       -63.6020  -51.9970   65.6390 C.3   801  ADP801      0.5254
     26  N3       -62.4600  -52.6960   65.8050 N.2   801  ADP801     -0.0055
     27  C4       -62.3320  -53.6980   64.8460 C.2   801  ADP801      0.3518
@<TRIPOS>BOND
     1     2     1    2
     2     1     4    1
     3     1     8    1
     4     1     3    1
     5    23    22    1
     6    20    19    1
     7    20    21    2
     8     8     5    1
     9    19    18    1
    10    22    21    1
    11    22    24    2
    12    21    27    1
    13     6     5    2
    14     5     9    1
    15     5     7    1
    16     9    10    1
    17    24    25    1
    18    18    27    1
    19    18    17    1
    20    27    26    2
    21    12    17    1
    22    12    11    1
    23    10    11    1
    24    17    15    1
    25    25    26    1
    26    11    13    1
    27    13    15    1
    28    13    14    1
    29    15    16    1
