@<TRIPOS>MOLECULE
1jwy_GDP_B_1.pdb
 28 30 0 0 0
SMALL
GASTEIGER

@<TRIPOS>ATOM
      1  PB      -102.3860  -17.6700    7.6760 P.3   901  GDP901      0.5373
      2  O1B     -102.0940  -17.1310    9.0780 O.3   901  GDP901     -0.1143
      3  O2B     -103.6700  -18.3570    7.5660 O.3   901  GDP901     -0.1143
      4  O3B     -101.2200  -18.6740    7.1820 O.2   901  GDP901     -0.2221
      5  O3A     -102.4240  -16.5250    6.5610 O.3   901  GDP901     -0.2261
      6  PA      -101.5410  -16.2790    5.1460 P.3   901  GDP901      0.2231
      7  O1A     -101.5980  -17.6100    4.3710 O.2   901  GDP901     -0.5169
      8  O2A     -100.1600  -15.6420    5.4290 O.3   901  GDP901     -0.4370
      9  O5'     -102.4500  -15.3080    4.4630 O.3   901  GDP901     -0.3111
     10  C5'     -103.7010  -15.6590    3.9130 C.3   901  GDP901      0.1813
     11  C4'     -104.0740  -14.7880    2.8030 C.3   901  GDP901      0.1799
     12  O4'     -104.0260  -13.3580    3.2150 O.3   901  GDP901     -0.3326
     13  C3'     -103.1790  -14.8560    1.5690 C.3   901  GDP901      0.2158
     14  O3'     -103.9610  -14.8790    0.4020 O.3   901  GDP901     -0.2175
     15  C2'     -102.2750  -13.6510    1.7050 C.3   901  GDP901      0.2310
     16  O2'     -101.8110  -13.2140    0.4090 O.3   901  GDP901     -0.2158
     17  C1'     -103.2140  -12.6120    2.3410 C.3   901  GDP901      0.2293
     18  N9      -102.4730  -11.6120    3.1330 N.pl3 901  GDP901     -0.2354
     19  C8      -101.7690  -11.8000    4.3160 C.3   901  GDP901      0.2246
     20  N7      -101.2130  -10.6960    4.7790 N.2   901  GDP901     -0.2322
     21  C5      -101.5820   -9.7060    3.8700 C.2   901  GDP901      0.2182
     22  C6      -101.2750   -8.3960    3.8310 C.1   901  GDP901      0.2372
     23  O6      -100.6010   -7.7430    4.6840 O.2   901  GDP901     -0.2069
     24  N1      -101.8230   -7.6920    2.7380 N.2   901  GDP901     -0.2485
     25  C2      -102.5770   -8.2600    1.7420 C.1   901  GDP901      0.2531
     26  N2      -103.0110   -7.4090    0.7500 N.pl3 901  GDP901     -0.0226
     27  N3      -102.9030   -9.6040    1.7280 N.2   901  GDP901     -0.3074
     28  C4      -102.3610  -10.2670    2.8160 C.2   901  GDP901      0.2300
@<TRIPOS>BOND
     1    14    13    1
     2    16    15    1
     3    26    25    1
     4    13    15    1
     5    13    11    1
     6    15    17    1
     7    27    25    2
     8    27    28    2
     9    25    24    2
    10    17    18    1
    11    17    12    1
    12    24    22    2
    13    11    12    1
    14    11    10    1
    15    28    18    1
    16    28    21    1
    17    18    19    1
    18    22    21    1
    19    22    23    2
    20    21    20    2
    21    10     9    1
    22    19    20    1
    23     7     6    2
    24     9     6    1
    25     6     8    1
    26     6     5    1
    27     5     1    1
    28     4     1    2
    29     3     1    1
    30     1     2    1
