@<TRIPOS>MOLECULE
1jwy_III_C_1.pdb
 37 36 0 0 0
SMALL
GASTEIGER

@<TRIPOS>ATOM
      1  N        -73.4740  -29.0300   26.0700 N.3   777  THR777     -0.1203
      2  CA       -73.7000  -28.2050   27.2540 C.3   777  THR777      0.1994
      3  C        -72.5900  -27.1770   27.4410 C.2   777  THR777      0.2618
      4  O        -72.7540  -26.2050   28.1710 O.2   777  THR777     -0.2717
      5  CB       -73.7640  -29.0370   28.5490 C.3   777  THR777      0.1784
      6  OG1      -72.5880  -29.8470   28.6590 O.3   777  THR777     -0.2211
      7  CG2      -74.9980  -29.9000   28.5720 C.3   777  THR777      0.0376
      8  N        -71.4530  -27.4040   26.7960 N.am  778  ARG778     -0.1965
      9  CA       -70.3340  -26.4850   26.9130 C.3   778  ARG778      0.1729
     10  C        -70.7230  -25.0700   26.4510 C.2   778  ARG778      0.2617
     11  O        -70.2890  -24.0790   27.0410 O.2   778  ARG778     -0.2715
     12  CB       -69.1510  -27.0080   26.0950 C.3   778  ARG778      0.0348
     13  CG       -69.5070  -27.3380   24.6680 C.3   778  ARG778      0.0492
     14  CD       -68.2880  -27.7540   23.8650 C.3   778  ARG778      0.2205
     15  NE       -67.5790  -28.8720   24.4770 N.pl3 778  ARG778     -0.0865
     16  CZ       -66.5050  -29.4530   23.9510 C.cat 778  ARG778      0.5346
     17  NH1      -66.0160  -29.0190   22.7970 N.pl3 778  ARG778      0.1354
     18  NH2      -65.9180  -30.4650   24.5800 N.pl3 778  ARG778      0.1354
     19  N        -71.5520  -24.9880   25.4100 N.am  779  GLY779     -0.1940
     20  CA       -71.9760  -23.6970   24.8910 C.3   779  GLY779      0.2014
     21  C        -72.8760  -22.9050   25.8270 C.2   779  GLY779      0.2639
     22  O        -73.1730  -21.7320   25.5840 O.2   779  GLY779     -0.2714
     23  N        -73.3220  -23.5530   26.8950 N.am  780  LEU780     -0.1963
     24  CA       -74.1730  -22.9120   27.8820 C.3   780  LEU780      0.1728
     25  C        -73.4000  -21.9460   28.7800 C.2   780  LEU780      0.2616
     26  O        -73.8440  -21.6330   29.8860 O.2   780  LEU780     -0.2715
     27  CB       -74.8510  -23.9710   28.7480 C.3   780  LEU780      0.0311
     28  CG       -75.9930  -24.7320   28.0870 C.3   780  LEU780      0.0022
     29  CD1      -76.2500  -26.0210   28.8410 C.3   780  LEU780      0.0001
     30  CD2      -77.2390  -23.8500   28.0680 C.3   780  LEU780      0.0001
     31  N        -72.2440  -21.4830   28.3100 N.am  781  VAL781     -0.1977
     32  CA       -71.4290  -20.5400   29.0740 C.3   781  VAL781      0.1596
     33  C        -71.8500  -19.1020   28.7800 C.2   781  VAL781      0.2287
     34  O        -72.9700  -18.6970   29.0900 O.2   781  VAL781     -0.2864
     35  CB       -69.9260  -20.6700   28.7370 C.3   781  VAL781      0.0276
     36  CG1      -69.3780  -21.9880   29.2670 C.3   781  VAL781      0.0022
     37  CG2      -69.7270  -20.5690   27.2310 C.3   781  VAL781      0.0022
@<TRIPOS>BOND
     1    17    16    1
     2    14    15    1
     3    14    13    1
     4    16    15    2
     5    16    18    1
     6    13    12    1
     7    20    19    1
     8    20    21    1
     9    19    10   am
    10    22    21    2
    11    21    23   am
    12     1     2    1
    13    12     9    1
    14    10     9    1
    15    10    11    2
    16     8     9    1
    17     8     3   am
    18    23    24    1
    19    37    35    1
    20     2     3    1
    21     2     5    1
    22     3     4    2
    23    24    27    1
    24    24    25    1
    25    30    28    1
    26    28    27    1
    27    28    29    1
    28    31    25   am
    29    31    32    1
    30     5     7    1
    31     5     6    1
    32    35    32    1
    33    35    36    1
    34    25    26    2
    35    33    32    1
    36    33    34    2
