@<TRIPOS>MOLECULE
1jwy_BGC_A_1.pdb
 12 12 0 0 0
SMALL
GASTEIGER

@<TRIPOS>ATOM
      1  C2       -61.6710  -84.7180   49.6590 C.3   803  BGC803      0.2434
      2  C3       -61.7460  -84.6980   48.1370 C.3   803  BGC803      0.2199
      3  C4       -61.0540  -85.9690   47.6130 C.3   803  BGC803      0.2144
      4  C5       -61.7830  -87.2130   48.1580 C.3   803  BGC803      0.1836
      5  C6       -61.1260  -88.5100   47.7060 C.3   803  BGC803      0.2142
      6  C1       -62.4060  -85.9850   50.1540 C.3   803  BGC803      0.3024
      7  O1       -62.3550  -86.0550   51.5260 O.3   803  BGC803     -0.1869
      8  O2       -62.2960  -83.5440   50.1810 O.3   803  BGC803     -0.2148
      9  O3       -61.0810  -83.5460   47.6590 O.3   803  BGC803     -0.2174
     10  O4       -61.0970  -86.0150   46.1690 O.3   803  BGC803     -0.2176
     11  O5       -61.7820  -87.1850   49.6180 O.3   803  BGC803     -0.3236
     12  O6       -59.7350  -88.5370   48.0490 O.3   803  BGC803     -0.2176
@<TRIPOS>BOND
     1    10     3    1
     2     3     2    1
     3     3     4    1
     4     9     2    1
     5     5    12    1
     6     5     4    1
     7     2     1    1
     8     4    11    1
     9    11     6    1
    10     1     6    1
    11     1     8    1
    12     6     7    1
