@<TRIPOS>MOLECULE
1jwz_105_A_1.pdb
 20 21 0 0 0
SMALL
GASTEIGER

@<TRIPOS>ATOM
      1  B         20.7570    2.6060   34.5030 B     300  105300      0.0000
      2  O1        21.7010    2.2710   33.4140 O.3   300  105300      0.0000
      3  O2        19.5260    3.1590   33.9220 O.3   300  105300      0.0000
      4  C3        21.3990    3.6450   35.4930 C.3   300  105300      0.0000
      5  N4        22.3480    4.5710   34.8700 N.am  300  105300      0.0000
      6  C5        21.9630    5.5170   34.0150 C.2   300  105300      0.0000
      7  O6        20.7720    5.6200   33.6920 O.2   300  105300      0.0000
      8  C7        23.0040    6.4930   33.4230 C.ar  300  105300      0.0000
      9  N11       23.8600    8.3970   32.5630 N.ar  300  105300      0.0000
     10  O10       24.9450    7.3450   32.6150 O.2   300  105300      0.0000
     11  C8        24.2700    6.2920   33.1510 C.ar  300  105300      0.0000
     12  C12       22.7730    7.8450   33.0520 C.ar  300  105300      0.0000
     13  C9        24.9690    4.9940   33.4170 C.3   300  105300      0.0000
     14  C13       21.4670    8.5770   33.1910 C.ar  300  105300      0.0000
     15  C14       20.7590    9.0290   32.0300 C.ar  300  105300      0.0000
     16 CL1        21.4120    8.7630   30.4460 Cl    300  105300      0.0000
     17  C15       19.5170    9.7060   32.1680 C.ar  300  105300      0.0000
     18  C16       18.9730    9.9410   33.4590 C.ar  300  105300      0.0000
     19  C17       19.6660    9.5030   34.6190 C.ar  300  105300      0.0000
     20  C18       20.9070    8.8230   34.4880 C.ar  300  105300      0.0000
@<TRIPOS>BOND
     1    16    15    1
     2    15    17   ar
     3    15    14   ar
     4    17    18   ar
     5     9    10   ar
     6     9    12   ar
     7    10    11   ar
     8    12    14    1
     9    12     8   ar
    10    11    13    1
    11    11     8   ar
    12    14    20   ar
    13     2     1    1
    14     8     6    1
    15    18    19   ar
    16     7     6    2
    17     3     1    1
    18     6     5   am
    19    20    19   ar
    20     1     4    1
    21     5     4    1
