@<TRIPOS>MOLECULE
1jx0_DFV_A_1.pdb
 19 21 0 0 0
SMALL
GASTEIGER

@<TRIPOS>ATOM
      1  C1        27.9500   18.4050   35.7090 C.ar  501  DFV501      0.1988
      2  C2        26.6020   18.3220   35.9380 C.ar  501  DFV501      0.0423
      3  C3        25.5940   19.2810   35.2720 C.ar  501  DFV501      0.0092
      4  C4        26.1030   20.2400   34.3940 C.ar  501  DFV501      0.0690
      5  C5        27.6450   20.3690   34.1120 C.ar  501  DFV501      0.1447
      6  C6        28.4860   19.4740   34.7410 C.ar  501  DFV501      0.0790
      7  C7        25.1760   21.2860   33.6500 C.2   501  DFV501      0.1800
      8  C8        25.9150   22.2850   32.7450 C.3   501  DFV501      0.1173
      9  C9        27.2300   21.7530   32.2290 C.3   501  DFV501      0.1958
     10  O1        28.1150   21.3190   33.2410 O.3   501  DFV501     -0.4741
     11  C10       27.9170   22.7740   31.3570 C.ar  501  DFV501      0.0178
     12  C11       28.1890   24.0890   31.7540 C.ar  501  DFV501      0.0025
     13  C12       28.9080   25.0370   30.7660 C.ar  501  DFV501      0.0418
     14  C13       29.2960   24.6020   29.5060 C.ar  501  DFV501      0.1957
     15  C14       28.9860   23.1640   29.0920 C.ar  501  DFV501      0.0418
     16  C15       28.3540   22.3150   29.9550 C.ar  501  DFV501      0.0025
     17  O2        23.9730   21.3120   33.7670 O.2   501  DFV501     -0.2911
     18  O3        28.7830   17.5540   36.3120 O.3   501  DFV501     -0.2865
     19  O4        29.9240   25.4160   28.6490 O.3   501  DFV501     -0.2866
@<TRIPOS>BOND
     1    19    14    1
     2    15    14   ar
     3    15    16   ar
     4    14    13   ar
     5    16    11   ar
     6    13    12   ar
     7    11    12   ar
     8    11     9    1
     9     9     8    1
    10     9    10    1
    11     8     7    1
    12    10     5    1
    13     7    17    2
    14     7     4    1
    15     5     4   ar
    16     5     6   ar
    17     4     3   ar
    18     6     1   ar
    19     3     2   ar
    20     1     2   ar
    21     1    18    1
