@<TRIPOS>MOLECULE
1jx1_DFV_C_1.pdb
 19 21 0 0 0
SMALL
GASTEIGER

@<TRIPOS>ATOM
      1  C1        50.6980   44.8140   58.0820 C.ar  701  DFV701      0.1988
      2  C2        51.5500   45.8730   58.2310 C.ar  701  DFV701      0.0423
      3  C3        52.8300   46.0110   57.4010 C.ar  701  DFV701      0.0092
      4  C4        53.0980   45.0270   56.4950 C.ar  701  DFV701      0.0690
      5  C5        52.1550   43.8080   56.2980 C.ar  701  DFV701      0.1447
      6  C6        51.0360   43.7420   57.0610 C.ar  701  DFV701      0.0790
      7  C7        54.3820   45.0750   55.5980 C.2   701  DFV701      0.1800
      8  C8        54.5070   43.9020   54.6090 C.3   701  DFV701      0.1173
      9  C9        53.1730   43.2350   54.2680 C.3   701  DFV701      0.1958
     10  O1        52.4450   42.8450   55.3910 O.3   701  DFV701     -0.4741
     11  C10       53.3740   42.0300   53.3670 C.ar  701  DFV701      0.0178
     12  C11       54.5640   41.3550   53.3150 C.ar  701  DFV701      0.0025
     13  C12       54.7250   40.1470   52.4030 C.ar  701  DFV701      0.0418
     14  C13       53.6980   39.7130   51.6280 C.ar  701  DFV701      0.1957
     15  C14       52.3730   40.4630   51.6880 C.ar  701  DFV701      0.0418
     16  C15       52.2160   41.5400   52.4950 C.ar  701  DFV701      0.0025
     17  O2        55.2120   45.9610   55.6640 O.2   701  DFV701     -0.2911
     18  O3        49.5690   44.7150   58.8310 O.3   701  DFV701     -0.2865
     19  O4        53.8520   38.6390   50.8210 O.3   701  DFV701     -0.2866
@<TRIPOS>BOND
     1    19    14    1
     2    14    15   ar
     3    14    13   ar
     4    15    16   ar
     5    13    12   ar
     6    16    11   ar
     7    12    11   ar
     8    11     9    1
     9     9     8    1
    10     9    10    1
    11     8     7    1
    12    10     5    1
    13     7    17    2
    14     7     4    1
    15     5     4   ar
    16     5     6   ar
    17     4     3   ar
    18     6     1   ar
    19     3     2   ar
    20     1     2   ar
    21     1    18    1
