@<TRIPOS>MOLECULE
1jx2_III_C_1.pdb
 37 36 0 0 0
SMALL
GASTEIGER

@<TRIPOS>ATOM
      1  N        -74.1320  -29.0590   25.9590 N.3   777  THR777     -0.1203
      2  CA       -74.3720  -28.2100   27.1220 C.3   777  THR777      0.1994
      3  C        -73.3140  -27.1510   27.3370 C.2   777  THR777      0.2618
      4  O        -73.5480  -26.1820   28.0570 O.2   777  THR777     -0.2717
      5  CB       -74.4610  -28.9990   28.4420 C.3   777  THR777      0.1784
      6  OG1      -73.2370  -29.7160   28.6660 O.3   777  THR777     -0.2211
      7  CG2      -75.6340  -29.9240   28.4220 C.3   777  THR777      0.0376
      8  N        -72.1500  -27.3390   26.7290 N.am  778  ARG778     -0.1965
      9  CA       -71.0570  -26.3840   26.8950 C.3   778  ARG778      0.1729
     10  C        -71.4080  -24.9930   26.3610 C.2   778  ARG778      0.2617
     11  O        -70.9200  -23.9790   26.8710 O.2   778  ARG778     -0.2715
     12  CB       -69.7840  -26.9120   26.2220 C.3   778  ARG778      0.0348
     13  CG       -69.9120  -27.1960   24.7550 C.3   778  ARG778      0.0492
     14  CD       -68.6790  -27.9390   24.2760 C.3   778  ARG778      0.2205
     15  NE       -68.8390  -28.4610   22.9240 N.pl3 778  ARG778     -0.0865
     16  CZ       -67.9680  -29.2670   22.3230 C.cat 778  ARG778      0.5346
     17  NH1      -66.8640  -29.6450   22.9590 N.pl3 778  ARG778      0.1354
     18  NH2      -68.2050  -29.6990   21.0860 N.pl3 778  ARG778      0.1354
     19  N        -72.2640  -24.9540   25.3440 N.am  779  GLY779     -0.1940
     20  CA       -72.6730  -23.6860   24.7770 C.3   779  GLY779      0.2014
     21  C        -73.5080  -22.8910   25.7650 C.2   779  GLY779      0.2639
     22  O        -73.6630  -21.6830   25.6230 O.2   779  GLY779     -0.2714
     23  N        -74.0510  -23.5710   26.7700 N.am  780  LEU780     -0.1963
     24  CA       -74.8630  -22.9090   27.7800 C.3   780  LEU780      0.1728
     25  C        -74.0120  -21.9990   28.6720 C.2   780  LEU780      0.2616
     26  O        -74.4090  -21.6610   29.7880 O.2   780  LEU780     -0.2715
     27  CB       -75.5810  -23.9490   28.6390 C.3   780  LEU780      0.0311
     28  CG       -76.5340  -24.8860   27.9010 C.3   780  LEU780      0.0022
     29  CD1      -76.9240  -26.0350   28.8080 C.3   780  LEU780      0.0001
     30  CD2      -77.7670  -24.1190   27.4430 C.3   780  LEU780      0.0001
     31  N        -72.8460  -21.6040   28.1710 N.am  781  VAL781     -0.1977
     32  CA       -71.9430  -20.7360   28.9120 C.3   781  VAL781      0.1596
     33  C        -71.4250  -19.6190   28.0110 C.2   781  VAL781      0.2287
     34  O        -70.8880  -18.6200   28.4900 O.2   781  VAL781     -0.2864
     35  CB       -70.7380  -21.5350   29.4650 C.3   781  VAL781      0.0276
     36  CG1      -69.9010  -20.6500   30.3700 C.3   781  VAL781      0.0022
     37  CG2      -71.2290  -22.7610   30.2290 C.3   781  VAL781      0.0022
@<TRIPOS>BOND
     1    18    16    1
     2    16    15    2
     3    16    17    1
     4    15    14    1
     5    14    13    1
     6    13    12    1
     7    20    19    1
     8    20    21    1
     9    19    10   am
    10    22    21    2
    11    21    23   am
    12     1     2    1
    13    12     9    1
    14    10    11    2
    15    10     9    1
    16     8     9    1
    17     8     3   am
    18    23    24    1
    19     2     3    1
    20     2     5    1
    21     3     4    2
    22    30    28    1
    23    24    27    1
    24    24    25    1
    25    28    27    1
    26    28    29    1
    27    33    34    2
    28    33    32    1
    29    31    25   am
    30    31    32    1
    31     7     5    1
    32     5     6    1
    33    25    26    2
    34    32    35    1
    35    35    37    1
    36    35    36    1
