@<TRIPOS>MOLECULE
1jx2_ADP_A_1.pdb
 27 29 0 0 0
SMALL
GASTEIGER

@<TRIPOS>ATOM
      1  PB       -59.7500  -61.5460   62.5710 P.3   801  ADP801      0.5373
      2  O1B      -59.8810  -61.4570   61.0770 O.2   801  ADP801     -0.2221
      3  O2B      -60.8340  -62.2580   63.1890 O.3   801  ADP801     -0.1143
      4  O3B      -58.4010  -62.1780   62.9490 O.3   801  ADP801     -0.1143
      5  PA       -60.7110  -59.5110   64.4410 P.3   801  ADP801      0.2231
      6  O1A      -62.0920  -59.5120   64.0200 O.2   801  ADP801     -0.5169
      7  O2A      -60.4390  -60.1700   65.7220 O.3   801  ADP801     -0.4370
      8  O3A      -59.8400  -60.0950   63.2150 O.3   801  ADP801     -0.2261
      9  O5'      -60.3340  -57.9620   64.5510 O.3   801  ADP801     -0.3111
     10  C5'      -59.0830  -57.5980   65.1910 C.3   801  ADP801      0.1813
     11  C4'      -59.2980  -56.2960   65.9220 C.3   801  ADP801      0.1821
     12  O4'      -59.6730  -55.3940   64.9110 O.3   801  ADP801     -0.3135
     13  C3'      -60.4960  -56.2760   66.8160 C.3   801  ADP801      0.2184
     14  O3'      -60.4840  -57.0490   67.9920 O.3   801  ADP801     -0.2174
     15  C2'      -60.7490  -54.8120   66.9270 C.3   801  ADP801      0.2570
     16  O2'      -59.8180  -54.1520   67.8240 O.3   801  ADP801     -0.2130
     17  C1'      -60.5890  -54.4390   65.4780 C.3   801  ADP801      0.3186
     18  N9       -61.8250  -54.4730   64.6660 N.pl3 801  ADP801     -0.1439
     19  C8       -62.1030  -55.2630   63.5840 C.3   801  ADP801      0.3377
     20  N7       -63.2200  -54.9830   63.0170 N.2   801  ADP801     -0.2095
     21  C5       -63.7330  -53.9510   63.7540 C.2   801  ADP801      0.2526
     22  C6       -64.9340  -53.2100   63.6150 C.2   801  ADP801      0.4393
     23  N6       -65.7530  -53.4100   62.5830 N.pl3 801  ADP801      0.2180
     24  N1       -65.1930  -52.2030   64.5500 N.2   801  ADP801      0.0021
     25  C2       -64.2510  -51.9670   65.5670 C.3   801  ADP801      0.5254
     26  N3       -63.0870  -52.6200   65.7480 N.2   801  ADP801     -0.0055
     27  C4       -62.8920  -53.6160   64.7910 C.2   801  ADP801      0.3518
@<TRIPOS>BOND
     1     2     1    2
     2     1     4    1
     3     1     3    1
     4     1     8    1
     5    23    22    1
     6    20    19    1
     7    20    21    2
     8     8     5    1
     9    19    18    1
    10    22    21    1
    11    22    24    2
    12    21    27    1
    13     6     5    2
    14     5     9    1
    15     5     7    1
    16    24    25    1
    17     9    10    1
    18    18    27    1
    19    18    17    1
    20    27    26    2
    21    12    17    1
    22    12    11    1
    23    10    11    1
    24    17    15    1
    25    25    26    1
    26    11    13    1
    27    13    15    1
    28    13    14    1
    29    15    16    1
