@<TRIPOS>MOLECULE
1jx2_BGC_A_1.pdb
 12 12 0 0 0
SMALL
GASTEIGER

@<TRIPOS>ATOM
      1  C2       -62.1540  -84.6790   49.7980 C.3   803  BGC803      0.2434
      2  C3       -62.2300  -84.7340   48.2750 C.3   803  BGC803      0.2199
      3  C4       -61.5590  -86.0390   47.8090 C.3   803  BGC803      0.2144
      4  C5       -62.3000  -87.2420   48.4180 C.3   803  BGC803      0.1836
      5  C6       -61.6680  -88.5710   48.0280 C.3   803  BGC803      0.2142
      6  C1       -62.8990  -85.9050   50.3580 C.3   803  BGC803      0.3024
      7  O1       -62.8420  -85.8950   51.7380 O.3   803  BGC803     -0.1869
      8  O2       -62.7670  -83.4800   50.2670 O.3   803  BGC803     -0.2148
      9  O3       -61.5430  -83.6160   47.7400 O.3   803  BGC803     -0.2174
     10  O4       -61.6130  -86.1500   46.3700 O.3   803  BGC803     -0.2176
     11  O5       -62.2870  -87.1410   49.8740 O.3   803  BGC803     -0.3236
     12  O6       -60.2900  -88.6210   48.3930 O.3   803  BGC803     -0.2176
@<TRIPOS>BOND
     1    10     3    1
     2     9     2    1
     3     3     2    1
     4     3     4    1
     5     5    12    1
     6     5     4    1
     7     2     1    1
     8     4    11    1
     9     1     8    1
    10     1     6    1
    11    11     6    1
    12     6     7    1
