@<TRIPOS>MOLECULE
1jx4_ADI_A_1.pdb
 25 27 0 0 0
SMALL
GASTEIGER

@<TRIPOS>ATOM
      1  PB        24.5340   12.3570    5.9530 P.3   1014  ADI1014     0.5373
      2  O1B       25.8370   11.8670    6.5890 O.3   1014  ADI1014    -0.1143
      3  O2B       24.2580   13.7930    5.7970 O.3   1014  ADI1014    -0.1143
      4  O3B       24.4940   11.5160    4.6690 O.2   1014  ADI1014    -0.2221
      5  PA        23.0610   10.3260    7.4670 P.3   1014  ADI1014     0.2231
      6  O1A       24.4070    9.6030    7.5740 O.3   1014  ADI1014    -0.4370
      7  O2A       21.9480    9.7790    6.6670 O.2   1014  ADI1014    -0.5169
      8  O3A       23.5080   11.8220    7.0470 O.3   1014  ADI1014    -0.2261
      9  O5'       22.4890   10.7150    8.9180 O.3   1014  ADI1014    -0.3112
     10  C5'       23.0260   10.2350   10.1730 C.3   1014  ADI1014     0.1786
     11  C4'       21.8510    9.9540   11.1020 C.3   1014  ADI1014     0.1493
     12  O4'       21.4110   11.3130   11.3200 O.3   1014  ADI1014    -0.3183
     13  C3'       20.7810    9.2240   10.2780 C.3   1014  ADI1014     0.0392
     14  C2'       19.5870    9.9590   10.8550 C.3   1014  ADI1014     0.0823
     15  C1'       19.9960   11.3070   11.3690 C.3   1014  ADI1014     0.2847
     16  N9        19.2630   12.4100   10.7150 N.pl3 1014  ADI1014    -0.1461
     17  C8        19.7000   13.3150    9.7490 C.3   1014  ADI1014     0.3377
     18  N7        18.8020   14.2070    9.4500 N.2   1014  ADI1014    -0.2095
     19  C5        17.7010   13.8630   10.2090 C.2   1014  ADI1014     0.2526
     20  C6        16.3880   14.4060   10.3240 C.2   1014  ADI1014     0.4393
     21  N6        15.9600   15.4420    9.5990 N.pl3 1014  ADI1014     0.2180
     22  N1        15.5440   13.7980   11.2220 N.2   1014  ADI1014     0.0021
     23  C2        15.9270   12.7160   11.9400 C.3   1014  ADI1014     0.5254
     24  N3        17.1020   12.1000   11.8990 N.2   1014  ADI1014    -0.0055
     25  C4        17.9550   12.7500   11.0000 C.2   1014  ADI1014     0.3518
@<TRIPOS>BOND
     1     4     1    2
     2     3     1    1
     3     1     2    1
     4     1     8    1
     5     7     5    2
     6     8     5    1
     7     5     6    1
     8     5     9    1
     9     9    10    1
    10    18    17    1
    11    18    19    2
    12    21    20    1
    13    17    16    1
    14    10    11    1
    15    19    20    1
    16    19    25    1
    17    13    14    1
    18    13    11    1
    19    20    22    2
    20    16    25    1
    21    16    15    1
    22    14    15    1
    23    25    24    2
    24    11    12    1
    25    22    23    1
    26    12    15    1
    27    24    23    1
