@<TRIPOS>MOLECULE
1jx6_AI2_A_1.pdb
 13 14 0 0 0
SMALL
GASTEIGER

@<TRIPOS>ATOM
      1  O1       -16.5960  -19.9490   10.4330 O.3   400  AI2400      0.0000
      2  B2       -15.6770  -20.9780   10.7350 B     400  AI2400      0.0000
      3  O9       -16.2040  -21.9320   11.7780 O.3   400  AI2400      0.0000
      4  O10      -15.3740  -21.7050    9.5010 O.3   400  AI2400      0.0000
      5  O3       -14.4820  -20.3020   11.3670 O.3   400  AI2400      0.0000
      6  C4       -14.7860  -18.8930   11.6450 C.3   400  AI2400      0.0000
      7  C11      -14.4180  -18.7310   13.0820 C.3   400  AI2400      0.0000
      8  O5       -14.0110  -18.0380   10.7550 O.3   400  AI2400      0.0000
      9  C6       -14.9260  -17.5220    9.7970 C.3   400  AI2400      0.0000
     10  C7       -16.2820  -17.4810   10.4710 C.3   400  AI2400      0.0000
     11  O12      -16.4380  -16.3370   11.2460 O.3   400  AI2400      0.0000
     12  C8       -16.3460  -18.8750   11.1780 C.3   400  AI2400      0.0000
     13  O13      -17.1600  -18.7160   12.3510 O.3   400  AI2400      0.0000
@<TRIPOS>BOND
     1     4     2    1
     2     9    10    1
     3     9     8    1
     4     1     2    1
     5     1    12    1
     6    10    12    1
     7    10    11    1
     8     2     5    1
     9     2     3    1
    10     8     6    1
    11    12     6    1
    12    12    13    1
    13     5     6    1
    14     6     7    1
