@<TRIPOS>MOLECULE
1jxa_G6Q_A_1.pdb
 16 15 0 0 0
SMALL
GASTEIGER

@<TRIPOS>ATOM
      1  C1       -14.1150    6.5070    5.4280 C.3   700  G6Q700      0.2175
      2  C2       -14.4350    5.0110    5.8120 C.3   700  G6Q700      0.2175
      3  C3       -14.8770    4.3820    4.5370 C.3   700  G6Q700      0.2175
      4  C4       -15.2720    2.9460    4.5440 C.3   700  G6Q700      0.2174
      5  C5       -15.1290    2.3120    3.1490 C.3   700  G6Q700      0.2147
      6  C6       -15.6120    0.9280    3.3470 C.3   700  G6Q700      0.1892
      7  O1       -13.1580    6.9580    6.0460 O.3   700  G6Q700     -0.2175
      8  O2       -13.1120    4.5330    6.0780 O.3   700  G6Q700     -0.2175
      9  O3       -13.7620    4.3880    3.5910 O.3   700  G6Q700     -0.2175
     10  O4       -14.5160    2.1420    5.3740 O.3   700  G6Q700     -0.2175
     11  O5       -15.7910    2.8690    2.1030 O.3   700  G6Q700     -0.2176
     12  O6       -16.9930    0.5760    3.1730 O.3   700  G6Q700     -0.2674
     13  P        -17.5490   -0.5690    4.2380 P.3   700  G6Q700      0.5327
     14  O1P      -18.8570   -0.1840    4.8620 O.3   700  G6Q700     -0.1145
     15  O2P      -17.8310   -1.7560    3.4800 O.2   700  G6Q700     -0.2224
     16  O3P      -16.7640   -0.6330    5.4750 O.3   700  G6Q700     -0.1145
@<TRIPOS>BOND
     1    11     5    1
     2     5     6    1
     3     5     4    1
     4    12     6    1
     5    12    13    1
     6    15    13    2
     7     9     3    1
     8    13    14    1
     9    13    16    1
    10     3     4    1
    11     3     2    1
    12     4    10    1
    13     1     2    1
    14     1     7    1
    15     2     8    1
