@<TRIPOS>MOLECULE
1jxi_HMH_A_1.pdb
 10 10 0 0 0
SMALL
GASTEIGER

@<TRIPOS>ATOM
      1  CM2       25.4230   47.8440   69.4190 C.3   2001  HMH2001     0.1291
      2  N1A       26.2270   49.7340   70.7530 N.2   2001  HMH2001    -0.1861
      3  C2A       25.9210   49.2240   69.4670 C.1   2001  HMH2001     0.0663
      4  N3A       26.0740   49.9480   68.3640 N.2   2001  HMH2001    -0.3368
      5  C4A       26.5660   51.3030   68.4190 C.2   2001  HMH2001     0.2301
      6  N4A       26.6960   51.9790   67.2650 N.pl3 2001  HMH2001    -0.0924
      7  C5A       26.9180   51.9230   69.7650 C.2   2001  HMH2001     0.0783
      8  C6A       26.7140   51.0590   70.8800 C.2   2001  HMH2001     0.1124
      9  C7A       27.4260   53.3360   69.7780 C.3   2001  HMH2001     0.2141
     10  O1        26.4780   54.5060   69.1500 O.3   2001  HMH2001    -0.2150
@<TRIPOS>BOND
     1     6     5    1
     2     4     5    2
     3     4     3    2
     4     5     7    1
     5    10     9    1
     6     1     3    1
     7     3     2    2
     8     7     9    1
     9     7     8    2
    10     2     8    1
