@<TRIPOS>MOLECULE
1jxl_DG3_A_1.pdb
 30 32 0 0 0
SMALL
GASTEIGER

@<TRIPOS>ATOM
      1  PG        25.7530   10.2860   19.6580 P.3   401  DG3401      0.5373
      2  O1G       25.5130   10.9110   20.9850 O.3   401  DG3401     -0.1143
      3  O2G       24.7260    9.3540   19.0460 O.2   401  DG3401     -0.2221
      4  O3G       27.2420    9.6790   19.4950 O.3   401  DG3401     -0.1143
      5  O3B       25.7220   11.7170   18.9380 O.3   401  DG3401     -0.2258
      6  PB        24.5460   12.7910   19.2030 P.3   401  DG3401      0.2277
      7  O1B       24.6480   12.9830   20.6420 O.3   401  DG3401     -0.4368
      8  O2B       23.3610   12.4270   18.4280 O.2   401  DG3401     -0.5168
      9  O3A       25.3250   14.0540   18.5580 O.3   401  DG3401     -0.2700
     10  PA        25.4140   14.7850   17.0860 P.3   401  DG3401      0.2189
     11  O1A       26.2790   15.9420   17.5080 O.3   401  DG3401     -0.4371
     12  O2A       24.0150   14.9990   16.5360 O.2   401  DG3401     -0.5170
     13  O5'       26.2130   13.8220   16.0650 O.3   401  DG3401     -0.3113
     14  C5'       25.7380   12.7730   15.1730 C.3   401  DG3401      0.1785
     15  C4'       26.8890   11.8200   14.8150 C.3   401  DG3401      0.1471
     16  O4'       28.2140   12.4930   14.7370 O.3   401  DG3401     -0.3374
     17  C3'       27.0950   10.6640   15.8110 C.3   401  DG3401      0.0366
     18  C2'       28.2650   11.1410   16.6900 C.3   401  DG3401      0.0536
     19  C1'       29.1160   11.9480   15.6950 C.3   401  DG3401      0.1954
     20  N9        29.8670   13.0940   16.2400 N.pl3 401  DG3401     -0.2375
     21  C8        29.4890   14.0940   17.1360 C.3   401  DG3401      0.2245
     22  N7        30.4540   14.9530   17.4310 N.2   401  DG3401     -0.2322
     23  C5        31.5520   14.4250   16.7370 C.2   401  DG3401      0.2182
     24  C6        32.9570   14.7780   16.7330 C.1   401  DG3401      0.2372
     25  O6        33.4370   15.7190   17.3820 O.2   401  DG3401     -0.2069
     26  N1        33.7810   13.9610   15.8800 N.2   401  DG3401     -0.2485
     27  C2        33.2850   12.9080   15.0870 C.1   401  DG3401      0.2531
     28  N2        34.1100   12.2050   14.2980 N.pl3 401  DG3401     -0.0226
     29  N3        31.9790   12.5830   15.0900 N.2   401  DG3401     -0.3074
     30  C4        31.1910   13.3400   15.9250 C.2   401  DG3401      0.2299
@<TRIPOS>BOND
     1    28    27    1
     2    16    15    1
     3    16    19    1
     4    15    14    1
     5    15    17    1
     6    27    29    2
     7    27    26    2
     8    29    30    2
     9    14    13    1
    10    19    20    1
    11    19    18    1
    12    17    18    1
    13    26    24    2
    14    30    20    1
    15    30    23    1
    16    13    10    1
    17    20    21    1
    18    12    10    2
    19    24    23    1
    20    24    25    2
    21    23    22    2
    22    10    11    1
    23    10     9    1
    24    21    22    1
    25     8     6    2
    26     9     6    1
    27     5     6    1
    28     5     1    1
    29     3     1    2
    30     6     7    1
    31     4     1    1
    32     1     2    1
