@<TRIPOS>MOLECULE
1jxm_5GP_A_1.pdb
 24 26 0 0 0
SMALL
GASTEIGER

@<TRIPOS>ATOM
      1  P         43.9560   36.1280   59.7980 P.3   101  5GP101      0.5327
      2  O1P       43.8340   37.5900   59.9420 O.3   101  5GP101     -0.1145
      3  O2P       45.3790   35.6330   59.9390 O.2   101  5GP101     -0.2224
      4  O3P       43.0140   35.3780   60.8050 O.3   101  5GP101     -0.1145
      5  O5'       43.4380   35.6150   58.3650 O.3   101  5GP101     -0.2675
      6  C5'       42.1890   36.0920   57.8460 C.3   101  5GP101      0.1859
      7  C4'       41.8260   35.5020   56.5000 C.3   101  5GP101      0.1801
      8  O4'       42.8070   36.0390   55.5350 O.3   101  5GP101     -0.3326
      9  C3'       41.9180   33.9980   56.3180 C.3   101  5GP101      0.2158
     10  O3'       40.7460   33.3150   56.7200 O.3   101  5GP101     -0.2175
     11  C2'       42.1750   33.8170   54.8360 C.3   101  5GP101      0.2310
     12  O2'       40.9500   33.7370   54.0690 O.3   101  5GP101     -0.2158
     13  C1'       43.0140   35.0410   54.4980 C.3   101  5GP101      0.2293
     14  N9        44.4820   34.8220   54.3370 N.pl3 101  5GP101     -0.2354
     15  C8        45.5260   34.9800   55.2200 C.3   101  5GP101      0.2246
     16  N7        46.7150   34.6970   54.7390 N.2   101  5GP101     -0.2322
     17  C5        46.4160   34.3140   53.4080 C.2   101  5GP101      0.2182
     18  C6        47.3190   33.8940   52.3690 C.1   101  5GP101      0.2372
     19  O6        48.5410   33.7810   52.4270 O.2   101  5GP101     -0.2069
     20  N1        46.6190   33.5920   51.1530 N.2   101  5GP101     -0.2485
     21  C2        45.2320   33.6960   51.0010 C.1   101  5GP101      0.2531
     22  N2        44.7820   33.3620   49.7700 N.pl3 101  5GP101     -0.0226
     23  N3        44.3840   34.0930   51.9760 N.2   101  5GP101     -0.3074
     24  C4        45.0550   34.3870   53.1560 C.2   101  5GP101      0.2300
@<TRIPOS>BOND
     1    22    21    1
     2    21    20    2
     3    21    23    2
     4    20    18    2
     5    23    24    2
     6    18    19    2
     7    18    17    1
     8    24    17    1
     9    24    14    1
    10    17    16    2
    11    12    11    1
    12    14    13    1
    13    14    15    1
    14    13    11    1
    15    13     8    1
    16    16    15    1
    17    11     9    1
    18     8     7    1
    19     9     7    1
    20     9    10    1
    21     7     6    1
    22     6     5    1
    23     5     1    1
    24     1     3    2
    25     1     2    1
    26     1     4    1
