@<TRIPOS>MOLECULE
1jxn_MFU_A_1.pdb
 12 12 0 0 0
SMALL
GASTEIGER

@<TRIPOS>ATOM
      1  C1        -2.4360   15.1540   -1.9000 C.3   501  MFU501      0.2695
      2  C2        -1.3840   15.0460   -0.7700 C.3   501  MFU501      0.2406
      3  C3        -2.1480   14.8590    0.5600 C.3   501  MFU501      0.2197
      4  C4        -3.0160   13.5810    0.4700 C.3   501  MFU501      0.2118
      5  C5        -4.0100   13.7140   -0.6860 C.3   501  MFU501      0.1508
      6  C6        -4.8820   12.4380   -0.8020 C.3   501  MFU501      0.0350
      7  O1        -3.2550   16.3650   -1.6770 O.3   501  MFU501     -0.3259
      8  O2        -0.5570   16.2180   -0.7550 O.3   501  MFU501     -0.2149
      9  O3        -1.2260   14.7610    1.6320 O.3   501  MFU501     -0.2174
     10  O4        -2.1840   12.4450    0.2530 O.3   501  MFU501     -0.2177
     11  O5        -3.2990   13.9470   -1.9230 O.3   501  MFU501     -0.3284
     12  CM        -2.9920   17.7830   -1.8190 C.3   501  MFU501      0.1769
@<TRIPOS>BOND
     1    11     1    1
     2    11     5    1
     3     1     7    1
     4     1     2    1
     5    12     7    1
     6     6     5    1
     7     2     8    1
     8     2     3    1
     9     5     4    1
    10    10     4    1
    11     4     3    1
    12     3     9    1
