@<TRIPOS>MOLECULE
1jxq_III_E_1.pdb
 35 35 0 0 0
SMALL
GASTEIGER

@<TRIPOS>ATOM
      1  C1        22.1980   34.6390  -18.6740 C.2   502  PHQ502      0.4218
      2  O1        22.3620   34.7650  -19.8830 O.2   502  PHQ502     -0.2245
      3  O2        21.9910   33.4530  -18.1090 O.3   502  PHQ502     -0.4285
      4  C2        22.3230   32.1760  -18.7340 C.3   502  PHQ502      0.2368
      5  C3        23.7740   31.8610  -18.5080 C.ar  502  PHQ502      0.0213
      6  C4        24.3940   32.1990  -17.3090 C.ar  502  PHQ502     -0.0007
      7  C5        25.7390   31.9110  -17.0950 C.ar  502  PHQ502     -0.0002
      8  C6        26.4780   31.2770  -18.0880 C.ar  502  PHQ502     -0.0000
      9  C7        25.8680   30.9330  -19.2900 C.ar  502  PHQ502     -0.0002
     10  C8        24.5220   31.2260  -19.4930 C.ar  502  PHQ502     -0.0007
     11  N         22.2180   35.6760  -17.8380 N.am  503  GLU503     -0.1611
     12  CA        22.4340   37.0530  -18.3070 C.3   503  GLU503      0.1767
     13  C         22.9410   38.0110  -17.2170 C.2   503  GLU503      0.2617
     14  O         22.5320   37.9280  -16.0560 O.2   503  GLU503     -0.2715
     15  CB        21.1340   37.6170  -18.8890 C.3   503  GLU503      0.0430
     16  CG        21.2320   39.0520  -19.4000 C.3   503  GLU503      0.1163
     17  CD        19.8780   39.6170  -19.8050 C.2   503  GLU503      0.3649
     18  OE1       19.0540   39.8990  -18.9070 O.co2 503  GLU503     -0.2457
     19  OE2       19.6350   39.7710  -21.0220 O.co2 503  GLU503     -0.2457
     20  N         23.8280   38.9230  -17.6060 N.am  504  VAL504     -0.1963
     21  CA        24.3890   39.8980  -16.6740 C.3   504  VAL504      0.1727
     22  C         23.2920   40.8530  -16.2220 C.2   504  VAL504      0.2616
     23  O         22.3570   41.1190  -16.9750 O.2   504  VAL504     -0.2715
     24  CB        25.5120   40.7060  -17.3450 C.3   504  VAL504      0.0290
     25  CG1       26.6170   39.7760  -17.7950 C.3   504  VAL504      0.0023
     26  CG2       24.9660   41.4590  -18.5420 C.3   504  VAL504      0.0023
     27  N         23.4010   41.3680  -15.0030 N.am  505  ASP505     -0.1976
     28  CA        22.3960   42.2920  -14.4810 C.3   505  ASP505      0.1635
     29  C         23.0370   43.5870  -13.9950 C.2   505  ASP505      0.1713
     30  O         22.5920   44.1680  -13.0060 O.2   505  ASP505     -0.2942
     31  CB        21.6110   41.6250  -13.3410 C.3   505  ASP505      0.1432
     32  CG        20.3060   42.3460  -13.0240 C.2   505  ASP505      0.3671
     33  OD1       19.4350   41.7620  -12.3400 O.co2 505  ASP505     -0.2456
     34  OD2       20.1580   43.5060  -13.4620 O.co2 505  ASP505     -0.2456
     35  C1        24.1340   44.2310  -14.8210 C.3   506  CF0506      0.0741
@<TRIPOS>BOND
     1    19    17   ar
     2     2     1    2
     3    17    16    1
     4    17    18   ar
     5    10     9   ar
     6    10     5   ar
     7    16    15    1
     8     9     8   ar
     9    15    12    1
    10     4     5    1
    11     4     3    1
    12     1     3    1
    13     1    11   am
    14    26    24    1
    15     5     6   ar
    16    12    11    1
    17    12    13    1
    18     8     7   ar
    19    25    24    1
    20    20    13   am
    21    20    21    1
    22    24    21    1
    23     6     7   ar
    24    13    14    2
    25    23    22    2
    26    21    22    1
    27    22    27   am
    28    27    28    1
    29    35    29    1
    30    28    29    1
    31    28    31    1
    32    29    30    2
    33    34    32   ar
    34    31    32    1
    35    32    33   ar
