@<TRIPOS>MOLECULE
1jy7_HEM_A_1.pdb
 43 50 0 0 0
SMALL
GASTEIGER

@<TRIPOS>ATOM
      1 FE        -10.4790    5.6910   52.1280 Fe    142  HEM142      0.0000
      2  CHA      -13.7080    6.5830   53.1630 C.2   142  HEM142      0.0000
      3  CHB      -10.3930    3.3780   54.5560 C.2   142  HEM142      0.0000
      4  CHC       -7.7400    4.4030   50.7320 C.2   142  HEM142      0.0000
      5  CHD      -10.7710    7.9860   49.5730 C.2   142  HEM142      0.0000
      6  NA       -11.6980    5.1940   53.5770 N.2   142  HEM142      0.0000
      7  C1A      -12.9770    5.6600   53.8840 C.2   142  HEM142      0.0000
      8  C2A      -13.4640    4.9980   55.0850 C.2   142  HEM142      0.0000
      9  C3A      -12.4740    4.2330   55.5830 C.2   142  HEM142      0.0000
     10  C4A      -11.4270    4.2790   54.5860 C.2   142  HEM142      0.0000
     11  CMA      -12.4980    3.5350   56.9440 C.3   142  HEM142      0.0000
     12  CAA      -14.9220    4.8300   55.5020 C.3   142  HEM142      0.0000
     13  CBA      -15.6380    5.8840   56.3480 C.3   142  HEM142      0.0000
     14  CGA      -17.1370    5.6500   56.3970 C.2   142  HEM142      0.0000
     15  O1A      -17.5570    4.5530   56.8380 O.co2 142  HEM142      0.0000
     16  O2A      -17.8890    6.5660   55.9850 O.co2 142  HEM142      0.0000
     17  NB        -9.3380    4.2240   52.5310 N.ar  142  HEM142      0.0000
     18  C1B       -9.4310    3.3500   53.5730 C.ar  142  HEM142      0.0000
     19  C2B       -8.3340    2.4220   53.5880 C.ar  142  HEM142      0.0000
     20  C3B       -7.5770    2.7030   52.5300 C.ar  142  HEM142      0.0000
     21  C4B       -8.2190    3.8150   51.8710 C.ar  142  HEM142      0.0000
     22  CMB       -8.0040    1.3870   54.6620 C.3   142  HEM142      0.0000
     23  CAB       -6.3700    2.0880   52.2260 C.3   142  HEM142      0.0000
     24  CBB       -5.2710    2.1120   53.0890 C.3   142  HEM142      0.0000
     25  NC        -9.4420    6.1440   50.5640 N.2   142  HEM142      0.0000
     26  C1C       -8.3010    5.5140   50.1350 C.2   142  HEM142      0.0000
     27  C2C       -7.7360    6.1720   48.9640 C.2   142  HEM142      0.0000
     28  C3C       -8.5680    7.1920   48.6290 C.2   142  HEM142      0.0000
     29  C4C       -9.6460    7.1600   49.6190 C.2   142  HEM142      0.0000
     30  CMC       -6.3960    5.8480   48.3020 C.3   142  HEM142      0.0000
     31  CAC       -8.4110    8.0740   47.5640 C.3   142  HEM142      0.0000
     32  CBC       -7.4610    9.0740   47.5280 C.3   142  HEM142      0.0000
     33  ND       -11.9240    6.9900   51.5370 N.ar  142  HEM142      0.0000
     34  C1D      -11.8420    7.9150   50.4790 C.ar  142  HEM142      0.0000
     35  C2D      -13.0560    8.7540   50.4120 C.ar  142  HEM142      0.0000
     36  C3D      -13.9160    8.3330   51.3810 C.ar  142  HEM142      0.0000
     37  C4D      -13.2190    7.2250   52.0640 C.ar  142  HEM142      0.0000
     38  CMD      -13.2520    9.9610   49.5050 C.3   142  HEM142      0.0000
     39  CAD      -15.2520    9.0020   51.7370 C.3   142  HEM142      0.0000
     40  CBD      -15.1360   10.1240   52.7720 C.3   142  HEM142      0.0000
     41  CGD      -16.4840   10.7610   53.1390 C.2   142  HEM142      0.0000
     42  O1D      -17.0490   11.5270   52.3250 O.co2 142  HEM142      0.0000
     43  O2D      -16.9790   10.4880   54.2540 O.co2 142  HEM142      0.0000
@<TRIPOS>BOND
     1    32    31    1
     2    31    28    1
     3    30    27    1
     4    28    27    2
     5    28    29    1
     6    27    26    1
     7    38    35    1
     8     5    29    1
     9     5    34    2
    10    29    25    2
    11    26    25    1
    12    26     4    2
    13    35    34   ar
    14    35    36   ar
    15    34    33   ar
    16    25     1    1
    17     4    21    1
    18    36    39    1
    19    36    37   ar
    20    33    37   ar
    21    33     1    1
    22    39    40    1
    23    21    20   ar
    24    21    17   ar
    25    37     2    2
    26     1    17    1
    27     1     6    1
    28    23    20    1
    29    23    24    1
    30    42    41   ar
    31    20    19   ar
    32    17    18   ar
    33    40    41    1
    34    41    43   ar
    35     2     7    1
    36    18    19   ar
    37    18     3    1
    38     6     7    2
    39     6    10    1
    40    19    22    1
    41     7     8    1
    42     3    10    2
    43    10     9    1
    44     8    12    1
    45     8     9    2
    46    12    13    1
    47     9    11    1
    48    16    14   ar
    49    13    14    1
    50    14    15   ar
