@<TRIPOS>MOLECULE
1jy8_CDI_A_1.pdb
 16 16 0 0 0
SMALL
GASTEIGER

@<TRIPOS>ATOM
      1  C4        16.1790   34.2250    4.3440 C.3   421  CDI421      0.2120
      2  C3        16.1030   33.0480    5.3680 C.3   421  CDI421      0.1597
      3  OB4       15.3820   31.9500    4.7350 O.3   421  CDI421     -0.3135
      4  PB        15.6250   30.4600    4.1340 P.3   421  CDI421      0.2188
      5  OB2       14.2750   29.8520    3.5630 O.3   421  CDI421     -0.4371
      6  OB3       16.7560   30.4570    2.9870 O.2   421  CDI421     -0.5170
      7  PA        14.9650   29.5440    6.5630 P.3   421  CDI421      0.2189
      8  OA3       14.5530   30.9650    7.2090 O.3   421  CDI421     -0.3111
      9  OA1       13.7000   28.6520    6.2560 O.2   421  CDI421     -0.5170
     10  OA2       15.9750   28.7210    7.4720 O.3   421  CDI421     -0.4371
     11  C1        15.1450   32.2030    7.7070 C.3   421  CDI421      0.1844
     12  C2        15.2760   33.3770    6.6630 C.3   421  CDI421      0.2093
     13  O1        15.8760   34.4540    7.3890 O.3   421  CDI421     -0.2178
     14  C5        17.5580   32.6530    5.7530 C.3   421  CDI421      0.0355
     15  O2        14.8650   34.6450    3.9530 O.3   421  CDI421     -0.2177
     16  OB1       15.6930   29.4030    5.2460 O.3   421  CDI421     -0.2703
@<TRIPOS>BOND
     1     6     4    2
     2     5     4    1
     3    15     1    1
     4     4     3    1
     5     4    16    1
     6     1     2    1
     7     3     2    1
     8    16     7    1
     9     2    14    1
    10     2    12    1
    11     9     7    2
    12     7     8    1
    13     7    10    1
    14    12    13    1
    15    12    11    1
    16     8    11    1
