@<TRIPOS>MOLECULE
1jy8_C5P_A_1.pdb
 21 22 0 0 0
SMALL
GASTEIGER

@<TRIPOS>ATOM
      1  O3P       13.2840   28.7230    8.6460 O.3   669  C5P669     -0.1145
      2  P         11.6170   28.8330    8.5600 P.3   669  C5P669      0.5327
      3  O1P       10.9860   27.6550    9.3120 O.3   669  C5P669     -0.1145
      4  O2P       11.1450   28.8340    7.0950 O.2   669  C5P669     -0.2224
      5  O5'       11.0920   30.2580    9.2380 O.3   669  C5P669     -0.2675
      6  C5'       11.9440   31.0830   10.0340 C.3   669  C5P669      0.1859
      7  C4'       11.1090   32.0980   10.7040 C.3   669  C5P669      0.1801
      8  O4'        9.7300   31.7730   10.7610 O.3   669  C5P669     -0.3320
      9  C3'       11.5810   32.0080   12.1650 C.3   669  C5P669      0.2158
     10  O3'       11.9140   33.3150   12.4970 O.3   669  C5P669     -0.2175
     11  C2'       10.3800   31.5680   12.9700 C.3   669  C5P669      0.2319
     12  O2'       10.1650   32.3030   14.1860 O.3   669  C5P669     -0.2157
     13  C1'        9.2340   31.8050   12.0500 C.3   669  C5P669      0.2400
     14  N1         8.6860   30.5490   12.3640 N.am  669  C5P669     -0.1778
     15  C2         7.6270   30.6970   13.2800 C.1   669  C5P669      0.2756
     16  N3         6.8910   29.6410   13.7320 N.2   669  C5P669     -0.3024
     17  C4         7.1630   28.4020   13.2990 C.2   669  C5P669      0.2346
     18  C5         8.1960   28.1910   12.4000 C.2   669  C5P669      0.0687
     19  C6         8.9220   29.2860   11.9680 C.2   669  C5P669      0.0836
     20  O2         7.2840   31.7990   13.7400 O.2   669  C5P669     -0.1925
     21  N4         6.4230   27.3940   13.7480 N.pl3 669  C5P669     -0.0921
@<TRIPOS>BOND
     1     4     2    2
     2     2     1    1
     3     2     5    1
     4     2     3    1
     5     5     6    1
     6     6     7    1
     7     7     8    1
     8     7     9    1
     9     8    13    1
    10    19    14    1
    11    19    18    2
    12    13    14    1
    13    13    11    1
    14     9    10    1
    15     9    11    1
    16    14    15   am
    17    18    17    1
    18    11    12    1
    19    15    16    2
    20    15    20    2
    21    17    16    2
    22    17    21    1
