@<TRIPOS>MOLECULE
1jyl_CDC_A_1.pdb
 31 32 0 0 0
SMALL
GASTEIGER

@<TRIPOS>ATOM
      1  N1       -12.6830   33.9790    0.6050 N.am  1991  CDC1991    -0.1778
      2  C2       -12.7400   34.0180   -0.7920 C.1   1991  CDC1991     0.2756
      3  N3       -13.5320   34.8670   -1.4550 N.2   1991  CDC1991    -0.3024
      4  C4       -14.3420   35.7460   -0.7740 C.2   1991  CDC1991     0.2346
      5  C5       -14.3450   35.7800    0.6410 C.2   1991  CDC1991     0.0687
      6  C6       -13.4930   34.8680    1.2840 C.2   1991  CDC1991     0.0836
      7  O2       -12.0540   33.2570   -1.5310 O.2   1991  CDC1991    -0.1925
      8  N4       -15.1260   36.5610   -1.5170 N.pl3 1991  CDC1991    -0.0921
      9  C1'      -11.8090   32.9920    1.2980 C.3   1991  CDC1991     0.2400
     10  C2'      -10.6660   33.5650    2.0730 C.3   1991  CDC1991     0.2319
     11  O2'       -9.6460   33.9530    1.1860 O.3   1991  CDC1991    -0.2157
     12  C3'      -10.3240   32.4280    3.0150 C.3   1991  CDC1991     0.2158
     13  C4'      -11.6150   31.5990    3.1160 C.3   1991  CDC1991     0.1799
     14  O4'      -12.5300   32.2930    2.2680 O.3   1991  CDC1991    -0.3320
     15  O3'       -9.3260   31.5140    2.5380 O.3   1991  CDC1991    -0.2175
     16  C5'      -11.9200   31.6870    4.5840 C.3   1991  CDC1991     0.1813
     17  O5'      -13.0230   32.5320    4.8640 O.3   1991  CDC1991    -0.3112
     18  PA       -12.7770   33.9080    5.7690 P.3   1991  CDC1991     0.2189
     19  O1A      -12.7570   35.1310    4.8400 O.2   1991  CDC1991    -0.5170
     20  O2A      -11.4020   33.6370    6.4430 O.3   1991  CDC1991    -0.4371
     21  O3A      -13.9530   34.1310    6.8590 O.3   1991  CDC1991    -0.2703
     22  PB       -14.2710   32.9730    7.9690 P.3   1991  CDC1991     0.2188
     23  O1B      -15.0000   31.6440    7.2950 O.3   1991  CDC1991    -0.3161
     24  O2B      -13.0140   32.6460    8.8130 O.2   1991  CDC1991    -0.5170
     25  O3B      -15.3920   33.6130    8.8230 O.3   1991  CDC1991    -0.4371
     26  C14      -15.4320   30.7670    8.2910 C.3   1991  CDC1991     0.1271
     27  C15      -16.1830   29.5550    7.6620 C.3   1991  CDC1991    -0.0402
     28  N11      -17.6010   29.3810    8.1750 N.4   1991  CDC1991     0.3874
     29  C16      -18.5160   29.0050    7.0910 C.3   1991  CDC1991    -0.0959
     30  C17      -17.5590   28.3420    9.2130 C.3   1991  CDC1991    -0.0959
     31  C18      -18.1480   30.6220    8.7740 C.3   1991  CDC1991    -0.0959
@<TRIPOS>BOND
     1     7     2    2
     2     8     4    1
     3     3     2    2
     4     3     4    2
     5     2     1   am
     6     4     5    1
     7     1     6    1
     8     1     9    1
     9     5     6    2
    10    11    10    1
    11     9    10    1
    12     9    14    1
    13    10    12    1
    14    14    13    1
    15    15    12    1
    16    12    13    1
    17    13    16    1
    18    16    17    1
    19    19    18    2
    20    17    18    1
    21    18    20    1
    22    18    21    1
    23    21    22    1
    24    29    28    1
    25    23    22    1
    26    23    26    1
    27    27    28    1
    28    27    26    1
    29    22    24    2
    30    22    25    1
    31    28    31    1
    32    28    30    1
