@<TRIPOS>MOLECULE
1jyn_LAT_A_1.pdb
 23 24 0 0 0
SMALL
GASTEIGER

@<TRIPOS>ATOM
      1  C1       -13.6230  -28.6120  -27.5800 C.3   2001  LAT2001     0.2695
      2  C2       -12.4220  -28.5510  -26.6450 C.3   2001  LAT2001     0.2406
      3  C3       -11.0780  -28.4740  -27.3920 C.3   2001  LAT2001     0.2198
      4  C4       -11.0040  -29.5580  -28.4640 C.3   2001  LAT2001     0.2144
      5  C5       -12.2740  -29.4890  -29.3480 C.3   2001  LAT2001     0.1835
      6  C6       -12.3460  -30.5200  -30.4800 C.3   2001  LAT2001     0.2142
      7  O1       -14.7190  -29.0030  -26.8130 O.3   2001  LAT2001    -0.3257
      8  O2       -12.6170  -27.4980  -25.6580 O.3   2001  LAT2001    -0.2149
      9  O3       -10.0660  -28.7910  -26.4150 O.3   2001  LAT2001    -0.2174
     10  O4       -10.9930  -30.8310  -27.7860 O.3   2001  LAT2001    -0.2176
     11  O5       -13.4300  -29.6520  -28.5200 O.3   2001  LAT2001    -0.3256
     12  O6       -11.1740  -30.4350  -31.3060 O.3   2001  LAT2001    -0.2176
     13  C1'      -18.8070  -29.5670  -26.8300 C.3   2001  LAT2001     0.3023
     14  C2'      -18.1550  -29.8580  -28.1760 C.3   2001  LAT2001     0.2433
     15  C3'      -16.6470  -30.0070  -27.9460 C.3   2001  LAT2001     0.2168
     16  C4'      -16.0420  -28.7120  -27.3280 C.3   2001  LAT2001     0.1804
     17  C5'      -16.8600  -28.4010  -26.0760 C.3   2001  LAT2001     0.1804
     18  C6'      -16.5580  -27.0310  -25.5260 C.3   2001  LAT2001     0.2141
     19  O1'      -20.1440  -29.2860  -27.0360 O.3   2001  LAT2001    -0.1869
     20  O2'      -18.5540  -31.0880  -28.7690 O.3   2001  LAT2001    -0.2148
     21  O3'      -16.1510  -30.2680  -29.2340 O.3   2001  LAT2001    -0.2175
     22  O5'      -18.2640  -28.3290  -26.3890 O.3   2001  LAT2001    -0.3237
     23  O6'      -17.0930  -26.9370  -24.2230 O.3   2001  LAT2001    -0.2176
@<TRIPOS>BOND
     1    12     6    1
     2     6     5    1
     3     5    11    1
     4     5     4    1
     5    21    15    1
     6    20    14    1
     7    11     1    1
     8     4    10    1
     9     4     3    1
    10    14    15    1
    11    14    13    1
    12    15    16    1
    13     1     7    1
    14     1     2    1
    15     3     2    1
    16     3     9    1
    17    16     7    1
    18    16    17    1
    19    19    13    1
    20    13    22    1
    21     2     8    1
    22    22    17    1
    23    17    18    1
    24    18    23    1
