@<TRIPOS>MOLECULE
1jys_ADE_A_1.pdb
 10 11 0 0 0
SMALL
GASTEIGER

@<TRIPOS>ATOM
      1  N9        -7.2690  -38.5160   -0.5560 N.2   233  ADE233     -0.1914
      2  C8        -7.1530  -37.9600   -1.7750 C.3   233  ADE233      0.2618
      3  N7        -6.1740  -37.0530   -1.8720 N.2   233  ADE233     -0.2267
      4  C5        -5.6320  -37.0380   -0.6110 C.2   233  ADE233      0.2303
      5  C6        -4.5680  -36.3110   -0.0170 C.2   233  ADE233      0.4393
      6  N6        -3.8590  -35.4220   -0.7110 N.pl3 233  ADE233      0.2185
      7  N1        -4.2920  -36.5620    1.3210 N.2   233  ADE233     -0.0265
      8  C2        -5.0260  -37.4710    2.0100 C.3   233  ADE233      0.4008
      9  N3        -6.0590  -38.2140    1.5360 N.2   233  ADE233     -0.1640
     10  C4        -6.3000  -37.9380    0.2120 C.1   233  ADE233      0.0579
@<TRIPOS>BOND
     1     3     2    1
     2     3     4    2
     3     2     1    1
     4     6     5    1
     5     4     5    1
     6     4    10    1
     7     1    10    2
     8     5     7    2
     9    10     9    2
    10     7     8    1
    11     9     8    1
