@<TRIPOS>MOLECULE
1jyv_145_A_1.pdb
 21 22 0 0 0
SMALL
GASTEIGER

@<TRIPOS>ATOM
      1  C1       -13.6240  -28.6850  -27.4110 C.3   2001  1452001     0.3219
      2  C2       -12.4380  -28.6150  -26.4610 C.3   2001  1452001     0.2542
      3  O2       -12.6960  -27.5460  -25.5290 O.3   2001  1452001    -0.2135
      4  C3       -11.1390  -28.3740  -27.2560 C.3   2001  1452001     0.2211
      5  O3       -10.0790  -28.5980  -26.2960 O.3   2001  1452001    -0.2173
      6  C4       -10.9780  -29.4220  -28.3460 C.3   2001  1452001     0.2145
      7  O4       -10.8140  -30.7200  -27.6810 O.3   2001  1452001    -0.2176
      8  C5       -12.2980  -29.4490  -29.1610 C.3   2001  1452001     0.1846
      9  C6       -12.3090  -30.5150  -30.2200 C.3   2001  1452001     0.2142
     10  O6       -11.1830  -30.3600  -31.1090 O.3   2001  1452001    -0.2176
     11  O5       -13.3970  -29.7390  -28.3020 O.3   2001  1452001    -0.3157
     12  O1'      -14.6810  -29.1080  -26.5790 O.3   2001  1452001    -0.4488
     13  C1'      -15.9160  -29.3180  -27.1650 C.ar  2001  1452001     0.1637
     14  C2'      -17.0260  -29.8380  -26.4370 C.ar  2001  1452001     0.1766
     15  C3'      -18.2410  -30.1010  -27.0740 C.ar  2001  1452001     0.0272
     16  C4'      -18.3730  -29.9100  -28.4040 C.ar  2001  1452001     0.0019
     17  C5'      -17.3080  -29.4160  -29.1300 C.ar  2001  1452001     0.0032
     18  C6'      -16.1030  -29.1330  -28.5150 C.ar  2001  1452001     0.0387
     19  N1'      -17.0520  -30.1250  -24.9950 N.pl3 2001  1452001     0.0607
     20  O2'      -16.1040  -29.9440  -24.2880 O.2   2001  1452001    -0.1260
     21  O3'      -18.1250  -30.5730  -24.5140 O.2   2001  1452001    -0.1260
@<TRIPOS>BOND
     1    10     9    1
     2     9     8    1
     3     8     6    1
     4     8    11    1
     5    17    18   ar
     6    17    16   ar
     7    18    13   ar
     8    16    15   ar
     9     6     7    1
    10     6     4    1
    11    11     1    1
    12     1    12    1
    13     1     2    1
    14     4     2    1
    15     4     5    1
    16    13    12    1
    17    13    14   ar
    18    15    14   ar
    19     2     3    1
    20    14    19    1
    21    19    21    2
    22    19    20    2
