@<TRIPOS>MOLECULE
1jyw_147_A_1.pdb
 21 22 0 0 0
SMALL
GASTEIGER

@<TRIPOS>ATOM
      1  C1       -13.6350  -28.8390  -27.3400 C.3   2001  1472001     0.3218
      2  C2       -12.3430  -28.6280  -26.5520 C.3   2001  1472001     0.2542
      3  O2       -12.5030  -27.4940  -25.6890 O.3   2001  1472001    -0.2135
      4  C3       -11.0710  -28.5210  -27.4040 C.3   2001  1472001     0.2211
      5  O3        -9.9660  -28.7310  -26.4970 O.3   2001  1472001    -0.2173
      6  C4       -10.9830  -29.6010  -28.4520 C.3   2001  1472001     0.2145
      7  O4       -10.8350  -30.8780  -27.8210 O.3   2001  1472001    -0.2176
      8  C5       -12.3590  -29.5900  -29.1760 C.3   2001  1472001     0.1846
      9  C6       -12.5000  -30.5810  -30.3010 C.3   2001  1472001     0.2142
     10  O6       -11.4260  -30.5030  -31.2880 O.3   2001  1472001    -0.2176
     11  O5       -13.4340  -29.8810  -28.2630 O.3   2001  1472001    -0.3157
     12  O1'      -14.5620  -29.3810  -26.4180 O.3   2001  1472001    -0.4505
     13  C1'      -15.8890  -29.2590  -26.7570 C.ar  2001  1472001     0.1415
     14  C2'      -16.7910  -29.6620  -25.7540 C.ar  2001  1472001     0.0387
     15  C3'      -18.1560  -29.6180  -25.9850 C.ar  2001  1472001     0.0272
     16  C4'      -18.5720  -29.2000  -27.2020 C.ar  2001  1472001     0.1431
     17  C5'      -17.7300  -28.7810  -28.2310 C.ar  2001  1472001     0.0272
     18  C6'      -16.3720  -28.7920  -27.9920 C.ar  2001  1472001     0.0387
     19  N1'      -19.9910  -29.0950  -27.3780 N.pl3 2001  1472001     0.0577
     20  O2'      -20.7140  -29.4480  -26.5050 O.2   2001  1472001    -0.1261
     21  O3'      -20.4020  -28.6590  -28.4440 O.2   2001  1472001    -0.1261
@<TRIPOS>BOND
     1    10     9    1
     2     9     8    1
     3     8     6    1
     4     8    11    1
     5     6     7    1
     6     6     4    1
     7    21    19    2
     8    11     1    1
     9    17    18   ar
    10    17    16   ar
    11    18    13   ar
    12     4     2    1
    13     4     5    1
    14    19    16    1
    15    19    20    2
    16     1     2    1
    17     1    12    1
    18    16    15   ar
    19    13    12    1
    20    13    14   ar
    21     2     3    1
    22    15    14   ar
