@<TRIPOS>MOLECULE
1jyx_IPT_A_1.pdb
 15 15 0 0 0
SMALL
GASTEIGER

@<TRIPOS>ATOM
      1  C1       -14.6340  -27.6720  -26.5010 C.3   2001  IPT2001     0.1955
      2  C2       -13.3860  -27.6010  -25.6010 C.3   2001  IPT2001     0.2219
      3  O2       -13.5150  -26.4980  -24.7200 O.3   2001  IPT2001    -0.2167
      4  C3       -12.2400  -27.2400  -26.5010 C.3   2001  IPT2001     0.2181
      5  O3       -11.0680  -27.2080  -25.6980 O.3   2001  IPT2001    -0.2175
      6  C4       -12.0900  -28.3310  -27.5680 C.3   2001  IPT2001     0.2143
      7  O4       -11.7610  -29.6290  -27.0210 O.3   2001  IPT2001    -0.2176
      8  C5       -13.3830  -28.3850  -28.3610 C.3   2001  IPT2001     0.1820
      9  O5       -14.4740  -28.7200  -27.4630 O.3   2001  IPT2001    -0.3398
     10  C6       -13.4340  -29.5350  -29.3530 C.3   2001  IPT2001     0.2142
     11  O6       -12.5160  -29.1980  -30.4110 O.3   2001  IPT2001    -0.2176
     12  S1       -16.0150  -28.1860  -25.4720 S.3   2001  IPT2001    -0.1102
     13  C1'      -17.4840  -27.7360  -26.4850 C.3   2001  IPT2001     0.0500
     14  C2'      -18.7310  -27.6960  -25.6120 C.3   2001  IPT2001     0.0117
     15  C3'      -17.5570  -28.5580  -27.7440 C.3   2001  IPT2001     0.0117
@<TRIPOS>BOND
     1    11    10    1
     2    10     8    1
     3     8     6    1
     4     8     9    1
     5    15    13    1
     6     6     7    1
     7     6     4    1
     8     9     1    1
     9     1     2    1
    10     1    12    1
    11     4     5    1
    12     4     2    1
    13    13    14    1
    14    13    12    1
    15     2     3    1
