@<TRIPOS>MOLECULE
1jyy_2FL_A_1.pdb
 23 24 0 0 0
SMALL
GASTEIGER

@<TRIPOS>ATOM
      1  C1        19.5600  145.3250    5.9320 C.3   2001  2FL2001     0.2718
      2  C2        19.8750  145.5800    7.3780 C.3   2001  2FL2001     0.2495
      3  C3        18.6720  145.9610    8.2320 C.3   2001  2FL2001     0.2220
      4  C4        18.1020  147.2100    7.5930 C.3   2001  2FL2001     0.2146
      5  C5        17.7690  146.8940    6.1140 C.3   2001  2FL2001     0.1835
      6  C6        17.1680  148.0750    5.4150 C.3   2001  2FL2001     0.2142
      7  O1        20.8020  145.1490    5.2880 O.3   2001  2FL2001    -0.3256
      8  F2        20.5500  144.4510    7.8430 F     2001  2FL2001    -0.2290
      9  O3        19.0610  146.1790    9.6020 O.3   2001  2FL2001    -0.2172
     10  O4        19.0780  148.2560    7.6910 O.3   2001  2FL2001    -0.2176
     11  O5        18.9330  146.4490    5.3710 O.3   2001  2FL2001    -0.3255
     12  O6        15.8300  148.2670    5.8240 O.3   2001  2FL2001    -0.2176
     13  C1'       22.2870  144.3080    1.5170 C.3   2001  2FL2001     0.3023
     14  C2'       20.9520  145.0460    1.5110 C.3   2001  2FL2001     0.2433
     15  C3'       20.6430  145.5930    2.9200 C.3   2001  2FL2001     0.2168
     16  C4'       20.8010  144.4950    3.9810 C.3   2001  2FL2001     0.1804
     17  C5'       22.1010  143.7130    3.8200 C.3   2001  2FL2001     0.1804
     18  C6'       22.1330  142.4770    4.6550 C.3   2001  2FL2001     0.2141
     19  O1'       22.4640  143.7270    0.2720 O.3   2001  2FL2001    -0.1869
     20  O2'       20.9340  146.1190    0.6000 O.3   2001  2FL2001    -0.2148
     21  O3'       19.3470  146.1390    2.9230 O.3   2001  2FL2001    -0.2175
     22  O5'       22.2480  143.2510    2.4720 O.3   2001  2FL2001    -0.3237
     23  O6'       23.1110  142.5960    5.6720 O.3   2001  2FL2001    -0.2176
@<TRIPOS>BOND
     1    19    13    1
     2    20    14    1
     3    14    13    1
     4    14    15    1
     5    13    22    1
     6    22    17    1
     7    15    21    1
     8    15    16    1
     9    17    16    1
    10    17    18    1
    11    16     7    1
    12    18    23    1
    13     7     1    1
    14    11     1    1
    15    11     5    1
    16     6    12    1
    17     6     5    1
    18     1     2    1
    19     5     4    1
    20     2     8    1
    21     2     3    1
    22     4    10    1
    23     4     3    1
    24     3     9    1
