@<TRIPOS>MOLECULE
1jyz_2FL_I_1.pdb
 23 24 0 0 0
SMALL
GASTEIGER

@<TRIPOS>ATOM
      1  C1        18.3850  129.8850  149.1210 C.3   2001  2FL2001     0.2718
      2  C2        18.7080  129.2710  150.4520 C.3   2001  2FL2001     0.2495
      3  C3        17.6280  128.3490  151.0060 C.3   2001  2FL2001     0.2220
      4  C4        16.3840  129.2060  151.1130 C.3   2001  2FL2001     0.2146
      5  C5        16.0740  129.7970  149.7170 C.3   2001  2FL2001     0.1835
      6  C6        14.8330  130.6360  149.7310 C.3   2001  2FL2001     0.2142
      7  O1        19.4140  130.8130  148.8600 O.3   2001  2FL2001    -0.3256
      8  F2        19.9490  128.6480  150.3110 F     2001  2FL2001    -0.2290
      9  O3        18.0220  127.7980  152.2760 O.3   2001  2FL2001    -0.2172
     10  O4        16.6290  130.2440  152.0720 O.3   2001  2FL2001    -0.2176
     11  O5        17.1730  130.5910  149.1990 O.3   2001  2FL2001    -0.3255
     12  O6        13.6810  129.8210  149.7980 O.3   2001  2FL2001    -0.2176
     13  C1'       20.5700  133.4640  145.8990 C.3   2001  2FL2001     0.3023
     14  C2'       19.0630  133.2350  145.9780 C.3   2001  2FL2001     0.2433
     15  C3'       18.7070  132.5040  147.2890 C.3   2001  2FL2001     0.2168
     16  C4'       19.5890  131.2620  147.4800 C.3   2001  2FL2001     0.1804
     17  C5'       21.0660  131.5540  147.2380 C.3   2001  2FL2001     0.1804
     18  C6'       21.8870  130.3110  147.1420 C.3   2001  2FL2001     0.2141
     19  O1'       20.8580  134.0050  144.6570 O.3   2001  2FL2001    -0.1869
     20  O2'       18.3330  134.4360  145.9230 O.3   2001  2FL2001    -0.2148
     21  O3'       17.3400  132.1760  147.2710 O.3   2001  2FL2001    -0.2175
     22  O5'       21.2500  132.2150  145.9810 O.3   2001  2FL2001    -0.3237
     23  O6'       22.7710  130.2200  148.2440 O.3   2001  2FL2001    -0.2176
@<TRIPOS>BOND
     1    19    13    1
     2    13    14    1
     3    13    22    1
     4    20    14    1
     5    14    15    1
     6    22    17    1
     7    18    17    1
     8    18    23    1
     9    17    16    1
    10    21    15    1
    11    15    16    1
    12    16     7    1
    13     7     1    1
    14     1    11    1
    15     1     2    1
    16    11     5    1
    17     5     6    1
    18     5     4    1
    19     6    12    1
    20     8     2    1
    21     2     3    1
    22     3     4    1
    23     3     9    1
    24     4    10    1
