@<TRIPOS>MOLECULE
1jz0_2FG_A_1.pdb
 11 11 0 0 0
SMALL
GASTEIGER

@<TRIPOS>ATOM
      1  C1        18.5190  145.7890   10.1440 C.3   2001  2FG2001     0.1801
      2  C2        19.4730  146.9120   10.3890 C.3   2001  2FG2001     0.2230
      3  C3        18.7330  148.2520   10.3480 C.3   2001  2FG2001     0.2194
      4  C4        18.1330  148.3850    8.9410 C.3   2001  2FG2001     0.2144
      5  C5        17.2270  147.1460    8.6190 C.3   2001  2FG2001     0.1810
      6  C6        16.8880  147.0000    7.1550 C.3   2001  2FG2001     0.2141
      7  F2        20.0050  146.7560   11.6530 F     2001  2FG2001    -0.2317
      8  O3        19.6070  149.3710   10.6810 O.3   2001  2FG2001    -0.2173
      9  O4        19.2200  148.5370    7.9850 O.3   2001  2FG2001    -0.2176
     10  O5        17.8920  145.8840    8.8850 O.3   2001  2FG2001    -0.3479
     11  O6        15.8470  147.8930    6.8030 O.3   2001  2FG2001    -0.2176
@<TRIPOS>BOND
     1    11     6    1
     2     6     5    1
     3     9     4    1
     4     5    10    1
     5     5     4    1
     6    10     1    1
     7     4     3    1
     8     1     2    1
     9     3     2    1
    10     3     8    1
    11     2     7    1
