@<TRIPOS>MOLECULE
1jz1_2FG_I_1.pdb
 11 11 0 0 0
SMALL
GASTEIGER

@<TRIPOS>ATOM
      1  C1        17.8720  126.9170  152.2490 C.3   2001  2FG2001     0.1801
      2  C2        18.0770  127.8960  153.3580 C.3   2001  2FG2001     0.2230
      3  C3        16.7260  128.3380  153.9280 C.3   2001  2FG2001     0.2194
      4  C4        15.9600  129.0140  152.7810 C.3   2001  2FG2001     0.2144
      5  C5        15.8480  128.0400  151.5570 C.3   2001  2FG2001     0.1810
      6  C6        15.4420  128.7170  150.2710 C.3   2001  2FG2001     0.2141
      7  F2        18.7800  127.2650  154.3640 F     2001  2FG2001    -0.2317
      8  O3        16.8800  129.2190  155.0800 O.3   2001  2FG2001    -0.2173
      9  O4        16.6370  130.2550  152.4380 O.3   2001  2FG2001    -0.2176
     10  O5        17.1260  127.4620  151.1840 O.3   2001  2FG2001    -0.3479
     11  O6        14.0440  128.9450  150.2580 O.3   2001  2FG2001    -0.2176
@<TRIPOS>BOND
     1    11     6    1
     2     6     5    1
     3    10     5    1
     4    10     1    1
     5     5     4    1
     6     1     2    1
     7     9     4    1
     8     4     3    1
     9     2     3    1
    10     2     7    1
    11     3     8    1
