@<TRIPOS>MOLECULE
1jz2_2FG_A_1.pdb
 11 11 0 0 0
SMALL
GASTEIGER

@<TRIPOS>ATOM
      1  C1        -9.8690  -27.3670  -25.9350 C.3   2001  2FG2001     0.1801
      2  C2        -9.4560  -28.6350  -25.2410 C.3   2001  2FG2001     0.2230
      3  C3        -8.8840  -29.5660  -26.3080 C.3   2001  2FG2001     0.2194
      4  C4        -9.9300  -29.8660  -27.4040 C.3   2001  2FG2001     0.2144
      5  C5       -10.4700  -28.5240  -27.9020 C.3   2001  2FG2001     0.1810
      6  C6       -11.7520  -28.6460  -28.7290 C.3   2001  2FG2001     0.2141
      7  F2        -8.5010  -28.3560  -24.2650 F     2001  2FG2001    -0.2317
      8  O3        -8.4170  -30.7410  -25.6850 O.3   2001  2FG2001    -0.2173
      9  O4       -11.0350  -30.5500  -26.7800 O.3   2001  2FG2001    -0.2176
     10  O5       -10.9380  -27.8210  -26.7390 O.3   2001  2FG2001    -0.3479
     11  O6       -11.5930  -29.5120  -29.8530 O.3   2001  2FG2001    -0.2176
@<TRIPOS>BOND
     1    11     6    1
     2     6     5    1
     3     5     4    1
     4     5    10    1
     5     4     9    1
     6     4     3    1
     7    10     1    1
     8     3     8    1
     9     3     2    1
    10     1     2    1
    11     2     7    1
