@<TRIPOS>MOLECULE
1jz3_2DG_A_1.pdb
 10 10 0 0 0
SMALL
GASTEIGER

@<TRIPOS>ATOM
      1  C1        -9.0660  -27.5520  -26.6990 C.3   2001  2DG2001     0.1450
      2  C2        -8.6050  -28.8840  -26.0800 C.3   2001  2DG2001     0.0677
      3  C3        -8.0950  -29.7970  -27.2180 C.3   2001  2DG2001     0.1872
      4  C4        -9.2120  -30.0750  -28.2100 C.3   2001  2DG2001     0.2116
      5  C5        -9.6250  -28.6970  -28.7690 C.3   2001  2DG2001     0.1808
      6  C6       -10.8850  -28.8410  -29.5830 C.3   2001  2DG2001     0.2141
      7  O3        -7.6170  -31.0000  -26.5980 O.3   2001  2DG2001    -0.2202
      8  O4       -10.2890  -30.7440  -27.5130 O.3   2001  2DG2001    -0.2177
      9  O5       -10.0570  -27.7960  -27.7240 O.3   2001  2DG2001    -0.3508
     10  O6       -10.6540  -29.7330  -30.6820 O.3   2001  2DG2001    -0.2176
@<TRIPOS>BOND
     1    10     6    1
     2     6     5    1
     3     5     4    1
     4     5     9    1
     5     4     8    1
     6     4     3    1
     7     9     1    1
     8     3     7    1
     9     3     2    1
    10     1     2    1
