@<TRIPOS>MOLECULE
1jz4_2DG_A_1.pdb
 10 10 0 0 0
SMALL
GASTEIGER

@<TRIPOS>ATOM
      1  C1        -9.0490  -27.5660  -26.7730 C.3   2001  2DG2001     0.1450
      2  C2        -8.6440  -28.8700  -26.0590 C.3   2001  2DG2001     0.0677
      3  C3        -8.0580  -29.7910  -27.1620 C.3   2001  2DG2001     0.1872
      4  C4        -9.0940  -30.1390  -28.2300 C.3   2001  2DG2001     0.2116
      5  C5        -9.5790  -28.7640  -28.7960 C.3   2001  2DG2001     0.1808
      6  C6       -10.7590  -28.9160  -29.7140 C.3   2001  2DG2001     0.2141
      7  O3        -7.5930  -30.9800  -26.5210 O.3   2001  2DG2001    -0.2202
      8  O4       -10.1730  -30.8040  -27.5260 O.3   2001  2DG2001    -0.2177
      9  O5       -10.0580  -27.9040  -27.7490 O.3   2001  2DG2001    -0.3508
     10  O6       -10.4700  -29.7980  -30.8000 O.3   2001  2DG2001    -0.2176
@<TRIPOS>BOND
     1    10     6    1
     2     6     5    1
     3     5     4    1
     4     5     9    1
     5     4     8    1
     6     4     3    1
     7     9     1    1
     8     3     7    1
     9     3     2    1
    10     1     2    1
