@<TRIPOS>MOLECULE
1jz5_149_A_1.pdb
 12 12 0 0 0
SMALL
GASTEIGER

@<TRIPOS>ATOM
      1  C1       -10.4690  -28.0970  -26.5400 C.2   2001  1492001     0.3505
      2  C2        -9.4430  -29.0460  -25.9960 C.3   2001  1492001     0.2823
      3  C3        -8.5120  -29.6130  -27.0870 C.3   2001  1492001     0.2270
      4  C4        -9.3790  -30.0870  -28.2930 C.3   2001  1492001     0.2276
      5  C5        -9.8510  -28.7510  -28.8820 C.3   2001  1492001     0.2344
      6  C6       -11.0240  -29.0040  -29.8160 C.3   2001  1492001     0.2281
      7  O1       -11.0760  -27.3610  -25.7510 O.2   2001  1492001    -0.2472
      8  O2        -8.6290  -28.4540  -24.8920 O.3   2001  1492001    -0.2082
      9  O3        -7.9250  -30.7800  -26.5010 O.3   2001  1492001    -0.2169
     10  O4       -10.4820  -30.8530  -27.7260 O.3   2001  1492001    -0.2163
     11  O5       -10.6550  -28.0200  -27.9420 O.3   2001  1492001    -0.4450
     12  O6       -10.5490  -29.8130  -30.8800 O.3   2001  1492001    -0.2163
@<TRIPOS>BOND
     1    12     6    1
     2     6     5    1
     3     5     4    1
     4     5    11    1
     5     4    10    1
     6     4     3    1
     7    11     1    1
     8     3     9    1
     9     3     2    1
    10     1     2    1
    11     1     7    2
    12     2     8    1
