@<TRIPOS>MOLECULE
1jz6_GTZ_A_1.pdb
 14 15 0 0 0
SMALL
GASTEIGER

@<TRIPOS>ATOM
      1  C1       -10.6370  -28.5700  -26.2360 C.ar  2001  GTZ2001     0.1940
      2  C2        -9.5540  -29.4110  -25.6590 C.3   2001  GTZ2001     0.2439
      3  C3        -8.6980  -29.7740  -26.8480 C.3   2001  GTZ2001     0.2217
      4  C4        -9.5570  -30.2860  -27.9930 C.3   2001  GTZ2001     0.2100
      5  C5       -10.1710  -29.0640  -28.6730 C.3   2001  GTZ2001     0.1739
      6  C6       -11.2660  -29.4400  -29.6850 C.3   2001  GTZ2001     0.2091
      7  N1       -11.4750  -27.8050  -25.5740 N.ar  2001  GTZ2001    -0.1100
      8  O2        -8.7750  -28.5440  -24.7850 O.3   2001  GTZ2001    -0.2120
      9  O3        -7.8430  -30.8040  -26.4290 O.3   2001  GTZ2001    -0.2171
     10  O4       -10.5580  -31.1770  -27.4690 O.3   2001  GTZ2001    -0.2181
     11  N5       -10.8290  -28.3930  -27.5550 N.ar  2001  GTZ2001    -0.2113
     12  O6       -10.6810  -29.8880  -30.8960 O.3   2001  GTZ2001    -0.2182
     13  NA       -11.8540  -27.5600  -27.7470 N.ar  2001  GTZ2001    -0.0430
     14  NB       -12.2140  -27.1910  -26.5520 N.ar  2001  GTZ2001    -0.0229
@<TRIPOS>BOND
     1    12     6    1
     2     6     5    1
     3     5     4    1
     4     5    11    1
     5     4    10    1
     6     4     3    1
     7    13    11   ar
     8    13    14   ar
     9    11     1   ar
    10     3     9    1
    11     3     2    1
    12    14     7   ar
    13     1     2    1
    14     1     7   ar
    15     2     8    1
