@<TRIPOS>MOLECULE
1jz7_GAL_A_1.pdb
 12 12 0 0 0
SMALL
GASTEIGER

@<TRIPOS>ATOM
      1  C1       -10.5280  -28.0050  -26.6440 C.3   2001  GAL2001     0.3024
      2  C2        -9.5110  -28.9930  -26.0310 C.3   2001  GAL2001     0.2434
      3  C3        -8.6660  -29.6550  -27.1410 C.3   2001  GAL2001     0.2199
      4  C4        -9.5640  -30.2440  -28.2690 C.3   2001  GAL2001     0.2144
      5  C5       -10.4840  -29.1700  -28.8180 C.3   2001  GAL2001     0.1836
      6  C6       -11.5980  -29.8180  -29.7380 C.3   2001  GAL2001     0.2142
      7  O1       -11.5990  -27.5660  -25.7570 O.3   2001  GAL2001    -0.1869
      8  O2        -8.6280  -28.4950  -24.9150 O.3   2001  GAL2001    -0.2148
      9  O3        -7.8920  -30.7390  -26.5590 O.3   2001  GAL2001    -0.2174
     10  O4       -10.4350  -31.2450  -27.7330 O.3   2001  GAL2001    -0.2176
     11  O5       -11.2180  -28.6540  -27.6710 O.3   2001  GAL2001    -0.3236
     12  O6       -11.0720  -30.3260  -31.0450 O.3   2001  GAL2001    -0.2176
@<TRIPOS>BOND
     1    12     6    1
     2     6     5    1
     3     5     4    1
     4     5    11    1
     5     4    10    1
     6     4     3    1
     7    11     1    1
     8     3     9    1
     9     3     2    1
    10     1     2    1
    11     1     7    1
    12     2     8    1
