@<TRIPOS>MOLECULE
1jz8_LAK_A_1.pdb
 23 24 0 0 0
SMALL
GASTEIGER

@<TRIPOS>ATOM
      1  C1       -13.5290  -28.6730  -27.5270 C.3   2001  LAK2001     0.2695
      2  C2       -12.3490  -28.7040  -26.6210 C.3   2001  LAK2001     0.2406
      3  C3       -11.0200  -28.5130  -27.3790 C.3   2001  LAK2001     0.2198
      4  C4       -10.9360  -29.5340  -28.5050 C.3   2001  LAK2001     0.2144
      5  C5       -12.2680  -29.5110  -29.3520 C.3   2001  LAK2001     0.1835
      6  C6       -12.3730  -30.5690  -30.4770 C.3   2001  LAK2001     0.2142
      7  O1       -14.6700  -28.9440  -26.7730 O.3   2001  LAK2001    -0.3259
      8  O2       -12.5230  -27.5390  -25.7340 O.3   2001  LAK2001    -0.2149
      9  O3        -9.9950  -28.8570  -26.3850 O.3   2001  LAK2001    -0.2174
     10  O4       -10.9430  -30.8820  -27.8420 O.3   2001  LAK2001    -0.2176
     11  O5       -13.4150  -29.7090  -28.5020 O.3   2001  LAK2001    -0.3256
     12  O6       -11.2510  -30.4220  -31.3500 O.3   2001  LAK2001    -0.2176
     13  C1'      -17.6180  -27.0960  -24.9590 C.3   2001  LAK2001     0.3024
     14  C2'      -19.0000  -26.8680  -25.5370 C.3   2001  LAK2001     0.2434
     15  C3'      -19.4520  -28.0350  -26.4220 C.3   2001  LAK2001     0.2199
     16  C4'      -18.3240  -28.6640  -27.2740 C.3   2001  LAK2001     0.2143
     17  C5'      -16.9630  -28.5850  -26.6030 C.3   2001  LAK2001     0.1803
     18  C6'      -15.8770  -28.7970  -27.5500 C.3   2001  LAK2001     0.1770
     19  O1'      -17.1800  -25.9560  -24.2760 O.3   2001  LAK2001    -0.1869
     20  O2'      -19.9120  -26.6750  -24.4510 O.3   2001  LAK2001    -0.2148
     21  O3'      -20.5530  -27.6160  -27.2410 O.3   2001  LAK2001    -0.2174
     22  O4'      -18.6230  -30.0600  -27.4890 O.3   2001  LAK2001    -0.2176
     23  O5'      -16.7540  -27.2750  -26.0310 O.3   2001  LAK2001    -0.3237
@<TRIPOS>BOND
     1    12     6    1
     2     6     5    1
     3     5     4    1
     4     5    11    1
     5     4    10    1
     6     4     3    1
     7    11     1    1
     8    18     7    1
     9    18    17    1
    10     1     7    1
    11     1     2    1
    12    22    16    1
    13     3     2    1
    14     3     9    1
    15    16    17    1
    16    16    15    1
    17    21    15    1
    18     2     8    1
    19    17    23    1
    20    15    14    1
    21    23    13    1
    22    14    13    1
    23    14    20    1
    24    13    19    1
