@<TRIPOS>MOLECULE
1jze_LRU_A_1.pdb
 30 36 0 0 0
SMALL
GASTEIGER

@<TRIPOS>ATOM
      1 RU         18.9160   11.1830   16.8590 Ru    904  LRU904      0.0000
      2  N2        18.8600   13.1640   17.4680 N.pl3 904  LRU904      0.0000
      3  C3        17.9420   14.0700   17.0600 C.3   904  LRU904      0.0000
      4  C4        17.9430   15.3870   17.5150 C.2   904  LRU904      0.0000
      5  C5        18.9310   15.7450   18.4080 C.2   904  LRU904      0.0000
      6  C6        19.8600   14.8350   18.8240 C.2   904  LRU904      0.0000
      7  C7        19.8320   13.5240   18.3380 C.2   904  LRU904      0.0000
      8  C8        20.7570   12.4560   18.6900 C.3   904  LRU904      0.0000
      9  C9        21.7930   12.6380   19.5670 C.2   904  LRU904      0.0000
     10  C10       22.6390   11.5840   19.8490 C.2   904  LRU904      0.0000
     11  C11       22.4030   10.3510   19.2400 C.2   904  LRU904      0.0000
     12  C12       21.3620   10.2100   18.3740 C.2   904  LRU904      0.0000
     13  N13       20.5470   11.2530   18.1000 N.pl3 904  LRU904      0.0000
     14  N26       17.7670   10.3850   18.4340 N.pl3 904  LRU904      0.0000
     15  C27       17.1810   11.0860   19.4490 C.3   904  LRU904      0.0000
     16  C28       16.4440   10.4610   20.4960 C.2   904  LRU904      0.0000
     17  C29       16.2930    9.0600   20.4890 C.2   904  LRU904      0.0000
     18  C30       16.8850    8.3630   19.4580 C.2   904  LRU904      0.0000
     19  C31       17.6140    9.0270   18.4280 C.2   904  LRU904      0.0000
     20  C32       18.2670    8.3500   17.3170 C.3   904  LRU904      0.0000
     21  C33       18.2090    6.9590   17.1710 C.2   904  LRU904      0.0000
     22  C34       18.8330    6.3710   16.1080 C.2   904  LRU904      0.0000
     23  C35       19.5230    7.1550   15.2010 C.2   904  LRU904      0.0000
     24  C36       19.5640    8.5330   15.3780 C.2   904  LRU904      0.0000
     25  N37       18.9410    9.1370   16.4400 N.pl3 904  LRU904      0.0000
     26  CG        19.8300   12.8060   14.3570 C.ar  904  LRU904      0.0000
     27  CD2       20.9410   13.0150   13.6180 C.ar  904  LRU904      0.0000
     28  ND1       20.0010   11.7330   15.2030 N.ar  904  LRU904      0.0000
     29  CE1       21.2300   11.3330   14.9360 C.ar  904  LRU904      0.0000
     30  NE2       21.8340   12.0520   14.0080 N.ar  904  LRU904      0.0000
@<TRIPOS>BOND
     1    27    30   ar
     2    27    26   ar
     3    30    29   ar
     4    26    28   ar
     5    29    28   ar
     6    23    24    2
     7    23    22    1
     8    28     1    1
     9    24    25    1
    10    22    21    2
    11    25     1    1
    12    25    20    1
    13     1     2    1
    14     1    13    1
    15     1    14    1
    16     3     2    1
    17     3     4    1
    18    21    20    1
    19    20    19    1
    20     2     7    1
    21     4     5    2
    22    13    12    1
    23    13     8    1
    24     7     8    1
    25     7     6    2
    26    12    11    2
    27     5     6    1
    28    19    14    1
    29    19    18    2
    30    14    15    1
    31     8     9    1
    32    11    10    1
    33    15    16    1
    34    18    17    1
    35     9    10    2
    36    17    16    2
