@<TRIPOS>MOLECULE
1jze_DRU_A_1.pdb
 30 36 0 0 0
SMALL
GASTEIGER

@<TRIPOS>ATOM
      1 RU         18.9650   11.1430   16.7930 Ru    903  DRU903      0.0000
      2  N2        19.2360    9.2090   16.0970 N.pl3 903  DRU903      0.0000
      3  C3        18.7180    8.0740   16.6560 C.3   903  DRU903      0.0000
      4  C4        19.0200    6.8090   16.1670 C.2   903  DRU903      0.0000
      5  C5        19.8730    6.7260   15.0850 C.2   903  DRU903      0.0000
      6  C6        20.3940    7.8560   14.5200 C.2   903  DRU903      0.0000
      7  C7        20.0720    9.1110   15.0360 C.2   903  DRU903      0.0000
      8  C8        20.5600   10.3910   14.5120 C.3   903  DRU903      0.0000
      9  C9        21.4320   10.4960   13.4230 C.2   903  DRU903      0.0000
     10  C10       21.8340   11.7420   13.0030 C.2   903  DRU903      0.0000
     11  C11       21.3770   12.8730   13.6620 C.2   903  DRU903      0.0000
     12  C12       20.5190   12.7260   14.7370 C.2   903  DRU903      0.0000
     13  N13       20.1250   11.5030   15.1560 N.pl3 903  DRU903      0.0000
     14  N26       20.6070   11.0750   18.0600 N.pl3 903  DRU903      0.0000
     15  C27       21.3910    9.9840   18.2400 C.3   903  DRU903      0.0000
     16  C28       22.5210   10.0230   19.0210 C.2   903  DRU903      0.0000
     17  C29       22.8680   11.2340   19.6390 C.2   903  DRU903      0.0000
     18  C30       22.0840   12.3480   19.4790 C.2   903  DRU903      0.0000
     19  C31       20.9240   12.2530   18.6710 C.2   903  DRU903      0.0000
     20  C32       19.9870   13.3520   18.4110 C.3   903  DRU903      0.0000
     21  C33       20.1530   14.6420   18.9400 C.2   903  DRU903      0.0000
     22  C34       19.2280   15.6150   18.6550 C.2   903  DRU903      0.0000
     23  C35       18.1550   15.3190   17.8320 C.2   903  DRU903      0.0000
     24  C36       18.0300   14.0310   17.3120 C.2   903  DRU903      0.0000
     25  N37       18.9470   13.0620   17.5860 N.pl3 903  DRU903      0.0000
     26  CG        17.9210   11.1370   19.6050 C.ar  903  DRU903      0.0000
     27  CD2       17.1220   10.6390   20.5780 C.ar  903  DRU903      0.0000
     28  ND1       17.9010   10.4490   18.4100 N.ar  903  DRU903      0.0000
     29  CE1       17.0300    9.5250   18.7800 C.ar  903  DRU903      0.0000
     30  NE2       16.5230    9.5460   20.0000 N.ar  903  DRU903      0.0000
@<TRIPOS>BOND
     1    10     9    2
     2    10    11    1
     3     9     8    1
     4    11    12    2
     5     8     7    1
     6     8    13    1
     7     6     7    2
     8     6     5    1
     9    12    13    1
    10     7     2    1
    11     5     4    2
    12    13     1    1
    13     2     3    1
    14     2     1    1
    15     4     3    1
    16     1    25    1
    17     1    14    1
    18     1    28    1
    19    24    25    1
    20    24    23    2
    21    25    20    1
    22    23    22    1
    23    14    15    1
    24    14    19    1
    25    15    16    1
    26    28    29   ar
    27    28    26   ar
    28    20    19    1
    29    20    21    1
    30    22    21    2
    31    19    18    2
    32    29    30   ar
    33    16    17    2
    34    18    17    1
    35    26    27   ar
    36    30    27   ar
