@<TRIPOS>MOLECULE
1jzf_IME_A_1.pdb
 12 12 0 0 0
SMALL
GASTEIGER

@<TRIPOS>ATOM
      1 CU         26.3820   23.0730   -0.0260 Cu    902  IME902      0.0000
      2  O1        23.6060   23.0380    0.4690 O.3   902  IME902      0.0000
      3  CG1       27.0910   18.6370   -0.0350 C.ar  902  IME902      0.0000
      4  CDC       27.5180   19.9190   -0.1120 C.ar  902  IME902      0.0000
      5  NDB       25.7180   18.6980    0.0650 N.ar  902  IME902      0.0000
      6  CEB       25.3300   19.9590    0.0510 C.ar  902  IME902      0.0000
      7  NEC       26.4040   20.7230   -0.0550 N.ar  902  IME902      0.0000
      8  CG2       26.9510   23.6320    4.0810 C.ar  902  IME902      0.0000
      9  CDM       27.3750   23.7210    2.7970 C.ar  902  IME902      0.0000
     10  NDL       25.7020   23.0500    4.0310 N.ar  902  IME902      0.0000
     11  CEL       25.3820   22.8000    2.7750 C.ar  902  IME902      0.0000
     12  NEM       26.3800   23.1980    2.0040 N.ar  902  IME902      0.0000
@<TRIPOS>BOND
     1     4     7   ar
     2     4     3   ar
     3     7     1    1
     4     7     6   ar
     5     3     5   ar
     6     1    12    1
     7     6     5   ar
     8    12    11   ar
     9    12     9   ar
    10    11    10   ar
    11     9     8   ar
    12    10     8   ar
