@<TRIPOS>MOLECULE
1jzf_RTB_A_1.pdb
 33 41 0 0 0
SMALL
GASTEIGER

@<TRIPOS>ATOM
      1 RU         18.8500   10.5290   17.6860 Ru    903  RTB903      0.0000
      2  N2        20.5330   10.4700   18.7110 N.pl3 903  RTB903      0.0000
      3  N3        18.9990    8.6780   17.0410 N.pl3 903  RTB903      0.0000
      4  N4        18.7970   12.4310   18.3640 N.pl3 903  RTB903      0.0000
      5  N5        19.9840   10.8210   16.0460 N.pl3 903  RTB903      0.0000
      6  N6        17.7790    9.6060   19.0990 N.pl3 903  RTB903      0.0000
      7  C7        21.3430    9.3910   18.8250 C.2   903  RTB903      0.0000
      8  C8        22.4970    9.4260   19.5580 C.2   903  RTB903      0.0000
      9  C9        22.8370   10.6250   20.2020 C.2   903  RTB903      0.0000
     10  C10       22.0010   11.7170   20.0820 C.ar  903  RTB903      0.0000
     11  C11       20.8560   11.6060   19.3230 C.ar  903  RTB903      0.0000
     12  C12       19.7070    8.4290   15.9210 C.2   903  RTB903      0.0000
     13  C13       19.8260    7.1370   15.4540 C.2   903  RTB903      0.0000
     14  C14       19.2050    6.1170   16.1600 C.2   903  RTB903      0.0000
     15  C15       18.4650    6.3890   17.3350 C.2   903  RTB903      0.0000
     16  C16       18.4020    7.7270   17.7360 C.2   903  RTB903      0.0000
     17  C17       17.9160   13.4210   18.1980 C.2   903  RTB903      0.0000
     18  C18       18.1050   14.6980   18.7640 C.2   903  RTB903      0.0000
     19  C19       19.2130   14.9350   19.5320 C.2   903  RTB903      0.0000
     20  C20       20.1400   13.9250   19.7220 C.ar  903  RTB903      0.0000
     21  C21       19.9200   12.6730   19.1520 C.ar  903  RTB903      0.0000
     22  C22       20.2650    9.6410   15.3510 C.2   903  RTB903      0.0000
     23  C23       20.4700   11.9860   15.5610 C.2   903  RTB903      0.0000
     24  C24       21.2390   12.0590   14.3880 C.2   903  RTB903      0.0000
     25  C25       21.5140   10.8950   13.7110 C.2   903  RTB903      0.0000
     26  C26       21.0360    9.6920   14.1720 C.2   903  RTB903      0.0000
     27  C27       17.6800    8.2430   18.9240 C.3   903  RTB903      0.0000
     28  C28       17.1400   10.1590   20.1880 C.2   903  RTB903      0.0000
     29  C29       16.4460    9.4130   21.0860 C.2   903  RTB903      0.0000
     30  C30       16.3590    8.0450   20.8920 C.2   903  RTB903      0.0000
     31  C31       16.9890    7.4530   19.8140 C.2   903  RTB903      0.0000
     32  C32       21.3650   14.0580   20.5130 C.ar  903  RTB903      0.0000
     33  C33       22.2460   13.0170   20.6800 C.ar  903  RTB903      0.0000
@<TRIPOS>BOND
     1    25    26    2
     2    25    24    1
     3    26    22    1
     4    24    23    2
     5    22    12    2
     6    22     5    1
     7    13    12    1
     8    13    14    2
     9    23     5    1
    10    12     3    1
    11     5     1    1
    12    14    15    1
    13     3     1    1
    14     3    16    1
    15    15    16    2
    16     1     4    1
    17     1     2    1
    18     1     6    1
    19    16    27    1
    20    17     4    1
    21    17    18    2
    22     4    21    1
    23     2     7    1
    24     2    11    1
    25    18    19    1
    26     7     8    2
    27    27     6    1
    28    27    31    1
    29     6    28    1
    30    21    11   ar
    31    21    20   ar
    32    11    10   ar
    33    19    20    2
    34     8     9    1
    35    20    32   ar
    36    31    30    2
    37    10     9    2
    38    10    33   ar
    39    28    29    2
    40    32    33   ar
    41    30    29    1
