@<TRIPOS>MOLECULE
1jzg_IMF_A_1.pdb
 12 12 0 0 0
SMALL
GASTEIGER

@<TRIPOS>ATOM
      1 CU         26.3940   22.9340    0.0210 Cu    902  IMF902      0.0000
      2  O1        23.7460   23.1410    0.6250 O.3   902  IMF902      0.0000
      3  CG1       27.0830   18.7880   -0.0270 C.ar  902  IMF902      0.0000
      4  CDC       27.5100   20.0700   -0.1040 C.ar  902  IMF902      0.0000
      5  NDB       25.7100   18.8490    0.0730 N.ar  902  IMF902      0.0000
      6  CEB       25.3220   20.1100    0.0590 C.ar  902  IMF902      0.0000
      7  NEC       26.3960   20.8740   -0.0470 N.ar  902  IMF902      0.0000
      8  CG2       26.9510   23.6320    4.0810 C.ar  902  IMF902      0.0000
      9  CDM       27.3750   23.7210    2.7970 C.ar  902  IMF902      0.0000
     10  NDL       25.7020   23.0500    4.0310 N.ar  902  IMF902      0.0000
     11  CEL       25.3820   22.8000    2.7750 C.ar  902  IMF902      0.0000
     12  NEM       26.3800   23.1980    2.0040 N.ar  902  IMF902      0.0000
@<TRIPOS>BOND
     1     4     7   ar
     2     4     3   ar
     3     7     1    1
     4     7     6   ar
     5     3     5   ar
     6     1    12    1
     7     6     5   ar
     8    12    11   ar
     9    12     9   ar
    10    11    10   ar
    11     9     8   ar
    12    10     8   ar
