@<TRIPOS>MOLECULE
1jzg_RTB_A_1.pdb
 33 41 0 0 0
SMALL
GASTEIGER

@<TRIPOS>ATOM
      1 RU         18.8950   10.6460   17.6950 Ru    903  RTB903      0.0000
      2  N2        20.5810   10.6160   18.7750 N.pl3 903  RTB903      0.0000
      3  N3        19.0690    8.7880   17.0540 N.pl3 903  RTB903      0.0000
      4  N4        18.8090   12.5570   18.4200 N.pl3 903  RTB903      0.0000
      5  N5        20.0240   10.9440   16.0400 N.pl3 903  RTB903      0.0000
      6  N6        17.7890    9.7070   19.0930 N.pl3 903  RTB903      0.0000
      7  C7        21.4230    9.5630   18.9090 C.2   903  RTB903      0.0000
      8  C8        22.5740    9.6290   19.6610 C.2   903  RTB903      0.0000
      9  C9        22.8890   10.8360   20.3050 C.2   903  RTB903      0.0000
     10  C10       22.0360   11.9050   20.1750 C.ar  903  RTB903      0.0000
     11  C11       20.8890   11.7720   19.4030 C.ar  903  RTB903      0.0000
     12  C12       19.7940    8.5430   15.9410 C.2   903  RTB903      0.0000
     13  C13       19.9340    7.2460   15.4880 C.2   903  RTB903      0.0000
     14  C14       19.3110    6.2280   16.1910 C.2   903  RTB903      0.0000
     15  C15       18.5480    6.5000   17.3500 C.2   903  RTB903      0.0000
     16  C16       18.4640    7.8370   17.7360 C.2   903  RTB903      0.0000
     17  C17       17.9300   13.5510   18.2550 C.2   903  RTB903      0.0000
     18  C18       18.1050   14.8240   18.8430 C.2   903  RTB903      0.0000
     19  C19       19.2100   15.0800   19.6130 C.2   903  RTB903      0.0000
     20  C20       20.1400   14.0810   19.8120 C.ar  903  RTB903      0.0000
     21  C21       19.9440   12.8240   19.2160 C.ar  903  RTB903      0.0000
     22  C22       20.3340    9.7550   15.3580 C.2   903  RTB903      0.0000
     23  C23       20.4850   12.1080   15.5300 C.2   903  RTB903      0.0000
     24  C24       21.2540   12.1730   14.3500 C.2   903  RTB903      0.0000
     25  C25       21.5600   11.0060   13.6920 C.2   903  RTB903      0.0000
     26  C26       21.1130    9.8050   14.1760 C.2   903  RTB903      0.0000
     27  C27       17.7130    8.3430   18.9120 C.3   903  RTB903      0.0000
     28  C28       17.1100   10.2470   20.1710 C.2   903  RTB903      0.0000
     29  C29       16.3790    9.4840   21.0350 C.2   903  RTB903      0.0000
     30  C30       16.3170    8.1170   20.8330 C.2   903  RTB903      0.0000
     31  C31       16.9850    7.5420   19.7730 C.2   903  RTB903      0.0000
     32  C32       21.3570   14.2330   20.6240 C.ar  903  RTB903      0.0000
     33  C33       22.2490   13.2060   20.7920 C.ar  903  RTB903      0.0000
@<TRIPOS>BOND
     1    25    26    2
     2    25    24    1
     3    26    22    1
     4    24    23    2
     5    22    12    2
     6    22     5    1
     7    13    12    1
     8    13    14    2
     9    23     5    1
    10    12     3    1
    11     5     1    1
    12    14    15    1
    13     3     1    1
    14     3    16    1
    15    15    16    2
    16     1     4    1
    17     1     2    1
    18     1     6    1
    19    16    27    1
    20    17     4    1
    21    17    18    2
    22     4    21    1
    23     2     7    1
    24     2    11    1
    25    18    19    1
    26     7     8    2
    27    27     6    1
    28    27    31    1
    29     6    28    1
    30    21    11   ar
    31    21    20   ar
    32    11    10   ar
    33    19    20    2
    34     8     9    1
    35    31    30    2
    36    20    32   ar
    37    28    29    2
    38    10     9    2
    39    10    33   ar
    40    32    33   ar
    41    30    29    1
