@<TRIPOS>MOLECULE
1jzh_RTA_A_1.pdb
 31 38 0 0 0
SMALL
GASTEIGER

@<TRIPOS>ATOM
      1 RU         18.2660   11.4370   17.3710 Ru    902  RTA902      0.0000
      2  N2        19.8220   11.7290   18.5720 N.pl3 902  RTA902      0.0000
      3  N3        18.7330    9.5860   16.9190 N.pl3 902  RTA902      0.0000
      4  N4        17.7870   13.3330   17.8750 N.pl3 902  RTA902      0.0000
      5  N5        19.5620   11.7700   15.8640 N.pl3 902  RTA902      0.0000
      6  N6        17.2780   10.4850   18.8380 N.pl3 902  RTA902      0.0000
      7  C7        20.7840   10.8330   18.8140 C.3   902  RTA902      0.0000
      8  C8        21.7900   11.0830   19.6940 C.2   902  RTA902      0.0000
      9  C9        21.8160   12.3080   20.3700 C.2   902  RTA902      0.0000
     10  C10       20.8340   13.2420   20.1340 C.2   902  RTA902      0.0000
     11  C11       19.8150   12.9420   19.2100 C.2   902  RTA902      0.0000
     12  C12       19.5350    9.3620   15.8600 C.2   902  RTA902      0.0000
     13  C13       19.8050    8.0650   15.4640 C.2   902  RTA902      0.0000
     14  C14       19.2330    7.0180   16.1850 C.2   902  RTA902      0.0000
     15  C15       18.3880    7.2720   17.2960 C.2   902  RTA902      0.0000
     16  C16       18.1710    8.6170   17.6180 C.2   902  RTA902      0.0000
     17  C17       16.7560   14.1100   17.5140 C.3   902  RTA902      0.0000
     18  C18       16.5410   15.3970   18.0620 C.2   902  RTA902      0.0000
     19  C19       17.4090   15.8900   18.9890 C.2   902  RTA902      0.0000
     20  C20       18.4810   15.1200   19.3810 C.2   902  RTA902      0.0000
     21  C21       18.6910   13.8260   18.8320 C.2   902  RTA902      0.0000
     22  C22       20.0110   10.6000   15.2620 C.2   902  RTA902      0.0000
     23  C23       19.9720   12.9590   15.3560 C.2   902  RTA902      0.0000
     24  C24       20.8270   13.0570   14.2400 C.2   902  RTA902      0.0000
     25  C25       21.2640   11.8970   13.6470 C.2   902  RTA902      0.0000
     26  C26       20.8640   10.6710   14.1410 C.2   902  RTA902      0.0000
     27  C27       17.3210    9.1190   18.7350 C.3   902  RTA902      0.0000
     28  C28       16.5010   11.0350   19.8400 C.2   902  RTA902      0.0000
     29  C29       15.8020   10.2710   20.7260 C.2   902  RTA902      0.0000
     30  C30       15.8560    8.8840   20.6080 C.2   902  RTA902      0.0000
     31  C31       16.6260    8.3070   19.6120 C.2   902  RTA902      0.0000
@<TRIPOS>BOND
     1    25    26    2
     2    25    24    1
     3    26    22    1
     4    24    23    2
     5    22    12    2
     6    22     5    1
     7    23     5    1
     8    13    12    1
     9    13    14    2
    10    12     3    1
    11     5     1    1
    12    14    15    1
    13     3     1    1
    14     3    16    1
    15    15    16    2
    16     1     4    1
    17     1     2    1
    18     1     6    1
    19    17     4    1
    20    17    18    1
    21    16    27    1
    22     4    21    1
    23    18    19    2
    24     2     7    1
    25     2    11    1
    26    27     6    1
    27    27    31    1
    28     7     8    1
    29    21    11    1
    30    21    20    2
    31     6    28    1
    32    19    20    1
    33    11    10    2
    34    31    30    2
    35     8     9    2
    36    28    29    2
    37    10     9    1
    38    30    29    1
