@<TRIPOS>MOLECULE
1jzi_IME_A_1.pdb
 23 24 0 0 0
SMALL
GASTEIGER

@<TRIPOS>ATOM
      1 CU         -4.8060  -15.2630    6.5350 Cu    2000  IME2000     0.0000
      2  O1        -4.8020  -12.7500    6.8840 O.3   2000  IME2000     0.0000
      3  O2        -5.0960  -17.7590    6.4200 O.3   2000  IME2000     0.0000
      4  CG1       -2.2230  -14.6550    3.3100 C.ar  2000  IME2000     0.0000
      5  CDC       -2.9850  -14.2250    4.3420 C.ar  2000  IME2000     0.0000
      6  NDB       -2.2540  -16.0310    3.3240 N.ar  2000  IME2000     0.0000
      7  CEB       -3.0230  -16.3750    4.3440 C.ar  2000  IME2000     0.0000
      8  NEC       -3.4930  -15.3220    4.9960 N.ar  2000  IME2000     0.0000
      9  CG2       -8.0300  -16.0020    3.8870 C.ar  2000  IME2000     0.0000
     10  CDM       -7.3170  -16.2130    5.0180 C.ar  2000  IME2000     0.0000
     11  NDL       -7.4460  -14.9330    3.2450 N.ar  2000  IME2000     0.0000
     12  CEL       -6.4590  -14.6340    4.0700 C.ar  2000  IME2000     0.0000
     13  NEM       -6.2730  -15.3320    5.1770 N.ar  2000  IME2000     0.0000
     14  CG3       -7.4010  -16.0140    9.6540 C.ar  2000  IME2000     0.0000
     15  CDW       -6.5450  -16.4030    8.6800 C.ar  2000  IME2000     0.0000
     16  NDV       -7.5440  -14.6440    9.6550 N.ar  2000  IME2000     0.0000
     17  CEV       -6.7500  -14.2800    8.6640 C.ar  2000  IME2000     0.0000
     18  NEW       -6.1240  -15.2620    8.0390 N.ar  2000  IME2000     0.0000
     19  CG4       -1.1150  -15.7840    8.7860 C.ar  2000  IME2000     0.0000
     20  CD6       -1.9690  -16.0760    7.7770 C.ar  2000  IME2000     0.0000
     21  ND5       -1.8260  -14.7710    9.3920 N.ar  2000  IME2000     0.0000
     22  CE5       -2.9100  -14.6720    8.6480 C.ar  2000  IME2000     0.0000
     23  NE6       -3.1620  -15.4210    7.5870 N.ar  2000  IME2000     0.0000
@<TRIPOS>BOND
     1    11     9   ar
     2    11    12   ar
     3     4     6   ar
     4     4     5   ar
     5     6     7   ar
     6     9    10   ar
     7    12    13   ar
     8     5     8   ar
     9     7     8   ar
    10     8     1    1
    11    10    13   ar
    12    13     1    1
    13     1    23    1
    14     1    18    1
    15    23    20   ar
    16    23    22   ar
    17    20    19   ar
    18    18    17   ar
    19    18    15   ar
    20    22    21   ar
    21    17    16   ar
    22    15    14   ar
    23    19    21   ar
    24    14    16   ar
