@<TRIPOS>MOLECULE
1jzi_REP_A_1.pdb
 21 24 0 0 0
SMALL
GASTEIGER

@<TRIPOS>ATOM
      1 RE          1.6500   -7.8030   27.1760 Re    903  REP903      0.0000
      2  N1        -0.3450   -8.4210   27.7330 N.pl3 903  REP903      0.0000
      3  N2         0.9760   -8.9500   25.4570 N.pl3 903  REP903      0.0000
      4  O1         3.0520  -10.2770   28.4230 O.3   903  REP903      0.0000
      5  O2         4.3700   -6.9080   26.0650 O.3   903  REP903      0.0000
      6  O3         2.3490   -6.1910   29.6810 O.3   903  REP903      0.0000
      7  C1         2.5390   -9.3480   27.9720 C.3   903  REP903      0.0000
      8  C2         3.3530   -7.2390   26.4620 C.3   903  REP903      0.0000
      9  C3         2.1100   -6.7860   28.7700 C.3   903  REP903      0.0000
     10  C7        -0.9830   -8.1270   28.8740 C.2   903  REP903      0.0000
     11  C8        -2.2710   -8.5930   29.1560 C.2   903  REP903      0.0000
     12  C9        -2.9170   -9.3450   28.2490 C.2   903  REP903      0.0000
     13  C10       -2.2940   -9.6870   27.0150 C.ar  903  REP903      0.0000
     14  C11       -0.9920   -9.1840   26.8030 C.ar  903  REP903      0.0000
     15  C12       -0.2920   -9.4710   25.5840 C.ar  903  REP903      0.0000
     16  C13       -0.8970  -10.2580   24.5880 C.ar  903  REP903      0.0000
     17  C14       -0.1700  -10.4910   23.4260 C.2   903  REP903      0.0000
     18  C15        1.0880   -9.9850   23.2770 C.2   903  REP903      0.0000
     19  C16        1.6290   -9.2080   24.3160 C.2   903  REP903      0.0000
     20  C17       -2.8850  -10.4900   25.9720 C.ar  903  REP903      0.0000
     21  C18       -2.2280  -10.7560   24.8230 C.ar  903  REP903      0.0000
@<TRIPOS>BOND
     1    18    17    1
     2    18    19    2
     3    17    16    2
     4    19     3    1
     5    16    21   ar
     6    16    15   ar
     7    21    20   ar
     8     3    15    1
     9     3     1    1
    10    15    14   ar
    11    20    13   ar
    12     5     8    1
    13     8     1    1
    14    14    13   ar
    15    14     2    1
    16    13    12    2
    17     1     2    1
    18     1     7    1
    19     1     9    1
    20     2    10    1
    21     7     4    1
    22    12    11    1
    23     9     6    1
    24    10    11    2
