@<TRIPOS>MOLECULE
1jzj_DOS_A_1.pdb
 30 36 0 0 0
SMALL
GASTEIGER

@<TRIPOS>ATOM
      1 OS         -8.3270   28.1970   64.5100 Os    903  DOS903      0.0000
      2  N2        -7.6730   28.8090   62.6510 N.pl3 903  DOS903      0.0000
      3  C3        -6.3740   28.9380   62.2780 C.3   903  DOS903      0.0000
      4  C4        -6.0190   29.3890   61.0190 C.2   903  DOS903      0.0000
      5  C5        -7.0260   29.7130   60.1360 C.2   903  DOS903      0.0000
      6  C6        -8.3420   29.5890   60.4940 C.2   903  DOS903      0.0000
      7  C7        -8.6680   29.1310   61.7700 C.2   903  DOS903      0.0000
      8  C8       -10.0240   28.9480   62.2700 C.3   903  DOS903      0.0000
      9  C9       -11.1840   29.2290   61.5280 C.2   903  DOS903      0.0000
     10  C10      -12.4190   29.0260   62.0960 C.2   903  DOS903      0.0000
     11  C11      -12.5060   28.5500   63.3910 C.2   903  DOS903      0.0000
     12  C12      -11.3420   28.2850   64.0890 C.2   903  DOS903      0.0000
     13  N13      -10.1140   28.4860   63.5340 N.pl3 903  DOS903      0.0000
     14  N26       -8.5490   30.0700   65.3520 N.pl3 903  DOS903      0.0000
     15  C27       -8.1480   31.2390   64.7820 C.3   903  DOS903      0.0000
     16  C28       -8.3190   32.4700   65.4100 C.2   903  DOS903      0.0000
     17  C29       -8.9170   32.4770   66.6600 C.2   903  DOS903      0.0000
     18  C30       -9.3300   31.3050   67.2420 C.2   903  DOS903      0.0000
     19  C31       -9.1460   30.0800   66.5720 C.2   903  DOS903      0.0000
     20  C32       -9.5560   28.7600   67.0800 C.3   903  DOS903      0.0000
     21  C33      -10.1910   28.5720   68.3160 C.2   903  DOS903      0.0000
     22  C34      -10.5540   27.3060   68.7090 C.2   903  DOS903      0.0000
     23  C35      -10.2910   26.2270   67.8760 C.2   903  DOS903      0.0000
     24  C36       -9.6570   26.4480   66.6600 C.2   903  DOS903      0.0000
     25  N37       -9.2910   27.7060   66.2690 N.pl3 903  DOS903      0.0000
     26  CG        -6.8510   27.1230   67.0180 C.ar  903  DOS903      0.0000
     27  CD2       -5.5760   26.8700   67.3860 C.ar  903  DOS903      0.0000
     28  ND1       -6.7850   27.6610   65.7520 N.ar  903  DOS903      0.0000
     29  CE1       -5.5410   27.7540   65.3200 C.ar  903  DOS903      0.0000
     30  NE2       -4.8160   27.2730   66.3150 N.ar  903  DOS903      0.0000
@<TRIPOS>BOND
     1     5     6    1
     2     5     4    2
     3     6     7    2
     4     4     3    1
     5     9    10    2
     6     9     8    1
     7     7     8    1
     8     7     2    1
     9    10    11    1
    10     8    13    1
    11     3     2    1
    12     2     1    1
    13    11    12    2
    14    13    12    1
    15    13     1    1
    16     1    14    1
    17     1    28    1
    18     1    25    1
    19    15    14    1
    20    15    16    1
    21    29    28   ar
    22    29    30   ar
    23    14    19    1
    24    16    17    2
    25    28    26   ar
    26    25    24    1
    27    25    20    1
    28    30    27   ar
    29    19    20    1
    30    19    18    2
    31    24    23    2
    32    17    18    1
    33    26    27   ar
    34    20    21    1
    35    23    22    1
    36    21    22    2
