@<TRIPOS>MOLECULE
1jzj_IME_A_1.pdb
 23 24 0 0 0
SMALL
GASTEIGER

@<TRIPOS>ATOM
      1 CU        -30.4020   25.1910   60.7980 Cu    2000  IME2000     0.0000
      2  O1       -31.6300   27.3310   60.4290 O.3   2000  IME2000     0.0000
      3  O2       -29.0440   23.0980   60.7280 O.3   2000  IME2000     0.0000
      4  CG1      -28.3840   27.1570   57.5940 C.ar  2000  IME2000     0.0000
      5  CDC      -29.1640   27.1890   58.6990 C.ar  2000  IME2000     0.0000
      6  NDB      -27.8900   25.8700   57.5960 N.ar  2000  IME2000     0.0000
      7  CEB      -28.3040   25.1240   58.6050 C.ar  2000  IME2000     0.0000
      8  NEC      -29.0880   25.9450   59.2790 N.ar  2000  IME2000     0.0000
      9  CG2      -33.2310   23.1700   58.6400 C.ar  2000  IME2000     0.0000
     10  CDM      -32.3150   23.3470   59.6210 C.ar  2000  IME2000     0.0000
     11  NDL      -33.2470   24.4120   58.0460 N.ar  2000  IME2000     0.0000
     12  CEL      -32.3890   25.1890   58.6830 C.ar  2000  IME2000     0.0000
     13  NEM      -31.7600   24.6020   59.6850 N.ar  2000  IME2000     0.0000
     14  CG3      -32.2760   23.3000   63.9500 C.ar  2000  IME2000     0.0000
     15  CDW      -31.3880   23.2890   62.9280 C.ar  2000  IME2000     0.0000
     16  NDV      -32.9470   24.5030   64.0080 N.ar  2000  IME2000     0.0000
     17  CEV      -32.4460   25.2040   63.0070 C.ar  2000  IME2000     0.0000
     18  NEW      -31.5250   24.5260   62.3450 N.ar  2000  IME2000     0.0000
     19  CG4      -27.8910   26.8930   63.8210 C.ar  2000  IME2000     0.0000
     20  CD6      -29.1090   26.7800   63.2440 C.ar  2000  IME2000     0.0000
     21  ND5      -27.0320   26.0440   63.1560 N.ar  2000  IME2000     0.0000
     22  CE5      -27.7020   25.4290   62.1970 C.ar  2000  IME2000     0.0000
     23  NE6      -28.9500   25.8590   62.2360 N.ar  2000  IME2000     0.0000
@<TRIPOS>BOND
     1     4     6   ar
     2     4     5   ar
     3     6     7   ar
     4    11     9   ar
     5    11    12   ar
     6     7     8   ar
     7     9    10   ar
     8    12    13   ar
     9     5     8   ar
    10     8     1    1
    11    10    13   ar
    12    13     1    1
    13     1    23    1
    14     1    18    1
    15    22    23   ar
    16    22    21   ar
    17    23    20   ar
    18    18    15   ar
    19    18    17   ar
    20    15    14   ar
    21    17    16   ar
    22    21    19   ar
    23    20    19   ar
    24    14    16   ar
