@<TRIPOS>MOLECULE
1jzj_LOS_A_1.pdb
 30 36 0 0 0
SMALL
GASTEIGER

@<TRIPOS>ATOM
      1 OS         -9.0340   27.6780   64.9870 Os    904  LOS904      0.0000
      2  N2        -9.9750   27.2540   66.7840 N.pl3 904  LOS904      0.0000
      3  C3       -10.4110   26.0230   67.1650 C.3   904  LOS904      0.0000
      4  C4       -10.9810   25.7850   68.4130 C.2   904  LOS904      0.0000
      5  C5       -11.0930   26.8620   69.2780 C.2   904  LOS904      0.0000
      6  C6       -10.6600   28.1070   68.9030 C.2   904  LOS904      0.0000
      7  C7       -10.0920   28.3130   67.6390 C.2   904  LOS904      0.0000
      8  C8        -9.6050   29.5910   67.1210 C.3   904  LOS904      0.0000
      9  C9        -9.6390   30.7940   67.8500 C.2   904  LOS904      0.0000
     10  C10       -9.1610   31.9460   67.2750 C.2   904  LOS904      0.0000
     11  C11       -8.6520   31.9070   65.9860 C.2   904  LOS904      0.0000
     12  C12       -8.6310   30.7000   65.2990 C.2   904  LOS904      0.0000
     13  N13       -9.0980   29.5540   65.8620 N.pl3 904  LOS904      0.0000
     14  N26       -7.0760   27.3570   65.6430 N.pl3 904  LOS904      0.0000
     15  C27       -6.7230   26.8630   66.8630 C.3   904  LOS904      0.0000
     16  C28       -5.3900   26.7020   67.2470 C.2   904  LOS904      0.0000
     17  C29       -4.4000   27.0620   66.3480 C.2   904  LOS904      0.0000
     18  C30       -4.7340   27.5600   65.1190 C.2   904  LOS904      0.0000
     19  C31       -6.0840   27.7120   64.7630 C.2   904  LOS904      0.0000
     20  C32       -6.5430   28.2240   63.4870 C.3   904  LOS904      0.0000
     21  C33       -5.6430   28.6280   62.4760 C.2   904  LOS904      0.0000
     22  C34       -6.1290   29.1030   61.2900 C.2   904  LOS904      0.0000
     23  C35       -7.4940   29.1790   61.1070 C.2   904  LOS904      0.0000
     24  C36       -8.3420   28.7720   62.1340 C.2   904  LOS904      0.0000
     25  N37       -7.8840   28.2960   63.3270 N.pl3 904  LOS904      0.0000
     26  CG       -11.8350   28.1620   64.5870 C.ar  904  LOS904      0.0000
     27  CD2      -12.8320   28.5620   63.7620 C.ar  904  LOS904      0.0000
     28  ND1      -10.6650   28.2600   63.8660 N.ar  904  LOS904      0.0000
     29  CE1      -11.0360   28.7050   62.6790 C.ar  904  LOS904      0.0000
     30  NE2      -12.3280   28.9130   62.5330 N.ar  904  LOS904      0.0000
@<TRIPOS>BOND
     1    23    22    1
     2    23    24    2
     3    22    21    2
     4    24    25    1
     5    21    20    1
     6    30    29   ar
     7    30    27   ar
     8    29    28   ar
     9    25    20    1
    10    25     1    1
    11    20    19    1
    12    27    26   ar
    13    28    26   ar
    14    28     1    1
    15    19    18    2
    16    19    14    1
    17     1    14    1
    18     1    13    1
    19     1     2    1
    20    18    17    1
    21    12    13    1
    22    12    11    2
    23    14    15    1
    24    13     8    1
    25    11    10    1
    26    17    16    2
    27     2     3    1
    28     2     7    1
    29    15    16    1
    30     8     7    1
    31     8     9    1
    32     3     4    1
    33    10     9    2
    34     7     6    2
    35     4     5    2
    36     6     5    1
