@<TRIPOS>MOLECULE
1jzk_HEM_A_1.pdb
 43 50 0 0 0
SMALL
GASTEIGER

@<TRIPOS>ATOM
      1 FE         29.8740   -1.3000   12.7570 Fe    147  HEM147      0.0000
      2  CHA       28.2480    0.6940   15.1010 C.2   147  HEM147      0.0000
      3  CHB       32.8130   -0.7980   14.5360 C.2   147  HEM147      0.0000
      4  CHC       31.6920   -2.7610   10.2340 C.2   147  HEM147      0.0000
      5  CHD       27.1590   -1.0140   10.6910 C.2   147  HEM147      0.0000
      6  NA        30.3920   -0.3160   14.4900 N.2   147  HEM147      0.0000
      7  C1A       29.5550    0.3410   15.3870 C.2   147  HEM147      0.0000
      8  C2A       30.2780    0.7240   16.6040 C.2   147  HEM147      0.0000
      9  C3A       31.5610    0.3290   16.4030 C.2   147  HEM147      0.0000
     10  C4A       31.6340   -0.2840   15.0910 C.2   147  HEM147      0.0000
     11  CMA       32.7320    0.4780   17.3810 C.3   147  HEM147      0.0000
     12  CAA       29.7800    1.3810   17.8990 C.3   147  HEM147      0.0000
     13  CBA       29.3020    0.3670   18.9310 C.3   147  HEM147      0.0000
     14  CGA       28.0720   -0.3870   18.4670 C.2   147  HEM147      0.0000
     15  O1A       26.9950    0.2390   18.3710 O.co2 147  HEM147      0.0000
     16  O2A       28.1860   -1.5960   18.1840 O.co2 147  HEM147      0.0000
     17  NB        31.8540   -1.7150   12.4770 N.ar  147  HEM147      0.0000
     18  C1B       32.9240   -1.4490   13.3170 C.ar  147  HEM147      0.0000
     19  C2B       34.1780   -1.9740   12.7440 C.ar  147  HEM147      0.0000
     20  C3B       33.8490   -2.5340   11.5380 C.ar  147  HEM147      0.0000
     21  C4B       32.4110   -2.3690   11.3900 C.ar  147  HEM147      0.0000
     22  CMB       35.5430   -2.0130   13.4270 C.3   147  HEM147      0.0000
     23  CAB       34.6450   -3.2340   10.6250 C.3   147  HEM147      0.0000
     24  CBB       36.0850   -3.2160   10.5550 C.3   147  HEM147      0.0000
     25  NC        29.4810   -1.8830   10.8760 N.2   147  HEM147      0.0000
     26  C1C       30.3310   -2.5280    9.9890 C.2   147  HEM147      0.0000
     27  C2C       29.6250   -2.8000    8.7350 C.2   147  HEM147      0.0000
     28  C3C       28.3310   -2.3620    8.8810 C.2   147  HEM147      0.0000
     29  C4C       28.2730   -1.7350   10.1990 C.2   147  HEM147      0.0000
     30  CMC       30.2440   -3.3660    7.4500 C.3   147  HEM147      0.0000
     31  CAC       27.2270   -2.5150    8.0150 C.3   147  HEM147      0.0000
     32  CBC       27.2720   -2.9570    6.6360 C.3   147  HEM147      0.0000
     33  ND        28.0680   -0.4000   12.8970 N.ar  147  HEM147      0.0000
     34  C1D       27.0600   -0.4020   11.9450 C.ar  147  HEM147      0.0000
     35  C2D       25.9370    0.4340   12.3790 C.ar  147  HEM147      0.0000
     36  C3D       26.2790    0.9610   13.5750 C.ar  147  HEM147      0.0000
     37  C4D       27.5810    0.4050   13.9140 C.ar  147  HEM147      0.0000
     38  CMD       24.6620    0.7480   11.6040 C.3   147  HEM147      0.0000
     39  CAD       25.5140    2.0460   14.3520 C.3   147  HEM147      0.0000
     40  CBD       25.8990    3.4310   13.8650 C.3   147  HEM147      0.0000
     41  CGD       25.2070    4.5460   14.6310 C.2   147  HEM147      0.0000
     42  O1D       23.9720    4.6840   14.5090 O.co2 147  HEM147      0.0000
     43  O2D       25.9010    5.2890   15.3600 O.co2 147  HEM147      0.0000
@<TRIPOS>BOND
     1    32    31    1
     2    30    27    1
     3    31    28    1
     4    27    28    2
     5    27    26    1
     6    28    29    1
     7    26     4    2
     8    26    25    1
     9    29     5    1
    10    29    25    2
    11     4    21    1
    12    24    23    1
    13    23    20    1
    14     5    34    2
    15    25     1    1
    16    21    20   ar
    17    21    17   ar
    18    20    19   ar
    19    38    35    1
    20    34    35   ar
    21    34    33   ar
    22    35    36   ar
    23    17     1    1
    24    17    18   ar
    25    19    18   ar
    26    19    22    1
    27     1    33    1
    28     1     6    1
    29    33    37   ar
    30    18     3    1
    31    36    37   ar
    32    36    39    1
    33    40    39    1
    34    40    41    1
    35    37     2    2
    36     6    10    1
    37     6     7    2
    38    42    41   ar
    39     3    10    2
    40    41    43   ar
    41    10     9    1
    42     2     7    1
    43     7     8    1
    44     9     8    2
    45     9    11    1
    46     8    12    1
    47    12    13    1
    48    16    14   ar
    49    15    14   ar
    50    14    13    1
