@<TRIPOS>MOLECULE
1jzl_HEM_A_1.pdb
 43 50 0 0 0
SMALL
GASTEIGER

@<TRIPOS>ATOM
      1 FE         42.8460   -2.2090   20.2900 Fe    147  HEM147      0.0000
      2  CHA       41.8560   -0.5280   17.4410 C.2   147  HEM147      0.0000
      3  CHB       39.5890   -2.0780   21.4810 C.2   147  HEM147      0.0000
      4  CHC       43.9090   -3.5670   23.2600 C.2   147  HEM147      0.0000
      5  CHD       45.9810   -2.5930   18.9570 C.2   147  HEM147      0.0000
      6  NA        41.0980   -1.4160   19.6280 N.2   147  HEM147      0.0000
      7  C1A       40.8900   -0.7630   18.4220 C.2   147  HEM147      0.0000
      8  C2A       39.4990   -0.4340   18.2760 C.2   147  HEM147      0.0000
      9  C3A       38.8660   -0.8380   19.4080 C.2   147  HEM147      0.0000
     10  C4A       39.8550   -1.4540   20.2530 C.2   147  HEM147      0.0000
     11  CMA       37.3930   -0.6490   19.7480 C.3   147  HEM147      0.0000
     12  CAA       38.8720    0.1500   17.0070 C.3   147  HEM147      0.0000
     13  CBA       38.6170   -0.9350   15.9720 C.3   147  HEM147      0.0000
     14  CGA       38.4830   -0.3890   14.5680 C.2   147  HEM147      0.0000
     15  O1A       37.7400    0.6020   14.3820 O.co2 147  HEM147      0.0000
     16  O2A       39.1210   -0.9600   13.6530 O.co2 147  HEM147      0.0000
     17  NB        41.9160   -2.7900   21.9770 N.ar  147  HEM147      0.0000
     18  C1B       40.5610   -2.6920   22.2940 C.ar  147  HEM147      0.0000
     19  C2B       40.3260   -3.2020   23.6150 C.ar  147  HEM147      0.0000
     20  C3B       41.5380   -3.5690   24.1540 C.ar  147  HEM147      0.0000
     21  C4B       42.5250   -3.3130   23.1150 C.ar  147  HEM147      0.0000
     22  CMB       38.9530   -3.3870   24.2510 C.3   147  HEM147      0.0000
     23  CAB       41.8470   -4.0810   25.4280 C.3   147  HEM147      0.0000
     24  CBB       41.1660   -3.8680   26.6670 C.3   147  HEM147      0.0000
     25  NC        44.5800   -2.9410   20.9740 N.2   147  HEM147      0.0000
     26  C1C       44.8660   -3.3950   22.2620 C.2   147  HEM147      0.0000
     27  C2C       46.2910   -3.6360   22.4050 C.2   147  HEM147      0.0000
     28  C3C       46.8820   -3.3830   21.1850 C.2   147  HEM147      0.0000
     29  C4C       45.7920   -2.9790   20.2880 C.2   147  HEM147      0.0000
     30  CMC       46.9840   -3.9810   23.7210 C.3   147  HEM147      0.0000
     31  CAC       48.2320   -3.4470   20.8040 C.3   147  HEM147      0.0000
     32  CBC       49.3120   -4.0720   21.5240 C.3   147  HEM147      0.0000
     33  ND        43.7250   -1.6850   18.5440 N.ar  147  HEM147      0.0000
     34  C1D       45.0340   -1.9390   18.1590 C.ar  147  HEM147      0.0000
     35  C2D       45.3320   -1.2990   16.8900 C.ar  147  HEM147      0.0000
     36  C3D       44.1860   -0.6900   16.4960 C.ar  147  HEM147      0.0000
     37  C4D       43.1840   -0.9420   17.5070 C.ar  147  HEM147      0.0000
     38  CMD       46.6710   -1.2620   16.1580 C.3   147  HEM147      0.0000
     39  CAD       44.0070    0.1550   15.2460 C.3   147  HEM147      0.0000
     40  CBD       44.1170    1.6360   15.5260 C.3   147  HEM147      0.0000
     41  CGD       43.8020    2.4790   14.3080 C.2   147  HEM147      0.0000
     42  O1D       44.6150    2.4860   13.3570 O.co2 147  HEM147      0.0000
     43  O2D       42.7350    3.1210   14.3050 O.co2 147  HEM147      0.0000
@<TRIPOS>BOND
     1    42    41   ar
     2    16    14   ar
     3    43    41   ar
     4    41    40    1
     5    15    14   ar
     6    14    13    1
     7    39    40    1
     8    39    36    1
     9    13    12    1
    10    38    35    1
    11    36    35   ar
    12    36    37   ar
    13    35    34   ar
    14    12     8    1
    15     2    37    2
    16     2     7    1
    17    37    33   ar
    18    34    33   ar
    19    34     5    2
    20     8     7    1
    21     8     9    2
    22     7     6    2
    23    33     1    1
    24     5    29    1
    25     9    11    1
    26     9    10    1
    27     6    10    1
    28     6     1    1
    29    10     3    2
    30    29    25    2
    31    29    28    1
    32     1    25    1
    33     1    17    1
    34    31    28    1
    35    31    32    1
    36    25    26    1
    37    28    27    2
    38     3    18    1
    39    17    18   ar
    40    17    21   ar
    41    26    27    1
    42    26     4    2
    43    18    19   ar
    44    27    30    1
    45    21     4    1
    46    21    20   ar
    47    19    20   ar
    48    19    22    1
    49    20    23    1
    50    23    24    1
