@<TRIPOS>MOLECULE
1jzm_HEM_A_1.pdb
 43 50 0 0 0
SMALL
GASTEIGER

@<TRIPOS>ATOM
      1 FE         17.7440    7.8090   20.1790 Fe    147  HEM147      0.0000
      2  CHA       16.6850    9.8200   17.5280 C.2   147  HEM147      0.0000
      3  CHB       14.8060    8.6280   21.8060 C.2   147  HEM147      0.0000
      4  CHC       19.0890    6.8820   23.2300 C.2   147  HEM147      0.0000
      5  CHD       20.9130    7.8570   18.8710 C.2   147  HEM147      0.0000
      6  NA        16.0870    8.8450   19.7090 N.2   147  HEM147      0.0000
      7  C1A       15.7650    9.4890   18.5190 C.2   147  HEM147      0.0000
      8  C2A       14.3570    9.8740   18.4970 C.2   147  HEM147      0.0000
      9  C3A       13.8570    9.5790   19.7040 C.2   147  HEM147      0.0000
     10  C4A       14.9340    8.9890   20.4730 C.2   147  HEM147      0.0000
     11  CMA       12.3940    9.7510   20.1210 C.3   147  HEM147      0.0000
     12  CAA       13.4990   10.4230   17.3580 C.3   147  HEM147      0.0000
     13  CBA       12.8820    9.3210   16.5030 C.3   147  HEM147      0.0000
     14  CGA       13.9140    8.5770   15.6780 C.2   147  HEM147      0.0000
     15  O1A       14.4850    9.1920   14.7520 O.co2 147  HEM147      0.0000
     16  O2A       14.1590    7.3850   15.9570 O.co2 147  HEM147      0.0000
     17  NB        17.0730    7.6950   22.0670 N.ar  147  HEM147      0.0000
     18  C1B       15.7950    7.9910   22.5360 C.ar  147  HEM147      0.0000
     19  C2B       15.6180    7.5720   23.9290 C.ar  147  HEM147      0.0000
     20  C3B       16.8260    7.1010   24.3470 C.ar  147  HEM147      0.0000
     21  C4B       17.7340    7.2150   23.1960 C.ar  147  HEM147      0.0000
     22  CMB       14.2960    7.6010   24.7100 C.3   147  HEM147      0.0000
     23  CAB       17.1580    6.5530   25.5890 C.3   147  HEM147      0.0000
     24  CBB       16.6500    6.9790   26.8590 C.3   147  HEM147      0.0000
     25  NC        19.5520    7.3220   20.8520 N.2   147  HEM147      0.0000
     26  C1C       19.9320    6.9180   22.1330 C.2   147  HEM147      0.0000
     27  C2C       21.3540    6.5930   22.1900 C.2   147  HEM147      0.0000
     28  C3C       21.8730    6.8560   20.9580 C.2   147  HEM147      0.0000
     29  C4C       20.7540    7.3220   20.1430 C.2   147  HEM147      0.0000
     30  CMC       22.0890    6.0590   23.4230 C.3   147  HEM147      0.0000
     31  CAC       23.1950    6.7380   20.4920 C.3   147  HEM147      0.0000
     32  CBC       24.3710    6.2840   21.1970 C.3   147  HEM147      0.0000
     33  ND        18.5910    8.6240   18.5660 N.ar  147  HEM147      0.0000
     34  C1D       19.9210    8.5050   18.1550 C.ar  147  HEM147      0.0000
     35  C2D       20.1870    9.2620   16.9420 C.ar  147  HEM147      0.0000
     36  C3D       19.0290    9.8720   16.6160 C.ar  147  HEM147      0.0000
     37  C4D       18.0270    9.4540   17.5870 C.ar  147  HEM147      0.0000
     38  CMD       21.5150    9.4300   16.1980 C.3   147  HEM147      0.0000
     39  CAD       18.8720   10.8790   15.4790 C.3   147  HEM147      0.0000
     40  CBD       19.2120   12.2960   15.9390 C.3   147  HEM147      0.0000
     41  CGD       18.9720   13.3360   14.8590 C.2   147  HEM147      0.0000
     42  O1D       19.6790   13.3040   13.8330 O.co2 147  HEM147      0.0000
     43  O2D       18.0730   14.1840   15.0300 O.co2 147  HEM147      0.0000
@<TRIPOS>BOND
     1    42    41   ar
     2    15    14   ar
     3    41    43   ar
     4    41    40    1
     5    39    40    1
     6    39    36    1
     7    14    16   ar
     8    14    13    1
     9    38    35    1
    10    13    12    1
    11    36    35   ar
    12    36    37   ar
    13    35    34   ar
    14    12     8    1
    15     2    37    2
    16     2     7    1
    17    37    33   ar
    18    34    33   ar
    19    34     5    2
    20     8     7    1
    21     8     9    2
    22     7     6    2
    23    33     1    1
    24     5    29    1
    25     9    11    1
    26     9    10    1
    27     6     1    1
    28     6    10    1
    29    29    25    2
    30    29    28    1
    31     1    25    1
    32     1    17    1
    33    10     3    2
    34    31    28    1
    35    31    32    1
    36    25    26    1
    37    28    27    2
    38     3    18    1
    39    17    18   ar
    40    17    21   ar
    41    26    27    1
    42    26     4    2
    43    27    30    1
    44    18    19   ar
    45    21     4    1
    46    21    20   ar
    47    19    20   ar
    48    19    22    1
    49    20    23    1
    50    23    24    1
