@<TRIPOS>MOLECULE
1jzn_GAL_A_1.pdb
 11 11 0 0 0
SMALL
GASTEIGER

@<TRIPOS>ATOM
      1  C1        40.8380  -20.6320  115.2460 C.3   137  GAL137      0.1777
      2  C2        40.5890  -19.3330  116.0080 C.3   137  GAL137      0.2141
      3  C3        39.8390  -19.5880  117.3220 C.3   137  GAL137      0.2173
      4  C4        38.6000  -20.4680  117.0910 C.3   137  GAL137      0.2142
      5  C5        38.9790  -21.7270  116.2850 C.3   137  GAL137      0.1810
      6  C6        37.7770  -22.6090  115.9440 C.3   137  GAL137      0.2141
      7  O2        41.8350  -18.6960  116.2710 O.3   137  GAL137     -0.2176
      8  O3        39.4410  -18.3440  117.8710 O.3   137  GAL137     -0.2175
      9  O4        37.6100  -19.7290  116.3910 O.3   137  GAL137     -0.2176
     10  O5        39.5980  -21.3330  115.0360 O.3   137  GAL137     -0.3481
     11  O6        38.1650  -23.9570  115.6890 O.3   137  GAL137     -0.2176
@<TRIPOS>BOND
     1    10     1    1
     2    10     5    1
     3     1     2    1
     4    11     6    1
     5     6     5    1
     6     2     7    1
     7     2     3    1
     8     5     4    1
     9     9     4    1
    10     4     3    1
    11     3     8    1
