@<TRIPOS>MOLECULE
1jzr_GSH_A_1.pdb
 20 19 0 0 0
SMALL
GASTEIGER

@<TRIPOS>ATOM
      1  N1        -4.7340   19.5520   44.0020 N.3   355  GSH355     -0.1208
      2  CA1       -5.0800   19.6170   45.4260 C.3   355  GSH355      0.1948
      3  C1        -6.0760   20.7640   45.7810 C.2   355  GSH355      0.3819
      4  O11       -5.9440   21.8810   45.2420 O.co2 355  GSH355     -0.2441
      5  O12       -7.0130   20.4790   46.6580 O.co2 355  GSH355     -0.2441
      6  CB1       -3.7950   19.7590   46.2690 C.3   355  GSH355      0.0402
      7  CG1       -3.9340   19.0160   47.6220 C.3   355  GSH355      0.0889
      8  CD1       -2.6460   19.1960   48.4510 C.2   355  GSH355      0.2418
      9  OE1       -1.5230   19.0100   47.9500 O.2   355  GSH355     -0.2733
     10  N2        -2.8740   19.5630   49.7320 N.am  355  GSH355     -0.1968
     11  CA2       -1.7660   19.7820   50.6850 C.3   355  GSH355      0.1843
     12  C2        -1.5110   18.4870   51.4870 C.2   355  GSH355      0.2627
     13  O2        -2.4240   17.6790   51.7270 O.2   355  GSH355     -0.2714
     14  CB2       -2.1490   20.9110   51.6610 C.3   355  GSH355      0.0997
     15  SG2       -2.2610   22.5260   50.8240 S.3   355  GSH355     -0.0797
     16  N3        -0.2270   18.2760   51.9110 N.am  355  GSH355     -0.1917
     17  CA3        0.1690   17.0760   52.6810 C.3   355  GSH355      0.2285
     18  C3         1.1980   16.2470   51.9050 C.2   355  GSH355      0.3865
     19  O31        1.5830   16.6460   50.7760 O.co2 355  GSH355     -0.2437
     20  O32        1.5950   15.2040   52.4600 O.co2 355  GSH355     -0.2437
@<TRIPOS>BOND
     1     1     2    1
     2     4     3   ar
     3     2     3    1
     4     2     6    1
     5     3     5   ar
     6     6     7    1
     7     7     8    1
     8     9     8    2
     9     8    10   am
    10    10    11    1
    11    11    12    1
    12    11    14    1
    13    19    18   ar
    14    15    14    1
    15    12    13    2
    16    12    16   am
    17    18    20   ar
    18    18    17    1
    19    16    17    1
