@<TRIPOS>MOLECULE
1k02_FMN_A_1.pdb
 31 33 0 0 0
SMALL
GASTEIGER

@<TRIPOS>ATOM
      1  N1        34.9270   67.5380   21.6970 N.2   401  FMN401     -0.2890
      2  C2        35.8570   68.3600   22.2870 C.1   401  FMN401      0.3669
      3  O2        36.9540   67.9840   22.6030 O.2   401  FMN401     -0.1744
      4  N3        35.5400   69.6980   22.5460 N.2   401  FMN401     -0.2300
      5  C4        34.3510   70.3040   22.2560 C.1   401  FMN401      0.2513
      6  O4        34.1550   71.4680   22.5170 O.2   401  FMN401     -0.2057
      7  C4A       33.3170   69.4370   21.5980 C.2   401  FMN401      0.2700
      8  N5        32.1400   69.9290   21.2690 N.2   401  FMN401     -0.3878
      9  C5A       31.2150   69.1000   20.6580 C.2   401  FMN401      0.1320
     10  C6        29.9480   69.6510   20.2950 C.2   401  FMN401      0.0250
     11  C7        28.9700   68.8810   19.6780 C.2   401  FMN401     -0.0238
     12  C7M       27.6390   69.4390   19.2960 C.3   401  FMN401      0.0308
     13  C8        29.2670   67.4960   19.4030 C.2   401  FMN401     -0.0280
     14  C8M       28.2620   66.5990   18.7320 C.3   401  FMN401      0.0304
     15  C9        30.4940   66.9090   19.7440 C.2   401  FMN401     -0.0041
     16  C9A       31.4960   67.7140   20.3860 C.3   401  FMN401      0.1497
     17  N10       32.7820   67.2230   20.7830 N.pl3 401  FMN401     -0.2691
     18  C10       33.7420   68.0430   21.3740 C.2   401  FMN401      0.2416
     19  C1'       33.1450   65.8100   20.5720 C.3   401  FMN401      0.1294
     20  C2'       32.6460   65.0510   21.8270 C.3   401  FMN401      0.2044
     21  O2'       33.4280   65.2820   22.9910 O.3   401  FMN401     -0.2185
     22  C3'       32.5840   63.5280   21.6340 C.3   401  FMN401      0.2164
     23  O3'       33.9390   62.9690   21.6570 O.3   401  FMN401     -0.2175
     24  C4'       31.8800   63.1390   20.3630 C.3   401  FMN401      0.2147
     25  O4'       30.4840   63.4930   20.4860 O.3   401  FMN401     -0.2176
     26  C5'       31.9700   61.6600   20.0310 C.3   401  FMN401      0.1892
     27  O5'       30.9580   60.9260   20.7470 O.3   401  FMN401     -0.2674
     28  P         29.5540   60.5750   20.1230 P.3   401  FMN401      0.5327
     29  O1P       29.7900   59.9960   18.7530 O.2   401  FMN401     -0.2224
     30  O2P       28.6970   61.7940   20.1290 O.3   401  FMN401     -0.1145
     31  O3P       29.0130   59.4530   21.0810 O.3   401  FMN401     -0.1145
@<TRIPOS>BOND
     1    14    13    1
     2    29    28    2
     3    12    11    1
     4    13    11    1
     5    13    15    2
     6    11    10    2
     7    15    16    1
     8    26    24    1
     9    26    27    1
    10    28    30    1
    11    28    27    1
    12    28    31    1
    13    10     9    1
    14    24    25    1
    15    24    22    1
    16    16     9    1
    17    16    17    1
    18    19    17    1
    19    19    20    1
    20     9     8    2
    21    17    18    1
    22     8     7    2
    23    18     7    1
    24    18     1    2
    25     7     5    1
    26    22    23    1
    27    22    20    1
    28     1     2    2
    29    20    21    1
    30     5     6    2
    31     5     4    2
    32     2     4    2
    33     2     3    2
