@<TRIPOS>MOLECULE
1k03_FMN_A_1.pdb
 31 33 0 0 0
SMALL
GASTEIGER

@<TRIPOS>ATOM
      1  N1        35.0580   67.9090   22.2090 N.2   401  FMN401     -0.2890
      2  C2        35.7740   68.6920   23.0950 C.1   401  FMN401      0.3669
      3  O2        36.8120   68.3390   23.5940 O.2   401  FMN401     -0.1744
      4  N3        35.2870   69.9680   23.4500 N.2   401  FMN401     -0.2300
      5  C4        34.1320   70.5410   22.9880 C.1   401  FMN401      0.2513
      6  O4        33.7890   71.6470   23.3450 O.2   401  FMN401     -0.2057
      7  C4A       33.3300   69.7100   22.0120 C.2   401  FMN401      0.2700
      8  N5        32.2030   70.1740   21.5040 N.2   401  FMN401     -0.3878
      9  C5A       31.4910   69.3890   20.6150 C.2   401  FMN401      0.1320
     10  C6        30.2700   69.9110   20.0790 C.2   401  FMN401      0.0250
     11  C7        29.4950   69.1730   19.1780 C.2   401  FMN401     -0.0238
     12  C7M       28.2080   69.6960   18.6010 C.3   401  FMN401      0.0308
     13  C8        29.9690   67.8600   18.7980 C.2   401  FMN401     -0.0280
     14  C8M       29.1970   67.0040   17.8310 C.3   401  FMN401      0.0304
     15  C9        31.1590   67.3100   19.3000 C.2   401  FMN401     -0.0041
     16  C9A       31.9430   68.0740   20.2230 C.3   401  FMN401      0.1497
     17  N10       33.1690   67.6060   20.8020 N.pl3 401  FMN401     -0.2691
     18  C10       33.9150   68.3860   21.7020 C.2   401  FMN401      0.2416
     19  C1'       33.6930   66.2560   20.4640 C.3   401  FMN401      0.1294
     20  C2'       33.0730   65.2640   21.4730 C.3   401  FMN401      0.2044
     21  O2'       33.6090   65.3820   22.7850 O.3   401  FMN401     -0.2185
     22  C3'       33.2490   63.7890   21.0860 C.3   401  FMN401      0.2164
     23  O3'       34.6580   63.4550   21.0970 O.3   401  FMN401     -0.2175
     24  C4'       32.6770   63.4240   19.7500 C.3   401  FMN401      0.2147
     25  O4'       31.3460   63.9860   19.6090 O.3   401  FMN401     -0.2176
     26  C5'       32.5870   61.9260   19.5540 C.3   401  FMN401      0.1892
     27  O5'       31.5590   61.3820   20.4070 O.3   401  FMN401     -0.2674
     28  P         30.1090   61.0420   19.8850 P.3   401  FMN401      0.5327
     29  O1P       30.2570   60.1340   18.6870 O.2   401  FMN401     -0.2224
     30  O2P       29.3630   62.3110   19.6010 O.3   401  FMN401     -0.1145
     31  O3P       29.5010   60.2430   21.0940 O.3   401  FMN401     -0.1145
@<TRIPOS>BOND
     1    14    13    1
     2    12    11    1
     3    29    28    2
     4    13    11    1
     5    13    15    2
     6    11    10    2
     7    15    16    1
     8    26    24    1
     9    26    27    1
    10    30    28    1
    11    25    24    1
    12    24    22    1
    13    28    27    1
    14    28    31    1
    15    10     9    1
    16    16     9    1
    17    16    17    1
    18    19    17    1
    19    19    20    1
    20     9     8    2
    21    17    18    1
    22    22    23    1
    23    22    20    1
    24    20    21    1
    25     8     7    2
    26    18     7    1
    27    18     1    2
    28     7     5    1
    29     1     2    2
    30     5     6    2
    31     5     4    2
    32     2     4    2
    33     2     3    2
