@<TRIPOS>MOLECULE
1k06_BZD_A_1.pdb
 23 24 0 0 0
SMALL
GASTEIGER

@<TRIPOS>ATOM
      1  O5        33.1100   21.5100   28.3840 O.3   998  BZD998     -0.3314
      2  C1        33.2740   22.9230   28.0680 C.3   998  BZD998      0.2462
      3  C2        33.7430   23.1030   26.5760 C.3   998  BZD998      0.2326
      4  O2        33.9270   24.4960   26.2810 O.3   998  BZD998     -0.2157
      5  C3        32.6530   22.4710   25.6550 C.3   998  BZD998      0.2190
      6  O3        33.0420   22.6130   24.2810 O.3   998  BZD998     -0.2174
      7  C4        32.5080   20.9830   26.0360 C.3   998  BZD998      0.2144
      8  O4        31.5000   20.3850   25.2030 O.3   998  BZD998     -0.2176
      9  C5        32.1280   20.8610   27.5430 C.3   998  BZD998      0.1828
     10  C6        32.0230   19.3760   27.9840 C.3   998  BZD998      0.2142
     11  O6        33.2020   18.6690   27.5350 O.3   998  BZD998     -0.2176
     12  N1        34.2330   23.4910   29.0030 N.am  998  BZD998     -0.1564
     13  C7        33.8060   24.1330   30.1390 C.2   998  BZD998      0.3482
     14  O7        32.5820   24.2130   30.3440 O.2   998  BZD998     -0.2486
     15  N2        34.7020   24.6680   31.0290 N.am  998  BZD998     -0.1223
     16  C8        34.3990   25.3220   32.2000 C.2   998  BZD998      0.2726
     17  O8        33.2410   25.5190   32.5960 O.2   998  BZD998     -0.2679
     18  C9        35.5240   25.8380   33.0700 C.ar  998  BZD998      0.0555
     19  C10       36.7620   26.2740   32.5040 C.ar  998  BZD998      0.0046
     20  C11       37.8070   26.7480   33.3380 C.ar  998  BZD998      0.0001
     21  C12       37.6230   26.7940   34.7600 C.ar  998  BZD998      0.0000
     22  C13       36.3950   26.3610   35.3350 C.ar  998  BZD998      0.0001
     23  C14       35.3490   25.8850   34.4950 C.ar  998  BZD998      0.0046
@<TRIPOS>BOND
     1     6     5    1
     2     8     7    1
     3     5     7    1
     4     5     3    1
     5     7     9    1
     6     4     3    1
     7     3     2    1
     8    11    10    1
     9     9    10    1
    10     9     1    1
    11     2     1    1
    12     2    12    1
    13    12    13   am
    14    13    14    2
    15    13    15   am
    16    15    16   am
    17    16    17    2
    18    16    18    1
    19    19    18   ar
    20    19    20   ar
    21    18    23   ar
    22    20    21   ar
    23    23    22   ar
    24    21    22   ar
