@<TRIPOS>MOLECULE
1k06_PLP_A_1.pdb
 15 15 0 0 0
SMALL
GASTEIGER

@<TRIPOS>ATOM
      1  N1        24.7350   25.6580   30.4270 N.ar  999  PLP999     -0.2452
      2  C2        23.6240   24.9270   30.6630 C.ar  999  PLP999      0.0978
      3  C2A       22.6520   25.4300   31.6970 C.3   999  PLP999      0.0555
      4  C3        23.3850   23.7760   29.9570 C.ar  999  PLP999      0.2049
      5  O3        22.2070   23.0830   30.1450 O.3   999  PLP999     -0.2857
      6  C4        24.3050   23.3690   28.9870 C.ar  999  PLP999      0.0182
      7  C4A       23.9920   22.1460   28.0620 C.3   999  PLP999      0.0342
      8  C5        25.4600   24.1470   28.7830 C.ar  999  PLP999      0.0261
      9  C6        25.6480   25.2810   29.5100 C.ar  999  PLP999      0.0965
     10  C5A       26.4820   23.8610   27.5980 C.3   999  PLP999      0.1815
     11  O4P       26.1230   24.6200   26.4370 O.3   999  PLP999     -0.2653
     12  P         27.0970   24.7720   25.1510 P.3   999  PLP999      0.5329
     13  O1P       26.2120   25.4200   24.1350 O.2   999  PLP999     -0.2224
     14  O2P       28.1290   25.7980   25.6160 O.3   999  PLP999     -0.1145
     15  O3P       27.7280   23.4920   24.8140 O.3   999  PLP999     -0.1145
@<TRIPOS>BOND
     1    13    12    2
     2    15    12    1
     3    12    14    1
     4    12    11    1
     5    11    10    1
     6    10     8    1
     7     7     6    1
     8     8     6   ar
     9     8     9   ar
    10     6     4   ar
    11     9     1   ar
    12     4     5    1
    13     4     2   ar
    14     1     2   ar
    15     2     3    1
