@<TRIPOS>MOLECULE
1k08_PLP_A_1.pdb
 15 15 0 0 0
SMALL
GASTEIGER

@<TRIPOS>ATOM
      1  N1        24.7380   25.5940   30.4320 N.ar  999  PLP999     -0.2452
      2  C2        23.6120   24.8460   30.6680 C.ar  999  PLP999      0.0978
      3  C2A       22.5980   25.3560   31.6720 C.3   999  PLP999      0.0555
      4  C3        23.3860   23.7060   29.9360 C.ar  999  PLP999      0.2049
      5  O3        22.2130   22.9960   30.1100 O.3   999  PLP999     -0.2857
      6  C4        24.3260   23.3160   28.9640 C.ar  999  PLP999      0.0182
      7  C4A       24.0310   22.0750   28.0450 C.3   999  PLP999      0.0342
      8  C5        25.4840   24.1060   28.7570 C.ar  999  PLP999      0.0261
      9  C6        25.6590   25.2340   29.4900 C.ar  999  PLP999      0.0965
     10  C5A       26.5150   23.8400   27.5890 C.3   999  PLP999      0.1815
     11  O4P       26.1950   24.5390   26.3690 O.3   999  PLP999     -0.2653
     12  P         27.1660   24.7740   25.1410 P.3   999  PLP999      0.5329
     13  O1P       26.3140   25.3010   24.0540 O.2   999  PLP999     -0.2224
     14  O2P       28.1370   25.9600   25.6220 O.3   999  PLP999     -0.1145
     15  O3P       27.9760   23.5420   24.9130 O.3   999  PLP999     -0.1145
@<TRIPOS>BOND
     1    13    12    2
     2    15    12    1
     3    12    14    1
     4    12    11    1
     5    11    10    1
     6    10     8    1
     7     7     6    1
     8     8     6   ar
     9     8     9   ar
    10     6     4   ar
    11     9     1   ar
    12     4     5    1
    13     4     2   ar
    14     1     2   ar
    15     2     3    1
