@<TRIPOS>MOLECULE
1k0a_GSH_B_1.pdb
 20 19 0 0 0
SMALL
GASTEIGER

@<TRIPOS>ATOM
      1  N1         6.8130   -6.2440    9.4430 N.3   356  GSH356     -0.1208
      2  CA1        7.9450   -6.3650   10.4600 C.3   356  GSH356      0.1948
      3  C1         8.2200   -5.0000   10.9820 C.2   356  GSH356      0.3819
      4  O11        9.1530   -4.1810   10.3030 O.co2 356  GSH356     -0.2441
      5  O12        7.5950   -4.6640   12.0090 O.co2 356  GSH356     -0.2441
      6  CB1        9.2260   -7.0370    9.7990 C.3   356  GSH356      0.0402
      7  CG1       10.0000   -7.8490   10.8780 C.3   356  GSH356      0.0889
      8  CD1       11.1980   -8.5310   10.3240 C.2   356  GSH356      0.2418
      9  OE1       12.0290   -7.9200    9.5850 O.2   356  GSH356     -0.2733
     10  N2        11.2970   -9.8360   10.7180 N.am  356  GSH356     -0.1968
     11  CA2       12.4310  -10.7050   10.3210 C.3   356  GSH356      0.1843
     12  C2        12.3050  -11.3260    8.8660 C.2   356  GSH356      0.2627
     13  O2        11.2550  -11.3900    8.2380 O.2   356  GSH356     -0.2714
     14  CB2       12.5150  -11.9570   11.2650 C.3   356  GSH356      0.0997
     15  SG2       13.6410  -11.7170   12.6350 S.3   356  GSH356     -0.0797
     16  N3        13.4760  -11.7980    8.3740 N.am  356  GSH356     -0.1917
     17  CA3       13.6380  -12.4320    7.0580 C.3   356  GSH356      0.2285
     18  C3        14.9160  -11.9490    6.3850 C.2   356  GSH356      0.3865
     19  O31       15.1590  -12.4260    5.2630 O.co2 356  GSH356     -0.2437
     20  O32       15.6340  -11.1200    6.9800 O.co2 356  GSH356     -0.2437
@<TRIPOS>BOND
     1    19    18   ar
     2    18    20   ar
     3    18    17    1
     4    17    16    1
     5    13    12    2
     6    16    12   am
     7    12    11    1
     8     1     2    1
     9     9     8    2
    10     6     2    1
    11     6     7    1
    12     4     3   ar
    13    11    10    1
    14    11    14    1
    15     8    10   am
    16     8     7    1
    17     2     3    1
    18     3     5   ar
    19    14    15    1
