@<TRIPOS>MOLECULE
1k0a_GTX_A_1.pdb
 26 25 0 0 0
SMALL
GASTEIGER

@<TRIPOS>ATOM
      1  N1        11.1660    7.1600   14.3990 N.3   355  GTX355     -0.1208
      2  CA1       11.3100    8.6950   14.4320 C.3   355  GTX355      0.1948
      3  C1        10.1710    9.2870   13.6330 C.2   355  GTX355      0.3819
      4  O11        9.6690   10.3640   14.0070 O.co2 355  GTX355     -0.2441
      5  O12        9.7210    8.6020   12.5230 O.co2 355  GTX355     -0.2441
      6  CB1       12.7180    9.0790   13.8550 C.3   355  GTX355      0.0402
      7  CG1       12.9860   10.6240   13.8400 C.3   355  GTX355      0.0889
      8  CD1       14.4360   10.9130   13.6200 C.2   355  GTX355      0.2418
      9  OE1       15.2540   10.0200   13.2410 O.2   355  GTX355     -0.2733
     10  N2        14.7810   12.1900   13.8540 N.am  355  GTX355     -0.1969
     11  CA2       16.1720   12.6270   13.6840 C.3   355  GTX355      0.1834
     12  C2        16.6570   13.3570   15.0090 C.2   355  GTX355      0.2626
     13  O2        15.8790   14.0010   15.6880 O.2   355  GTX355     -0.2714
     14  CB2       16.2910   13.7060   12.5400 C.3   355  GTX355      0.0886
     15  SG2       15.7740   13.0900   10.9170 S.3   355  GTX355     -0.1379
     16  C1S       16.7010   11.5400   10.6110 C.3   355  GTX355      0.0576
     17  C2S       18.2040   11.7800   10.5160 C.3   355  GTX355      0.0116
     18  C3S       18.9460   10.8500    9.5660 C.3   355  GTX355      0.0009
     19  C4S       19.9960   11.4290    8.5930 C.3   355  GTX355      0.0000
     20  C5S       19.5390   12.6020    7.6820 C.3   355  GTX355      0.0000
     21  C6S       18.4980   12.2490    6.5960 C.3   355  GTX355      0.0000
     22  N3        17.9060   13.2200   15.3470 N.am  355  GTX355     -0.1917
     23  CA3       18.3760   12.1660   16.2600 C.3   355  GTX355      0.2285
     24  C3        19.3120   12.7500   17.2580 C.2   355  GTX355      0.3865
     25  O31       19.8850   12.0930   18.1830 O.co2 355  GTX355     -0.2437
     26  O32       19.5100   14.0610   17.1010 O.co2 355  GTX355     -0.2437
@<TRIPOS>BOND
     1    21    20    1
     2    20    19    1
     3    19    18    1
     4    18    17    1
     5    17    16    1
     6    16    15    1
     7    15    14    1
     8     5     3   ar
     9    14    11    1
    10     9     8    2
    11     8     7    1
    12     8    10   am
    13     3     4   ar
    14     3     2    1
    15    11    10    1
    16    11    12    1
    17     7     6    1
    18     6     2    1
    19     1     2    1
    20    12    22   am
    21    12    13    2
    22    22    23    1
    23    23    24    1
    24    26    24   ar
    25    24    25   ar
