@<TRIPOS>MOLECULE
1k0b_GSH_A_1.pdb
 20 19 0 0 0
SMALL
GASTEIGER

@<TRIPOS>ATOM
      1  N1        -4.8290   19.5400   44.1540 N.3   355  GSH355     -0.1208
      2  CA1       -5.1920   19.4010   45.5700 C.3   355  GSH355      0.1948
      3  C1        -6.3480   20.3630   46.0150 C.2   355  GSH355      0.3819
      4  O11       -6.3170   21.5580   45.6690 O.co2 355  GSH355     -0.2441
      5  O12       -7.3000   19.8450   46.7510 O.co2 355  GSH355     -0.2441
      6  CB1       -3.9310   19.6270   46.4510 C.3   355  GSH355      0.0402
      7  CG1       -4.1010   18.9910   47.8640 C.3   355  GSH355      0.0889
      8  CD1       -2.8370   19.2390   48.7300 C.2   355  GSH355      0.2418
      9  OE1       -1.7870   19.6970   48.2430 O.2   355  GSH355     -0.2733
     10  N2        -2.9940   18.9130   50.0280 N.am  355  GSH355     -0.1968
     11  CA2       -1.8880   19.0820   50.9850 C.3   355  GSH355      0.1843
     12  C2        -1.6710   17.7750   51.7650 C.2   355  GSH355      0.2627
     13  O2        -2.6150   17.0280   52.0680 O.2   355  GSH355     -0.2714
     14  CB2       -2.2150   20.2050   51.9880 C.3   355  GSH355      0.0997
     15  SG2       -0.7790   21.2870   52.2660 S.3   355  GSH355     -0.0797
     16  N3        -0.3770   17.4890   52.1030 N.am  355  GSH355     -0.1917
     17  CA3        0.0280   16.2800   52.8530 C.3   355  GSH355      0.2285
     18  C3         1.1030   15.5210   52.0920 C.2   355  GSH355      0.3865
     19  O31        1.5010   15.9720   50.9870 O.co2 355  GSH355     -0.2437
     20  O32        1.5230   14.4810   52.6320 O.co2 355  GSH355     -0.2437
@<TRIPOS>BOND
     1     1     2    1
     2     2     3    1
     3     2     6    1
     4     4     3   ar
     5     3     5   ar
     6     6     7    1
     7     7     8    1
     8     9     8    2
     9     8    10   am
    10    10    11    1
    11    11    12    1
    12    11    14    1
    13    19    18   ar
    14    12    13    2
    15    12    16   am
    16    14    15    1
    17    18    20   ar
    18    18    17    1
    19    16    17    1
