@<TRIPOS>MOLECULE
1k0c_GTB_A_1.pdb
 30 30 0 0 0
SMALL
GASTEIGER

@<TRIPOS>ATOM
      1  N1        -5.1750   18.7410   45.3260 N.3   355  GTB355     -0.1208
      2  CA1       -5.4250   18.3670   46.7210 C.3   355  GTB355      0.1948
      3  C1        -6.5220   19.4110   47.1160 C.2   355  GTB355      0.3819
      4  O11       -6.5440   20.4950   46.5330 O.co2 355  GTB355     -0.2441
      5  O12       -7.3460   19.1100   48.0010 O.co2 355  GTB355     -0.2441
      6  CB1       -4.1050   18.5040   47.5430 C.3   355  GTB355      0.0402
      7  CG1       -4.2880   18.1400   49.0170 C.3   355  GTB355      0.0889
      8  CD1       -2.9750   18.2460   49.7880 C.2   355  GTB355      0.2418
      9  OE1       -1.9070   18.5860   49.2400 O.2   355  GTB355     -0.2733
     10  N2        -3.0960   17.9450   51.0790 N.am  355  GTB355     -0.1969
     11  CA2       -1.9300   17.9600   51.9890 C.3   355  GTB355      0.1834
     12  C2        -1.9110   16.6440   52.7610 C.2   355  GTB355      0.2626
     13  O2        -2.9540   16.0180   52.9940 O.2   355  GTB355     -0.2714
     14  CB2       -2.0020   19.0960   53.0320 C.3   355  GTB355      0.0889
     15  SG2       -1.9710   20.7680   52.3450 S.3   355  GTB355     -0.1331
     16  N3        -0.7110   16.2310   53.1530 N.am  355  GTB355     -0.1917
     17  CA3       -0.5100   15.0050   53.8920 C.3   355  GTB355      0.2285
     18  C3         0.9600   14.8170   54.1090 C.2   355  GTB355      0.3865
     19  O31        1.5650   15.7120   54.7280 O.co2 355  GTB355     -0.2437
     20  O32        1.4910   13.7810   53.6480 O.co2 355  GTB355     -0.2437
     21  C'        -0.1600   20.8050   52.0480 C.3   355  GTB355      0.0838
     22  C1'        0.5060   21.9470   52.7990 C.ar  355  GTB355     -0.0112
     23  C2'        0.6920   23.1860   52.1590 C.ar  355  GTB355     -0.0017
     24  C3'        1.2920   24.2550   52.8430 C.ar  355  GTB355      0.0238
     25  C4'        1.7320   24.1270   54.2050 C.ar  355  GTB355      0.1429
     26  N41        2.3690   25.3240   54.9040 N.pl3 355  GTB355      0.0577
     27  O41        2.5120   26.3990   54.3280 O.2   355  GTB355     -0.1261
     28  O42        2.7410   25.2220   56.0590 O.2   355  GTB355     -0.1261
     29  C5'        1.5700   22.8790   54.8940 C.ar  355  GTB355      0.0238
     30  C6'        0.9730   21.7790   54.2500 C.ar  355  GTB355     -0.0017
@<TRIPOS>BOND
     1     1     2    1
     2     4     3   ar
     3     2     3    1
     4     2     6    1
     5     3     5   ar
     6     6     7    1
     7     7     8    1
     8     9     8    2
     9     8    10   am
    10    10    11    1
    11    11    12    1
    12    11    14    1
    13    21    15    1
    14    21    22    1
    15    23    22   ar
    16    23    24   ar
    17    15    14    1
    18    12    13    2
    19    12    16   am
    20    22    30   ar
    21    24    25   ar
    22    16    17    1
    23    20    18   ar
    24    17    18    1
    25    18    19   ar
    26    25    29   ar
    27    25    26    1
    28    30    29   ar
    29    27    26    2
    30    26    28    2
