@<TRIPOS>MOLECULE
1k0c_GSH_D_1.pdb
 20 19 0 0 0
SMALL
GASTEIGER

@<TRIPOS>ATOM
      1  N1        23.5640   -0.3610   -1.4380 N.3   358  GSH358     -0.1208
      2  CA1       23.3360   -0.0160   -2.8480 C.3   358  GSH358      0.1948
      3  C1        22.2290   -1.0560   -3.2290 C.2   358  GSH358      0.3819
      4  O11       21.3510   -0.7280   -4.0670 O.co2 358  GSH358     -0.2441
      5  O12       22.2660   -2.1760   -2.6940 O.co2 358  GSH358     -0.2441
      6  CB1       24.6240   -0.2440   -3.6650 C.3   358  GSH358      0.0402
      7  CG1       24.4720    0.3080   -5.0680 C.3   358  GSH358      0.0889
      8  CD1       25.7370    0.0760   -5.8590 C.2   358  GSH358      0.2418
      9  OE1       26.8590    0.1630   -5.3330 O.2   358  GSH358     -0.2733
     10  N2        25.5240   -0.2100   -7.1420 N.am  358  GSH358     -0.1968
     11  CA2       26.6600   -0.4450   -8.0420 C.3   358  GSH358      0.1843
     12  C2        26.8040    0.7630   -8.9950 C.2   358  GSH358      0.2627
     13  O2        25.8540    1.5340   -9.2420 O.2   358  GSH358     -0.2714
     14  CB2       26.4460   -1.7320   -8.8650 C.3   358  GSH358      0.0997
     15  SG2       26.7000   -3.2810   -7.9280 S.3   358  GSH358     -0.0797
     16  N3        28.0440    0.9350   -9.5420 N.am  358  GSH358     -0.1917
     17  CA3       28.3910    2.0320  -10.4730 C.3   358  GSH358      0.2285
     18  C3        29.5620    2.8410   -9.9150 C.2   358  GSH358      0.3865
     19  O31       29.9510    3.8020  -10.6140 O.co2 358  GSH358     -0.2437
     20  O32       30.0620    2.5050   -8.8050 O.co2 358  GSH358     -0.2437
@<TRIPOS>BOND
     1    19    18   ar
     2    17    18    1
     3    17    16    1
     4    18    20   ar
     5    16    12   am
     6    13    12    2
     7    12    11    1
     8    14    11    1
     9    14    15    1
    10    11    10    1
    11    10     8   am
    12     8     9    2
    13     8     7    1
    14     7     6    1
    15     4     3   ar
    16     6     2    1
    17     3     2    1
    18     3     5   ar
    19     2     1    1
