@<TRIPOS>MOLECULE
1k0d_GSH_A_1.pdb
 20 19 0 0 0
SMALL
GASTEIGER

@<TRIPOS>ATOM
      1  N1        -4.7830   19.3160   44.7270 N.3   355  GSH355     -0.1208
      2  CA1       -5.1830   18.9800   46.0930 C.3   355  GSH355      0.1948
      3  C1        -6.3690   19.8500   46.6020 C.2   355  GSH355      0.3819
      4  O11       -6.5740   20.9540   46.0740 O.co2 355  GSH355     -0.2441
      5  O12       -7.0920   19.3580   47.5760 O.co2 355  GSH355     -0.2441
      6  CB1       -3.9540   19.1120   47.0450 C.3   355  GSH355      0.0402
      7  CG1       -4.0510   18.0810   48.2110 C.3   355  GSH355      0.0889
      8  CD1       -2.8290   18.2150   49.1580 C.2   355  GSH355      0.2418
      9  OE1       -1.6700   18.0080   48.7500 O.2   355  GSH355     -0.2733
     10  N2        -3.1470   18.5550   50.4290 N.am  355  GSH355     -0.1968
     11  CA2       -2.1040   18.7130   51.4630 C.3   355  GSH355      0.1843
     12  C2        -1.8740   17.3540   52.1850 C.2   355  GSH355      0.2627
     13  O2        -2.7900   16.5370   52.3660 O.2   355  GSH355     -0.2714
     14  CB2       -2.5500   19.7680   52.5090 C.3   355  GSH355      0.0997
     15  SG2       -2.7010   21.4530   51.8150 S.3   355  GSH355     -0.0797
     16  N3        -0.6010   17.1120   52.6110 N.am  355  GSH355     -0.1917
     17  CA3       -0.1870   15.8780   53.3190 C.3   355  GSH355      0.2285
     18  C3         0.7920   15.0710   52.4710 C.2   355  GSH355      0.3865
     19  O31        1.2010   14.0130   52.9790 O.co2 355  GSH355     -0.2437
     20  O32        1.1300   15.4990   51.3330 O.co2 355  GSH355     -0.2437
@<TRIPOS>BOND
     1     1     2    1
     2     4     3   ar
     3     2     3    1
     4     2     6    1
     5     3     5   ar
     6     6     7    1
     7     7     8    1
     8     9     8    2
     9     8    10   am
    10    10    11    1
    11    20    18   ar
    12    11    12    1
    13    11    14    1
    14    15    14    1
    15    12    13    2
    16    12    16   am
    17    18    19   ar
    18    18    17    1
    19    16    17    1
