@<TRIPOS>MOLECULE
1k0e_TRP_A_1.pdb
 15 16 0 0 0
SMALL
GASTEIGER

@<TRIPOS>ATOM
      1  N         20.5630   19.9440    9.1860 N.3   601  TRP601     -0.1205
      2  CA        19.4020   20.7060    9.6750 C.3   601  TRP601      0.1984
      3  C         18.0400   20.1050    9.3070 C.2   601  TRP601      0.3822
      4  O         17.7760   19.2350    8.4200 O.co2 601  TRP601     -0.2440
      5  CB        19.4190   22.1530    9.1420 C.3   601  TRP601      0.0549
      6  CG        20.8240   22.7220    9.2900 C.2   601  TRP601     -0.0138
      7  CD1       21.8050   22.7480    8.3320 C.2   601  TRP601      0.0907
      8  CD2       21.3550   23.3380   10.4790 C.3   601  TRP601      0.0819
      9  NE1       22.9070   23.3530    8.8950 N.2   601  TRP601     -0.2482
     10  CE2       22.6750   23.7200   10.1780 C.2   601  TRP601      0.0665
     11  CE3       20.9270   23.6460   11.7880 C.2   601  TRP601     -0.0164
     12  CZ2       23.4670   24.3560   11.1490 C.2   601  TRP601      0.0153
     13  CZ3       21.7080   24.2780   12.7670 C.2   601  TRP601     -0.0038
     14  CH2       23.0670   24.6500   12.4100 C.2   601  TRP601      0.0009
     15  OXT       17.0290   20.5200    9.9570 O.co2 601  TRP601     -0.2440
@<TRIPOS>BOND
     1     7     9    1
     2     7     6    2
     3     4     3   ar
     4     9    10    2
     5     5     6    1
     6     5     2    1
     7     1     2    1
     8     6     8    1
     9     3     2    1
    10     3    15   ar
    11    10     8    1
    12    10    12    1
    13     8    11    1
    14    12    14    2
    15    11    13    2
    16    14    13    1
