@<TRIPOS>MOLECULE
1k0g_TRP_A_1.pdb
 15 16 0 0 0
SMALL
GASTEIGER

@<TRIPOS>ATOM
      1  N         34.2230   13.1650    3.8560 N.3   601  TRP601     -0.1205
      2  CA        34.7660   14.4080    3.3260 C.3   601  TRP601      0.1984
      3  C         36.0720   14.3800    2.5860 C.2   601  TRP601      0.3822
      4  O         36.8110   13.3710    2.6990 O.co2 601  TRP601     -0.2440
      5  CB        35.0010   15.3240    4.5840 C.3   601  TRP601      0.0549
      6  CG        33.7870   15.3840    5.4650 C.2   601  TRP601     -0.0138
      7  CD1       33.5980   14.6250    6.6160 C.2   601  TRP601      0.0907
      8  CD2       32.6490   16.2020    5.2780 C.3   601  TRP601      0.0819
      9  NE1       32.3520   14.9790    7.1360 N.2   601  TRP601     -0.2482
     10  CE2       31.7640   15.9160    6.3540 C.2   601  TRP601      0.0665
     11  CE3       32.3010   17.1490    4.3000 C.2   601  TRP601     -0.0164
     12  CZ2       30.5210   16.5410    6.4990 C.2   601  TRP601      0.0153
     13  CZ3       31.0830   17.7740    4.4280 C.2   601  TRP601     -0.0038
     14  CH2       30.2250   17.4700    5.5100 C.2   601  TRP601      0.0009
     15  OXT       36.4910   15.3510    1.8660 O.co2 601  TRP601     -0.2440
@<TRIPOS>BOND
     1    15     3   ar
     2     3     4   ar
     3     3     2    1
     4     2     1    1
     5     2     5    1
     6    11    13    2
     7    11     8    1
     8    13    14    1
     9     5     6    1
    10     8     6    1
    11     8    10    1
    12     6     7    2
    13    14    12    2
    14    10    12    1
    15    10     9    2
    16     7     9    1
