@<TRIPOS>MOLECULE
1k0j_NDP_A_1.pdb
 48 52 0 0 0
SMALL
GASTEIGER

@<TRIPOS>ATOM
      1  PA        69.1910   91.8240  102.7510 P.3   398  NDP398      0.2189
      2  O1A       70.3370   92.4470  102.0970 O.2   398  NDP398     -0.5170
      3  O2A       69.2900   92.2180  104.1830 O.3   398  NDP398     -0.4371
      4  O5B       67.8730   92.3160  101.9020 O.3   398  NDP398     -0.3112
      5  C5B       67.5000   93.6920  101.8270 C.3   398  NDP398      0.1813
      6  C4B       66.8890   93.9650  100.4480 C.3   398  NDP398      0.1820
      7  O4B       65.5460   93.1410  100.5470 O.3   398  NDP398     -0.3136
      8  C3B       66.2960   95.3200  100.1860 C.3   398  NDP398      0.2157
      9  O3B       66.2140   95.6020   98.7380 O.3   398  NDP398     -0.2175
     10  C2B       65.0860   95.2990  100.9050 C.3   398  NDP398      0.2314
     11  O2B       64.3060   96.4880  100.8210 O.3   398  NDP398     -0.2630
     12  C1B       64.5190   94.0980  100.3050 C.3   398  NDP398      0.3158
     13  N9A       63.1980   93.7180  100.9180 N.pl3 398  NDP398     -0.1439
     14  C8A       62.8900   92.9930  102.0540 C.3   398  NDP398      0.3377
     15  N7A       61.5730   92.8560  102.2880 N.2   398  NDP398     -0.2095
     16  C5A       60.9950   93.5160  101.2690 C.2   398  NDP398      0.2526
     17  C6A       59.6530   93.7290  100.9570 C.2   398  NDP398      0.4393
     18  N6A       58.6800   93.2680  101.6880 N.pl3 398  NDP398      0.2180
     19  N1A       59.3720   94.4570   99.8250 N.2   398  NDP398      0.0021
     20  C2A       60.3550   94.9610   99.0240 C.3   398  NDP398      0.5254
     21  N3A       61.6700   94.7980   99.2570 N.2   398  NDP398     -0.0055
     22  C4A       61.9350   94.0610  100.4020 C.2   398  NDP398      0.3518
     23  O3        69.1190   90.2900  102.4830 O.3   398  NDP398     -0.2703
     24  PN        68.1380   89.2590  103.3270 P.3   398  NDP398      0.2189
     25  O1N       66.9860   88.9690  102.5040 O.2   398  NDP398     -0.5170
     26  O2N       67.7850   90.0310  104.5620 O.3   398  NDP398     -0.4371
     27  O5D       69.0410   87.9700  103.7180 O.3   398  NDP398     -0.3112
     28  C5D       69.6530   88.0350  104.9670 C.3   398  NDP398      0.1813
     29  C4D       71.1410   87.9760  104.6520 C.3   398  NDP398      0.1799
     30  O4D       71.8170   88.0550  105.9850 O.3   398  NDP398     -0.3327
     31  C3D       71.7920   86.6370  104.1990 C.3   398  NDP398      0.2158
     32  O3D       73.2070   86.9650  103.9340 O.3   398  NDP398     -0.2175
     33  C2D       71.7450   85.7050  105.3690 C.3   398  NDP398      0.2309
     34  O2D       72.6440   84.5380  105.1880 O.3   398  NDP398     -0.2158
     35  C1D       72.1870   86.7230  106.4820 C.3   398  NDP398      0.2263
     36  N1N       71.5750   86.6950  107.8790 N.pl3 398  NDP398     -0.2787
     37  C2N       71.9770   87.6400  108.9430 C.3   398  NDP398      0.1244
     38  C3N       71.2950   87.4780  110.2310 C.2   398  NDP398      0.0544
     39  C7N       71.5090   88.2970  111.4810 C.2   398  NDP398      0.2818
     40  O7N       70.8540   88.0410  112.5060 O.2   398  NDP398     -0.2670
     41  N7N       72.3680   89.2660  111.5140 N.am  398  NDP398     -0.0839
     42  C4N       70.3050   86.4450  110.3800 C.2   398  NDP398      0.0033
     43  C5N       69.9860   85.5880  109.3040 C.2   398  NDP398      0.0157
     44  C6N       70.5920   85.7120  108.1200 C.2   398  NDP398      0.0633
     45  P2B       64.5890   97.7710  101.8190 P.3   398  NDP398      0.5328
     46  O1X       65.9670   98.3110  101.7250 O.3   398  NDP398     -0.1145
     47  O2X       63.5760   98.6650  101.3270 O.2   398  NDP398     -0.2224
     48  O3X       64.2820   97.2040  103.1630 O.3   398  NDP398     -0.1145
@<TRIPOS>BOND
     1     9     8    1
     2    20    21    1
     3    20    19    1
     4    21    22    2
     5    19    17    2
     6     8     6    1
     7     8    10    1
     8    12     7    1
     9    12    10    1
    10    12    13    1
    11    22    13    1
    12    22    16    1
    13     6     7    1
    14     6     5    1
    15    11    10    1
    16    11    45    1
    17    13    14    1
    18    17    16    1
    19    17    18    1
    20    16    15    2
    21    47    45    2
    22    46    45    1
    23    45    48    1
    24     5     4    1
    25     4     1    1
    26    14    15    1
    27     2     1    2
    28    23     1    1
    29    23    24    1
    30    25    24    2
    31     1     3    1
    32    24    27    1
    33    24    26    1
    34    27    28    1
    35    32    31    1
    36    31    29    1
    37    31    33    1
    38    29    28    1
    39    29    30    1
    40    34    33    1
    41    33    35    1
    42    30    35    1
    43    35    36    1
    44    36    44    1
    45    36    37    1
    46    44    43    2
    47    37    38    1
    48    43    42    1
    49    38    42    2
    50    38    39    1
    51    39    41   am
    52    39    40    2
