@<TRIPOS>MOLECULE
1k0u_NAD_A_1.pdb
 44 48 0 0 0
SMALL
GASTEIGER

@<TRIPOS>ATOM
      1  PA         9.3740   17.3150   62.3390 P.3   1432  NAD1432     0.2189
      2  O1A        9.4880   18.5260   63.1840 O.3   1432  NAD1432    -0.4371
      3  O2A        8.3810   17.4670   61.2450 O.2   1432  NAD1432    -0.5170
      4  O5B        8.8560   16.0950   63.2040 O.3   1432  NAD1432    -0.3112
      5  C5B        9.5640   15.6270   64.3750 C.3   1432  NAD1432     0.1813
      6  C4B        8.4360   15.0810   65.2000 C.3   1432  NAD1432     0.1821
      7  O4B        8.9390   14.5480   66.4560 O.3   1432  NAD1432    -0.3135
      8  C3B        7.3990   16.1330   65.6080 C.3   1432  NAD1432     0.2184
      9  O3B        6.1070   15.8460   65.0020 O.3   1432  NAD1432    -0.2174
     10  C2B        7.4500   16.0450   67.1360 C.3   1432  NAD1432     0.2570
     11  O2B        6.1600   16.2750   67.7180 O.3   1432  NAD1432    -0.2130
     12  C1B        7.9470   14.6160   67.3760 C.3   1432  NAD1432     0.3186
     13  N9A        8.5570   14.4580   68.6720 N.pl3 1432  NAD1432    -0.1439
     14  C8A        9.3560   15.3550   69.3420 C.3   1432  NAD1432     0.3377
     15  N7A        9.7730   14.9080   70.5360 N.2   1432  NAD1432    -0.2095
     16  C5A        9.1990   13.6470   70.6010 C.2   1432  NAD1432     0.2526
     17  C6A        9.2490   12.6390   71.5990 C.2   1432  NAD1432     0.4393
     18  N6A        9.9070   12.7500   72.7370 N.pl3 1432  NAD1432     0.2180
     19  N1A        8.5560   11.4750   71.3710 N.2   1432  NAD1432     0.0021
     20  C2A        7.8590   11.3450   70.1860 C.3   1432  NAD1432     0.5254
     21  N3A        7.7680   12.2350   69.1980 N.2   1432  NAD1432    -0.0055
     22  C4A        8.4510   13.3600   69.4620 C.2   1432  NAD1432     0.3518
     23  O3        10.8600   16.9540   61.8200 O.3   1432  NAD1432    -0.2703
     24  PN        11.2820   16.1560   60.4620 P.3   1432  NAD1432     0.2189
     25  O1N       11.3140   16.9970   59.2330 O.2   1432  NAD1432    -0.5170
     26  O2N       10.3790   14.9750   60.3320 O.3   1432  NAD1432    -0.4371
     27  O5D       12.7910   15.8020   60.8690 O.3   1432  NAD1432    -0.3112
     28  C5D       13.0670   14.9240   62.0080 C.3   1432  NAD1432     0.1813
     29  C4D       14.5750   14.7750   62.1430 C.3   1432  NAD1432     0.1799
     30  O4D       15.0650   13.9600   61.0470 O.3   1432  NAD1432    -0.3327
     31  C3D       15.3860   16.0710   62.0990 C.3   1432  NAD1432     0.2158
     32  O3D       16.5150   15.9500   62.9840 O.3   1432  NAD1432    -0.2175
     33  C2D       15.8460   16.1290   60.6530 C.3   1432  NAD1432     0.2309
     34  O2D       17.0020   16.9760   60.4740 O.3   1432  NAD1432    -0.2158
     35  C1D       16.1000   14.6600   60.3630 C.3   1432  NAD1432     0.2263
     36  N1N       16.0780   14.2990   58.9340 N.pl3 1432  NAD1432    -0.2787
     37  C2N       16.8480   13.1920   58.5020 C.3   1432  NAD1432     0.1244
     38  C3N       16.8760   12.7660   57.0960 C.2   1432  NAD1432     0.0544
     39  C7N       17.7290   11.5710   56.7550 C.2   1432  NAD1432     0.2818
     40  O7N       17.6980   11.2770   55.5400 O.2   1432  NAD1432    -0.2670
     41  N7N       18.4740   10.8580   57.6620 N.am  1432  NAD1432    -0.0839
     42  C4N       16.0660   13.5320   56.1070 C.2   1432  NAD1432     0.0033
     43  C5N       15.2680   14.7080   56.6490 C.2   1432  NAD1432     0.0157
     44  C6N       15.3060   15.0170   57.9450 C.2   1432  NAD1432     0.0633
@<TRIPOS>BOND
     1    40    39    2
     2    42    43    1
     3    42    38    2
     4    43    44    2
     5    39    38    1
     6    39    41   am
     7    38    37    1
     8    44    36    1
     9    37    36    1
    10    36    35    1
    11    25    24    2
    12    26    24    1
    13    35    33    1
    14    35    30    1
    15    24    27    1
    16    24    23    1
    17    34    33    1
    18    33    31    1
    19    27    28    1
    20    30    29    1
    21     3     1    2
    22    23     1    1
    23    28    29    1
    24    31    29    1
    25    31    32    1
    26     1     2    1
    27     1     4    1
    28     4     5    1
    29     5     6    1
    30     9     8    1
    31     6     8    1
    32     6     7    1
    33     8    10    1
    34     7    12    1
    35    10    12    1
    36    10    11    1
    37    12    13    1
    38    13    14    1
    39    13    22    1
    40    21    22    2
    41    21    20    1
    42    14    15    1
    43    22    16    1
    44    20    19    1
    45    15    16    2
    46    16    17    1
    47    19    17    2
    48    17    18    1
