@<TRIPOS>MOLECULE
1k0u_DEA_A_1.pdb
 18 19 0 0 0
SMALL
GASTEIGER

@<TRIPOS>ATOM
      1  N9        20.0970   12.9360   53.1840 N.pl3 1433  DEA1433    -0.1649
      2  C8        19.6840   11.6850   52.8130 C.3   1433  DEA1433     0.3359
      3  N7        20.2360   11.2380   51.7010 N.2   1433  DEA1433    -0.2096
      4  C5        21.0820   12.2650   51.3080 C.2   1433  DEA1433     0.2525
      5  C6        21.9540   12.4250   50.2100 C.2   1433  DEA1433     0.4393
      6  N6        22.1420   11.5130   49.2570 N.pl3 1433  DEA1433     0.2180
      7  N1        22.6640   13.6020   50.1270 N.2   1433  DEA1433     0.0021
      8  C2        22.4980   14.5570   51.0850 C.3   1433  DEA1433     0.5254
      9  N3        21.6930   14.5090   52.1680 N.2   1433  DEA1433    -0.0055
     10  C4        21.0070   13.3310   52.2250 C.2   1433  DEA1433     0.3501
     11  C1'       19.6750   13.7080   54.3590 C.3   1433  DEA1433     0.2402
     12  C2'       19.0040   15.0280   53.9470 C.3   1433  DEA1433     0.2397
     13  O2'       17.8610   14.7440   53.1560 O.3   1433  DEA1433    -0.2153
     14  C3'       18.5590   15.8630   55.1680 C.3   1433  DEA1433     0.2881
     15  O3'       19.6720   16.1850   55.9970 O.3   1433  DEA1433    -0.2080
     16  C4'       17.8780   17.1910   54.7510 C.2   1433  DEA1433     0.3974
     17  O         17.0040   17.6640   55.5350 O.co2 1433  DEA1433    -0.2427
     18  OXT       18.2330   17.7080   53.6570 O.co2 1433  DEA1433    -0.2427
@<TRIPOS>BOND
     1     6     5    1
     2     7     5    2
     3     7     8    1
     4     5     4    1
     5     8     9    1
     6     4     3    2
     7     4    10    1
     8     3     2    1
     9     9    10    2
    10    10     1    1
    11     2     1    1
    12    13    12    1
    13     1    11    1
    14    18    16   ar
    15    12    11    1
    16    12    14    1
    17    16    14    1
    18    16    17   ar
    19    14    15    1
