@<TRIPOS>MOLECULE
1k0y_CNO_D_1.pdb
 40 42 0 0 0
SMALL
GASTEIGER

@<TRIPOS>ATOM
      1  C1        16.1470   22.3610   42.6810 C.2   801  CNO801      0.4000
      2  O2        15.3460   21.9610   41.8230 O.co2 801  CNO801     -0.2418
      3  O3        17.0670   23.1360   42.3800 O.co2 801  CNO801     -0.2418
      4  C4        16.0590   21.7970   44.0620 C.3   801  CNO801      0.2253
      5  C5        17.4040   21.8940   44.7750 C.3   801  CNO801      0.0554
      6  C6        15.0340   22.6150   44.8490 C.3   801  CNO801      0.0554
      7  O7        15.6140   20.4270   43.9750 O.3   801  CNO801     -0.4718
      8  C8        16.4370   19.2960   43.4710 C.ar  801  CNO801      0.1390
      9  C9        16.2490   18.0240   44.0000 C.ar  801  CNO801      0.0366
     10  C10       17.0040   16.9440   43.5360 C.ar  801  CNO801     -0.0007
     11  C11       17.3760   19.4750   42.4820 C.ar  801  CNO801      0.0366
     12  C12       18.1310   18.3910   42.0180 C.ar  801  CNO801     -0.0007
     13  C13       17.9410   17.1320   42.5450 C.ar  801  CNO801     -0.0128
     14  C14       18.7250   16.0120   42.0540 C.3   801  CNO801      0.1135
     15  C15       17.9050   14.8960   41.3960 C.2   801  CNO801      0.2500
     16  O16       16.7270   15.0940   41.1960 O.2   801  CNO801     -0.2726
     17  N17       18.5980   13.8280   40.8420 N.am  801  CNO801     -0.1789
     18  C18       18.0060   12.7420   40.2170 C.ar  801  CNO801      0.0747
     19  C19       16.6180   12.5600   40.3130 C.ar  801  CNO801      0.0332
     20  C20       18.7770   11.8260   39.5240 C.ar  801  CNO801      0.0167
     21  C21       18.1550   10.7340   38.9250 C.ar  801  CNO801      0.0027
     22  C22       16.7860   10.5480   39.0240 C.ar  801  CNO801      0.0167
     23  C23       16.0130   11.4640   39.7170 C.ar  801  CNO801      0.0747
     24  N24       14.6400   11.3100   39.8280 N.am  801  CNO801     -0.1789
     25  C25       13.9330   10.2460   39.3070 C.2   801  CNO801      0.2500
     26  O26       14.4640    9.1710   39.0720 O.2   801  CNO801     -0.2726
     27  C27       12.3940   10.2520   39.5150 C.3   801  CNO801      0.1135
     28  C28       11.6310    9.7490   38.2720 C.ar  801  CNO801     -0.0128
     29  C29       12.3630    9.4910   37.1380 C.ar  801  CNO801     -0.0007
     30  C30       11.8050    9.0650   36.0450 C.ar  801  CNO801      0.0366
     31  C31       10.2330    9.5450   38.2470 C.ar  801  CNO801     -0.0007
     32  C32        9.6370    9.0700   37.0180 C.ar  801  CNO801      0.0366
     33  C33       10.4520    8.8330   35.9150 C.ar  801  CNO801      0.1390
     34  O34        9.8870    8.3330   34.5630 O.3   801  CNO801     -0.4718
     35  C35       10.6280    7.5470   33.5560 C.3   801  CNO801      0.2253
     36  C36       12.1410    7.8560   33.4630 C.3   801  CNO801      0.0554
     37  C37       10.0350    7.8640   32.2150 C.3   801  CNO801      0.0554
     38  C38       10.4390    6.0920   33.8230 C.2   801  CNO801      0.4000
     39  O39        9.2960    5.6360   33.8360 O.co2 801  CNO801     -0.2418
     40  O40       11.4070    5.3740   34.1220 O.co2 801  CNO801     -0.2418
@<TRIPOS>BOND
     1    37    35    1
     2    36    35    1
     3    35    38    1
     4    35    34    1
     5    38    39   ar
     6    38    40   ar
     7    34    33    1
     8    33    30   ar
     9    33    32   ar
    10    30    29   ar
    11    32    31   ar
    12    29    28   ar
    13    31    28   ar
    14    28    27    1
    15    21    22   ar
    16    21    20   ar
    17    22    23   ar
    18    26    25    2
    19    25    27    1
    20    25    24   am
    21    20    18   ar
    22    23    24    1
    23    23    19   ar
    24    18    19   ar
    25    18    17    1
    26    17    15   am
    27    16    15    2
    28    15    14    1
    29     2     1   ar
    30    12    11   ar
    31    12    13   ar
    32    14    13    1
    33     3     1   ar
    34    11     8   ar
    35    13    10   ar
    36     1     4    1
    37     8     7    1
    38     8     9   ar
    39    10     9   ar
    40     7     4    1
    41     4     5    1
    42     4     6    1
