@<TRIPOS>MOLECULE
1k0y_HEM_A_1.pdb
 43 50 0 0 0
SMALL
GASTEIGER

@<TRIPOS>ATOM
      1 FE         18.3890   18.4890   23.8460 Fe    143  HEM143      0.0000
      2  CHA       18.7510   18.6250   20.4280 C.2   143  HEM143      0.0000
      3  CHB       21.0370   20.7170   24.1620 C.2   143  HEM143      0.0000
      4  CHC       18.6360   17.7850   27.2920 C.2   143  HEM143      0.0000
      5  CHD       16.6370   15.4210   23.5140 C.2   143  HEM143      0.0000
      6  NA        19.6000   19.5200   22.5410 N.2   143  HEM143      0.0000
      7  C1A       19.5610   19.4960   21.1560 C.2   143  HEM143      0.0000
      8  C2A       20.5790   20.4150   20.6240 C.2   143  HEM143      0.0000
      9  C3A       21.2300   20.9850   21.6600 C.2   143  HEM143      0.0000
     10  C4A       20.6340   20.4160   22.8580 C.2   143  HEM143      0.0000
     11  CMA       22.3630   22.0110   21.6230 C.3   143  HEM143      0.0000
     12  CAA       20.9380   20.6120   19.1700 C.3   143  HEM143      0.0000
     13  CBA       19.9910   21.5940   18.5300 C.3   143  HEM143      0.0000
     14  CGA       20.3730   21.9330   17.0900 C.2   143  HEM143      0.0000
     15  O1A       20.8640   21.0360   16.3580 O.co2 143  HEM143      0.0000
     16  O2A       20.1870   23.1060   16.7020 O.co2 143  HEM143      0.0000
     17  NB        19.6000   19.1540   25.4080 N.ar  143  HEM143      0.0000
     18  C1B       20.5760   20.1300   25.3630 C.ar  143  HEM143      0.0000
     19  C2B       21.1090   20.4250   26.6910 C.ar  143  HEM143      0.0000
     20  C3B       20.4410   19.6380   27.5880 C.ar  143  HEM143      0.0000
     21  C4B       19.5150   18.7990   26.7830 C.ar  143  HEM143      0.0000
     22  CMB       22.2060   21.4520   26.9520 C.3   143  HEM143      0.0000
     23  CAB       20.5150   19.6570   28.9940 C.3   143  HEM143      0.0000
     24  CBB       21.7880   19.6500   29.7040 C.3   143  HEM143      0.0000
     25  NC        17.6580   16.9180   25.1330 N.2   143  HEM143      0.0000
     26  C1C       17.7820   16.8930   26.5340 C.2   143  HEM143      0.0000
     27  C2C       17.1380   15.6940   27.0640 C.2   143  HEM143      0.0000
     28  C3C       16.6810   14.9590   25.9880 C.2   143  HEM143      0.0000
     29  C4C       17.0010   15.7330   24.7970 C.2   143  HEM143      0.0000
     30  CMC       17.0920   15.3120   28.5410 C.3   143  HEM143      0.0000
     31  CAC       15.9540   13.7390   26.0100 C.3   143  HEM143      0.0000
     32  CBC       16.2090   12.5750   26.8380 C.3   143  HEM143      0.0000
     33  ND        17.7680   17.3070   22.3020 N.ar  143  HEM143      0.0000
     34  C1D       16.9720   16.1430   22.3560 C.ar  143  HEM143      0.0000
     35  C2D       16.6190   15.7140   21.0130 C.ar  143  HEM143      0.0000
     36  C3D       17.2260   16.6050   20.1540 C.ar  143  HEM143      0.0000
     37  C4D       17.9490   17.5830   20.9480 C.ar  143  HEM143      0.0000
     38  CMD       15.8550   14.4770   20.6070 C.3   143  HEM143      0.0000
     39  CAD       17.2050   16.5230   18.6450 C.3   143  HEM143      0.0000
     40  CBD       18.4130   15.7560   18.1540 C.3   143  HEM143      0.0000
     41  CGD       18.4280   15.5960   16.6410 C.2   143  HEM143      0.0000
     42  O1D       19.4220   16.0090   16.0150 O.co2 143  HEM143      0.0000
     43  O2D       17.4410   15.0650   16.0840 O.co2 143  HEM143      0.0000
@<TRIPOS>BOND
     1    42    41   ar
     2    43    41   ar
     3    15    14   ar
     4    41    40    1
     5    16    14   ar
     6    14    13    1
     7    40    39    1
     8    13    12    1
     9    39    36    1
    10    12     8    1
    11    36    37   ar
    12    36    35   ar
    13     2    37    2
    14     2     7    1
    15    38    35    1
    16     8     7    1
    17     8     9    2
    18    37    33   ar
    19    35    34   ar
    20     7     6    2
    21    11     9    1
    22     9    10    1
    23    33    34   ar
    24    33     1    1
    25    34     5    2
    26     6    10    1
    27     6     1    1
    28    10     3    2
    29     5    29    1
    30     1    25    1
    31     1    17    1
    32     3    18    1
    33    29    25    2
    34    29    28    1
    35    25    26    1
    36    18    17   ar
    37    18    19   ar
    38    17    21   ar
    39    28    31    1
    40    28    27    2
    41    31    32    1
    42    26    27    1
    43    26     4    2
    44    19    22    1
    45    19    20   ar
    46    21     4    1
    47    21    20   ar
    48    27    30    1
    49    20    23    1
    50    23    24    1
