@<TRIPOS>MOLECULE
1k12_FUC_A_1.pdb
 11 11 0 0 0
SMALL
GASTEIGER

@<TRIPOS>ATOM
      1  C1       -10.6840   26.5700   -0.2120 C.3   159  FUC159      0.3023
      2  C2       -10.0650   25.1610   -0.1930 C.3   159  FUC159      0.2434
      3  C3        -8.5460   25.2450   -0.3610 C.3   159  FUC159      0.2198
      4  C4        -7.9680   26.1540    0.7360 C.3   159  FUC159      0.2118
      5  C5        -8.6290   27.5390    0.6230 C.3   159  FUC159      0.1509
      6  C6        -8.1410   28.5440    1.6600 C.3   159  FUC159      0.0350
      7  O1       -10.5310   27.1570   -1.4610 O.3   159  FUC159     -0.1869
      8  O2       -10.6180   24.3700   -1.2380 O.3   159  FUC159     -0.2148
      9  O3        -7.9830   23.9420   -0.2740 O.3   159  FUC159     -0.2174
     10  O4        -8.2420   25.5930    2.0160 O.3   159  FUC159     -0.2177
     11  O5       -10.0630   27.4180    0.7770 O.3   159  FUC159     -0.3264
@<TRIPOS>BOND
     1     7     1    1
     2     8     2    1
     3     3     9    1
     4     3     2    1
     5     3     4    1
     6     1     2    1
     7     1    11    1
     8     5     4    1
     9     5    11    1
    10     5     6    1
    11     4    10    1
