@<TRIPOS>MOLECULE
1k1i_FD1_A_1.pdb
 36 39 0 0 0
SMALL
GASTEIGER

@<TRIPOS>ATOM
      1  C65       -1.9460   16.3580   17.9190 C.ar  999  FD1999     -0.0200
      2  C66       -2.1720   15.7500   16.6690 C.ar  999  FD1999      0.0038
      3  C64       -1.2090   15.6570   18.9080 C.ar  999  FD1999     -0.0042
      4  C63       -0.7120   14.3700   18.6440 C.ar  999  FD1999     -0.0001
      5  C62       -0.9510   13.7740   17.3880 C.ar  999  FD1999      0.0080
      6  C61       -1.6850   14.4660   16.3940 C.ar  999  FD1999      0.0972
      7  C25       -1.9390   13.8370   15.0520 C.2   999  FD1999      0.4766
      8  N43       -1.5300   12.6220   14.8450 N.pl3 999  FD1999      0.2047
      9  N54       -2.5590   14.5170   14.1140 N.pl3 999  FD1999      0.2047
     10  C34       -2.4960   17.7690   18.1950 C.3   999  FD1999      0.0550
     11  C31       -1.5620   18.8980   17.7300 C.3   999  FD1999      0.1780
     12  C35       -0.0870   18.6680   18.0210 C.2   999  FD1999      0.2441
     13  O36        0.5340   18.1360   17.1000 O.2   999  FD1999     -0.2733
     14  N81        0.5010   19.0230   19.2100 N.am  999  FD1999     -0.2701
     15  C71       -0.2470   19.8150   20.2320 C.3   999  FD1999      0.1790
     16  C72        0.6530   21.0230   20.5920 C.3   999  FD1999      0.0315
     17  C74        2.7150   19.5710   19.9480 C.3   999  FD1999      0.0216
     18  C75        1.7780   18.3950   19.6130 C.3   999  FD1999      0.0939
     19  C40        2.0670   20.6970   20.6950 C.3   999  FD1999      0.0040
     20  C91       -0.5820   18.9880   21.4490 C.2   999  FD1999      0.3825
     21  O92       -0.9650   19.5460   22.5220 O.co2 999  FD1999     -0.2438
     22  O93       -0.5010   17.7150   21.4050 O.co2 999  FD1999     -0.2438
     23  N29       -1.7630   19.2270   16.3130 N.3   999  FD1999     -0.0696
     24  S12       -2.1700   20.8310   15.8680 S.O2  999  FD1999      0.0772
     25  O32       -2.4500   20.8760   14.4610 O.2   999  FD1999     -0.1516
     26  O33       -3.0810   21.3790   16.8160 O.2   999  FD1999     -0.1516
     27  C2        -0.6520   21.6130   16.0820 C.ar  999  FD1999      0.1236
     28  C3         0.4730   21.0990   15.4000 C.ar  999  FD1999      0.0200
     29  C4         1.7430   21.7340   15.5420 C.ar  999  FD1999      0.0014
     30  C9         0.6820   23.4060   17.0380 C.ar  999  FD1999      0.0013
     31  C10        1.8520   22.9000   16.3680 C.ar  999  FD1999      0.0001
     32  C1        -0.5600   22.7480   16.8740 C.ar  999  FD1999      0.0200
     33  C5         3.0890   23.5910   16.5510 C.ar  999  FD1999      0.0000
     34  C6         3.1560   24.7650   17.3910 C.ar  999  FD1999      0.0000
     35  C7         1.9960   25.2380   18.0410 C.ar  999  FD1999      0.0000
     36  C8         0.7660   24.5690   17.8660 C.ar  999  FD1999      0.0000
@<TRIPOS>BOND
     1     9     7    2
     2    25    24    2
     3     8     7    1
     4     7     6    1
     5    28    29   ar
     6    28    27   ar
     7    29    31   ar
     8    24    27    1
     9    24    23    1
    10    24    26    2
    11    27    32   ar
    12    23    11    1
    13    31    33   ar
    14    31    30   ar
    15     6     2   ar
    16     6     5   ar
    17    33    34   ar
    18     2     1   ar
    19    32    30   ar
    20    30    36   ar
    21    13    12    2
    22     5     4   ar
    23    34    35   ar
    24    11    12    1
    25    11    10    1
    26    36    35   ar
    27     1    10    1
    28     1     3   ar
    29    12    14   am
    30     4     3   ar
    31    14    18    1
    32    14    15    1
    33    18    17    1
    34    17    19    1
    35    15    16    1
    36    15    20    1
    37    16    19    1
    38    22    20   ar
    39    20    21   ar
