@<TRIPOS>MOLECULE
1k1j_FD2_A_1.pdb
 37 40 0 0 0
SMALL
GASTEIGER

@<TRIPOS>ATOM
      1  C65       -3.0350    5.6090   20.2470 C.ar  999  FD2999     -0.0200
      2  C66       -3.6800    6.8610   20.1780 C.ar  999  FD2999      0.0038
      3  C64       -1.6740    5.5160   19.8930 C.ar  999  FD2999     -0.0042
      4  C63       -0.9650    6.6510   19.4760 C.ar  999  FD2999     -0.0001
      5  C62       -1.6110    7.8990   19.4040 C.ar  999  FD2999      0.0080
      6  C61       -2.9750    8.0140   19.7580 C.ar  999  FD2999      0.0972
      7  C25       -3.6690    9.3600   19.6700 C.2   999  FD2999      0.4766
      8  N43       -2.9760   10.4020   19.2870 N.pl3 999  FD2999      0.2047
      9  N54       -4.9510    9.4660   19.9690 N.pl3 999  FD2999      0.2047
     10  C34       -3.8050    4.3610   20.7070 C.3   999  FD2999      0.0550
     11  C31       -3.7930    4.1530   22.2540 C.3   999  FD2999      0.1780
     12  C35       -2.4690    4.5140   22.9040 C.2   999  FD2999      0.2437
     13  O36       -2.4170    5.6590   23.3450 O.2   999  FD2999     -0.2733
     14  N81       -1.4140    3.6780   23.0210 N.am  999  FD2999     -0.2783
     15  C71       -1.5090    2.3460   22.4450 C.3   999  FD2999      0.0940
     16  C72       -1.0240    1.3160   23.4920 C.3   999  FD2999      0.0326
     17  C74        0.3360    3.1580   24.6370 C.3   999  FD2999      0.0326
     18  C75       -0.1640    4.1730   23.5710 C.3   999  FD2999      0.0940
     19  C40        0.3750    1.7080   24.0550 C.3   999  FD2999      0.1025
     20  C48        0.7960    0.8060   25.0540 C.2   999  FD2999      0.3167
     21  O49        0.1850   -0.1870   25.4370 O.2   999  FD2999     -0.2501
     22  O55        1.9990    1.1680   25.5360 O.3   999  FD2999     -0.4444
     23  C99        2.1760    0.9340   26.9510 C.3   999  FD2999      0.2556
     24  N29       -4.8630    4.9280   22.8860 N.3   999  FD2999     -0.0696
     25  S12       -5.7780    4.2560   24.1930 S.O2  999  FD2999      0.0772
     26  O32       -6.7940    5.2050   24.5670 O.2   999  FD2999     -0.1516
     27  O33       -6.1130    2.9050   23.9020 O.2   999  FD2999     -0.1516
     28  C2        -4.5700    4.2890   25.4220 C.ar  999  FD2999      0.1236
     29  C3        -4.2840    5.5260   26.0170 C.ar  999  FD2999      0.0200
     30  C4        -3.3060    5.6250   27.0190 C.ar  999  FD2999      0.0014
     31  C9        -2.8900    3.2070   26.8370 C.ar  999  FD2999      0.0013
     32  C10       -2.6000    4.4590   27.4390 C.ar  999  FD2999      0.0001
     33  C1        -3.8950    3.1320   25.8170 C.ar  999  FD2999      0.0200
     34  C5        -1.6050    4.5230   28.4600 C.ar  999  FD2999      0.0000
     35  C6        -0.9040    3.3530   28.8800 C.ar  999  FD2999      0.0000
     36  C7        -1.2080    2.1070   28.2660 C.ar  999  FD2999      0.0000
     37  C8        -2.1910    2.0370   27.2620 C.ar  999  FD2999      0.0000
@<TRIPOS>BOND
     1     8     7    2
     2     5     4   ar
     3     5     6   ar
     4     4     3   ar
     5     7     6    1
     6     7     9    1
     7     6     2   ar
     8     3     1   ar
     9     2     1   ar
    10     1    10    1
    11    10    11    1
    12    11    24    1
    13    11    12    1
    14    15    14    1
    15    15    16    1
    16    24    25    1
    17    12    14   am
    18    12    13    2
    19    14    18    1
    20    16    19    1
    21    18    17    1
    22    27    25    2
    23    19    17    1
    24    19    20    1
    25    25    26    2
    26    25    28    1
    27    20    21    2
    28    20    22    1
    29    28    33   ar
    30    28    29   ar
    31    22    23    1
    32    33    31   ar
    33    29    30   ar
    34    31    37   ar
    35    31    32   ar
    36    30    32   ar
    37    37    36   ar
    38    32    34   ar
    39    36    35   ar
    40    34    35   ar
