@<TRIPOS>MOLECULE
1k1k_HEM_A_1.pdb
 43 50 0 0 0
SMALL
GASTEIGER

@<TRIPOS>ATOM
      1 FE         13.6930   51.5430   33.1050 Fe    142  HEM142      0.0000
      2  CHA       16.2510   52.5490   31.2150 C.2   142  HEM142      0.0000
      3  CHB       14.2900   48.2880   32.2010 C.2   142  HEM142      0.0000
      4  CHC       11.1510   50.4780   35.0780 C.2   142  HEM142      0.0000
      5  CHD       12.8860   54.7410   33.8090 C.2   142  HEM142      0.0000
      6  NA        14.9620   50.6420   31.9570 N.ar  142  HEM142      0.0000
      7  C1A       15.9730   51.2100   31.2440 C.ar  142  HEM142      0.0000
      8  C2A       16.6810   50.2250   30.4890 C.ar  142  HEM142      0.0000
      9  C3A       16.1380   49.0270   30.7650 C.ar  142  HEM142      0.0000
     10  C4A       15.0640   49.2880   31.6690 C.ar  142  HEM142      0.0000
     11  CMA       16.5660   47.6670   30.2150 C.3   142  HEM142      0.0000
     12  CAA       17.7930   50.5080   29.4870 C.3   142  HEM142      0.0000
     13  CBA       19.1540   50.3470   30.1340 C.3   142  HEM142      0.0000
     14  CGA       20.2910   50.6500   29.1840 C.2   142  HEM142      0.0000
     15  O1A       20.0930   51.4570   28.2480 O.co2 142  HEM142      0.0000
     16  O2A       21.3850   50.0790   29.3740 O.co2 142  HEM142      0.0000
     17  NB        12.9090   49.7610   33.5420 N.2   142  HEM142      0.0000
     18  C1B       13.2740   48.5030   33.0900 C.2   142  HEM142      0.0000
     19  C2B       12.4930   47.4470   33.7190 C.2   142  HEM142      0.0000
     20  C3B       11.6520   48.0680   34.5790 C.2   142  HEM142      0.0000
     21  C4B       11.8890   49.4970   34.4320 C.2   142  HEM142      0.0000
     22  CMB       12.6140   45.9490   33.4410 C.3   142  HEM142      0.0000
     23  CAB       10.8080   47.5010   35.5260 C.3   142  HEM142      0.0000
     24  CBB        9.7940   46.5140   35.2040 C.3   142  HEM142      0.0000
     25  NC        12.3470   52.4400   34.2260 N.ar  142  HEM142      0.0000
     26  C1C       11.3470   51.8540   34.9730 C.ar  142  HEM142      0.0000
     27  C2C       10.4630   52.8280   35.5750 C.ar  142  HEM142      0.0000
     28  C3C       10.9470   54.0300   35.1850 C.ar  142  HEM142      0.0000
     29  C4C       12.1110   53.7750   34.3780 C.ar  142  HEM142      0.0000
     30  CMC        9.3040   52.4800   36.5110 C.3   142  HEM142      0.0000
     31  CAC       10.4820   55.3000   35.4850 C.3   142  HEM142      0.0000
     32  CBC        9.0930   55.6930   35.4770 C.3   142  HEM142      0.0000
     33  ND        14.4440   53.2700   32.6610 N.2   142  HEM142      0.0000
     34  C1D       13.9850   54.5050   33.0180 C.2   142  HEM142      0.0000
     35  C2D       14.8140   55.5500   32.4650 C.2   142  HEM142      0.0000
     36  C3D       15.7920   54.9260   31.7840 C.2   142  HEM142      0.0000
     37  C4D       15.5460   53.5200   31.8930 C.2   142  HEM142      0.0000
     38  CMD       14.6140   57.0530   32.6070 C.3   142  HEM142      0.0000
     39  CAD       16.9120   55.5890   30.9960 C.3   142  HEM142      0.0000
     40  CBD       16.3570   55.9490   29.6340 C.3   142  HEM142      0.0000
     41  CGD       17.3900   56.6030   28.7380 C.2   142  HEM142      0.0000
     42  O1D       17.9280   57.6660   29.1080 O.co2 142  HEM142      0.0000
     43  O2D       17.6640   56.0550   27.6530 O.co2 142  HEM142      0.0000
@<TRIPOS>BOND
     1    43    41   ar
     2    15    14   ar
     3    41    42   ar
     4    41    40    1
     5    14    16   ar
     6    14    13    1
     7    12    13    1
     8    12     8    1
     9    40    39    1
    10    11     9    1
    11     8     9   ar
    12     8     7   ar
    13     9    10   ar
    14    39    36    1
    15     2     7    2
    16     2    37    1
    17     7     6   ar
    18    10     6   ar
    19    10     3    2
    20    36    37    1
    21    36    35    2
    22    37    33    2
    23     6     1    1
    24     3    18    1
    25    35    38    1
    26    35    34    1
    27    33    34    1
    28    33     1    1
    29    34     5    2
    30    18    17    2
    31    18    19    1
    32     1    17    1
    33     1    25    1
    34    22    19    1
    35    17    21    1
    36    19    20    2
    37     5    29    1
    38    25    29   ar
    39    25    26   ar
    40    29    28   ar
    41    21    20    1
    42    21     4    2
    43    20    23    1
    44    26     4    1
    45    26    27   ar
    46    28    31    1
    47    28    27   ar
    48    24    23    1
    49    32    31    1
    50    27    30    1
