@<TRIPOS>MOLECULE
1k1l_FD3_A_1.pdb
 33 36 0 0 0
SMALL
GASTEIGER

@<TRIPOS>ATOM
      1  C65       -3.2450    5.7480   20.2080 C.ar  999  FD3999     -0.0200
      2  C66       -3.8130    7.0280   20.1030 C.ar  999  FD3999      0.0038
      3  C64       -1.8960    5.5640   19.8250 C.ar  999  FD3999     -0.0042
      4  C63       -1.1280    6.6450   19.3710 C.ar  999  FD3999     -0.0001
      5  C62       -1.7070    7.9240   19.2760 C.ar  999  FD3999      0.0080
      6  C61       -3.0560    8.1170   19.6400 C.ar  999  FD3999      0.0972
      7  C25       -3.6940    9.4740   19.5440 C.2   999  FD3999      0.4766
      8  N43       -2.9810   10.4910   19.1390 N.pl3 999  FD3999      0.2047
      9  N54       -4.9560    9.6140   19.8860 N.pl3 999  FD3999      0.2047
     10  C34       -4.0900    4.5600   20.7130 C.3   999  FD3999      0.0550
     11  C31       -4.0520    4.3820   22.2420 C.3   999  FD3999      0.1780
     12  C35       -2.7330    4.7590   22.8850 C.2   999  FD3999      0.2438
     13  O36       -2.7060    5.8960   23.3530 O.2   999  FD3999     -0.2733
     14  N81       -1.6530    3.9220   22.9120 N.am  999  FD3999     -0.2754
     15  C71       -1.5950    2.7340   22.0300 C.3   999  FD3999      0.1123
     16  C72       -1.1190    1.5670   22.9310 C.3   999  FD3999      0.1102
     17  C74        0.1300    3.3040   24.3760 C.3   999  FD3999      0.1102
     18  C75       -0.3720    4.4270   23.4370 C.3   999  FD3999      0.1123
     19  N40       -0.0250    1.9370   23.8060 N.3   999  FD3999     -0.2144
     20  N29       -5.1560    5.1010   22.8930 N.3   999  FD3999     -0.0696
     21  S12       -6.0160    4.3560   24.1820 S.O2  999  FD3999      0.0772
     22  O32       -7.0700    5.2380   24.6080 O.2   999  FD3999     -0.1516
     23  O33       -6.2660    2.9880   23.8750 O.2   999  FD3999     -0.1516
     24  C2        -4.7590    4.4100   25.3600 C.ar  999  FD3999      0.1236
     25  C3        -4.4710    5.6480   25.9580 C.ar  999  FD3999      0.0200
     26  C4        -3.4430    5.7550   26.9290 C.ar  999  FD3999      0.0014
     27  C9        -3.0190    3.3300   26.6770 C.ar  999  FD3999      0.0013
     28  C10       -2.7100    4.5860   27.2970 C.ar  999  FD3999      0.0001
     29  C1        -4.0540    3.2590   25.7070 C.ar  999  FD3999      0.0200
     30  C5        -1.6680    4.6280   28.2750 C.ar  999  FD3999      0.0000
     31  C6        -0.9450    3.4410   28.6250 C.ar  999  FD3999      0.0000
     32  C7        -1.2660    2.2110   28.0000 C.ar  999  FD3999      0.0000
     33  C8        -2.2910    2.1500   27.0330 C.ar  999  FD3999      0.0000
@<TRIPOS>BOND
     1     8     7    2
     2     5     4   ar
     3     5     6   ar
     4     4     3   ar
     5     7     6    1
     6     7     9    1
     7     6     2   ar
     8     3     1   ar
     9     2     1   ar
    10     1    10    1
    11    10    11    1
    12    15    14    1
    13    15    16    1
    14    11    12    1
    15    11    20    1
    16    12    14   am
    17    12    13    2
    18    20    21    1
    19    14    18    1
    20    16    19    1
    21    18    17    1
    22    19    17    1
    23    23    21    2
    24    21    22    2
    25    21    24    1
    26    24    29   ar
    27    24    25   ar
    28    29    27   ar
    29    25    26   ar
    30    27    33   ar
    31    27    28   ar
    32    26    28   ar
    33    33    32   ar
    34    28    30   ar
    35    32    31   ar
    36    30    31   ar
