@<TRIPOS>MOLECULE
1k1m_FD4_A_1.pdb
 36 39 0 0 0
SMALL
GASTEIGER

@<TRIPOS>ATOM
      1  C65       -3.1730    5.6540   20.2490 C.ar  999  FD4999     -0.0200
      2  C66       -3.7450    6.9360   20.2070 C.ar  999  FD4999      0.0038
      3  C64       -1.8430    5.4820   19.8390 C.ar  999  FD4999     -0.0042
      4  C63       -1.0840    6.5810   19.4160 C.ar  999  FD4999     -0.0001
      5  C62       -1.6560    7.8650   19.3790 C.ar  999  FD4999      0.0080
      6  C61       -2.9970    8.0490   19.7770 C.ar  999  FD4999      0.0972
      7  C25       -3.6340    9.4260   19.7420 C.2   999  FD4999      0.4766
      8  N43       -2.9550   10.4400   19.2660 N.pl3 999  FD4999      0.2047
      9  N54       -4.8630    9.5760   20.1840 N.pl3 999  FD4999      0.2047
     10  C34       -3.9970    4.4420   20.7130 C.3   999  FD4999      0.0550
     11  C31       -3.9400    4.2160   22.2590 C.3   999  FD4999      0.1780
     12  C35       -2.6100    4.6180   22.8620 C.2   999  FD4999      0.2438
     13  O36       -2.5170    5.8040   23.1540 O.2   999  FD4999     -0.2733
     14  N81       -1.5750    3.7580   23.0680 N.am  999  FD4999     -0.2748
     15  C71       -1.5450    2.4380   22.4400 C.3   999  FD4999      0.1149
     16  C72       -1.1290    1.4750   23.5690 C.3   999  FD4999      0.1149
     17  C74        0.1600    3.3960   24.6590 C.3   999  FD4999      0.1149
     18  C75       -0.2940    4.3020   23.4970 C.3   999  FD4999      0.1149
     19  N40       -0.0020    1.9730   24.3640 N.am  999  FD4999     -0.2760
     20  N29       -5.0150    4.9480   22.9320 N.3   999  FD4999     -0.0696
     21  S12       -5.8890    4.2530   24.2530 S.O2  999  FD4999      0.0772
     22  O32       -6.9290    5.1660   24.6370 O.2   999  FD4999     -0.1516
     23  O33       -6.2180    2.8790   23.9270 O.2   999  FD4999     -0.1516
     24  C2        -4.6560    4.2900   25.4950 C.ar  999  FD4999      0.1236
     25  C3        -4.3000    5.5150   26.0860 C.ar  999  FD4999      0.0200
     26  C4        -3.3270    5.5790   27.0850 C.ar  999  FD4999      0.0014
     27  C9        -3.0350    3.1740   26.9510 C.ar  999  FD4999      0.0013
     28  C10       -2.6930    4.4190   27.5220 C.ar  999  FD4999      0.0001
     29  C1        -4.0290    3.1110   25.9330 C.ar  999  FD4999      0.0200
     30  C5        -1.7280    4.4860   28.5210 C.ar  999  FD4999      0.0000
     31  C6        -1.0640    3.3260   28.9270 C.ar  999  FD4999      0.0000
     32  C7        -1.4180    2.0830   28.3780 C.ar  999  FD4999      0.0000
     33  C8        -2.4000    2.0060   27.3840 C.ar  999  FD4999      0.0000
     34  C48        0.9320    1.0670   24.7960 C.2   999  FD4999      0.2262
     35  O49        1.8470    1.3940   25.5380 O.2   999  FD4999     -0.2749
     36  C55        0.8910   -0.3950   24.4080 C.3   999  FD4999      0.0948
@<TRIPOS>BOND
     1     8     7    2
     2     5     4   ar
     3     5     6   ar
     4     4     3   ar
     5     7     6    1
     6     7     9    1
     7     6     2   ar
     8     3     1   ar
     9     2     1   ar
    10     1    10    1
    11    10    11    1
    12    11    12    1
    13    11    20    1
    14    15    14    1
    15    15    16    1
    16    12    14   am
    17    12    13    2
    18    20    21    1
    19    14    18    1
    20    18    17    1
    21    16    19    1
    22    23    21    2
    23    21    22    2
    24    21    24    1
    25    19    17    1
    26    19    34   am
    27    36    34    1
    28    34    35    2
    29    24    29   ar
    30    24    25   ar
    31    29    27   ar
    32    25    26   ar
    33    27    33   ar
    34    27    28   ar
    35    26    28   ar
    36    33    32   ar
    37    28    30   ar
    38    32    31   ar
    39    30    31   ar
