@<TRIPOS>MOLECULE
1k1n_CCR_A_1.pdb
 42 44 0 0 0
SMALL
GASTEIGER

@<TRIPOS>ATOM
      1  C51       -1.1610   15.9210   18.7940 C.ar  999  CCR999     -0.0200
      2  C52       -2.2510   16.2390   17.9570 C.ar  999  CCR999     -0.0039
      3  C53       -2.4960   15.4860   16.8130 C.ar  999  CCR999      0.0077
      4  C55       -0.6290   14.0620   17.3350 C.ar  999  CCR999      0.0077
      5  C56       -0.3600   14.8220   18.4810 C.ar  999  CCR999     -0.0039
      6  C54       -1.7020   14.3660   16.4650 C.ar  999  CCR999      0.0975
      7  C57       -1.9850   13.5460   15.2290 C.2   999  CCR999      0.4766
      8  N58       -2.6060   14.0610   14.1910 N.pl3 999  CCR999      0.2047
      9  N59       -1.6020   12.2830   15.1330 N.pl3 999  CCR999      0.2047
     10  C44       -0.8830   16.7710   20.0210 C.3   999  CCR999      0.0574
     11  C41        0.1430   17.8700   19.6190 C.3   999  CCR999      0.1756
     12  N40       -0.5090   18.8490   18.7710 N.am  999  CCR999     -0.1963
     13  C42        0.5480   18.6580   20.8480 C.2   999  CCR999      0.2458
     14  O43       -0.2610   18.7330   21.7610 O.2   999  CCR999     -0.2730
     15  N60        1.7630   19.2570   20.9060 N.am  999  CCR999     -0.2782
     16  C61        2.1020   20.0820   22.0650 C.3   999  CCR999      0.0934
     17  C62        2.1600   21.5440   21.6280 C.3   999  CCR999      0.0216
     18  C63        3.1630   21.6850   20.4460 C.3   999  CCR999      0.0035
     19  C64        2.6840   20.8010   19.2710 C.3   999  CCR999      0.0216
     20  C65        2.6240   19.3280   19.7190 C.3   999  CCR999      0.0934
     21  N23       -0.6380   20.4090   15.4420 N.3   999  CCR999     -0.0693
     22  S20       -0.5480   21.9710   14.9630 S.O2  999  CCR999      0.0766
     23  O21       -1.7860   22.5480   15.4320 O.2   999  CCR999     -0.1516
     24  O22       -0.4330   21.9640   13.5300 O.2   999  CCR999     -0.1516
     25  C11        0.9230   22.5860   15.6520 C.ar  999  CCR999      0.1155
     26  C12        0.8790   23.6800   16.5800 C.ar  999  CCR999     -0.0046
     27  C13        2.0660   24.1870   17.1710 C.ar  999  CCR999      0.0094
     28  C14        3.3110   23.6100   16.8580 C.ar  999  CCR999      0.1342
     29  C15        3.3440   22.5220   15.9590 C.ar  999  CCR999      0.0336
     30  C16        2.1830   22.0070   15.3510 C.ar  999  CCR999     -0.0005
     31  C17       -0.4370   24.3850   16.9880 C.3   999  CCR999      0.0322
     32  C18        2.0720   25.3710   18.1710 C.3   999  CCR999      0.0339
     33  C10        2.5000   20.8290   14.3960 C.3   999  CCR999      0.0325
     34  O11        4.4940   24.1220   17.4630 O.3   999  CCR999     -0.4718
     35  C19        5.7750   23.4850   17.2280 C.3   999  CCR999      0.2525
     36  C30       -1.0760   20.0720   16.7690 C.3   999  CCR999      0.1864
     37  C31       -2.5130   19.5450   16.6440 C.3   999  CCR999      0.1427
     38  C32       -3.3320   19.8250   17.8750 C.2   999  CCR999      0.3669
     39  O33       -4.5130   19.4630   17.8290 O.co2 999  CCR999     -0.2456
     40  O34       -2.8240   20.4280   18.8600 O.co2 999  CCR999     -0.2456
     41  C35       -0.2230   19.0280   17.4520 C.2   999  CCR999      0.2601
     42  O36        0.6400   18.4310   16.8340 O.2   999  CCR999     -0.2717
@<TRIPOS>BOND
     1    24    22    2
     2     8     7    2
     3    33    30    1
     4    22    23    2
     5    22    21    1
     6    22    25    1
     7     9     7    1
     8     7     6    1
     9    30    25   ar
    10    30    29   ar
    11    21    36    1
    12    25    26   ar
    13    29    28   ar
    14     6     3   ar
    15     6     4   ar
    16    26    31    1
    17    26    27   ar
    18    37    36    1
    19    37    38    1
    20    36    41    1
    21     3     2   ar
    22    42    41    2
    23    28    27   ar
    24    28    34    1
    25    27    32    1
    26    35    34    1
    27     4     5   ar
    28    41    12   am
    29    39    38   ar
    30    38    40   ar
    31     2     1   ar
    32     5     1   ar
    33    12    11    1
    34     1    10    1
    35    19    20    1
    36    19    18    1
    37    11    10    1
    38    11    13    1
    39    20    15    1
    40    18    17    1
    41    13    15   am
    42    13    14    2
    43    15    16    1
    44    17    16    1
