@<TRIPOS>MOLECULE
1k1o_IGN_A_1.pdb
 31 32 0 0 0
SMALL
GASTEIGER

@<TRIPOS>ATOM
      1  C1        43.4400   22.9820   50.9150 C.2   999  IGN999      0.2595
      2  O2        44.5390   23.4540   51.1630 O.2   999  IGN999     -0.2716
      3  N3        43.2750   21.6880   50.5110 N.am  999  IGN999     -0.2039
      4  C4        44.4400   20.8410   50.3640 C.3   999  IGN999      0.1189
      5  C5        44.2490   19.5460   51.1810 C.3   999  IGN999      0.0703
      6  C6        45.6050   19.0610   51.7200 C.3   999  IGN999      0.2222
      7  N7        45.4150   17.9810   52.6720 N.pl3 999  IGN999     -0.0865
      8  C8        45.8710   18.0630   53.8890 C.cat 999  IGN999      0.5346
      9  N9        46.3220   19.1800   54.4130 N.pl3 999  IGN999      0.1354
     10  N10       45.8990   16.9860   54.6130 N.pl3 999  IGN999      0.1354
     11  N11       42.4870   24.9140   52.0770 N.am  999  IGN999     -0.2718
     12  C12       42.2220   23.8780   51.0500 C.3   999  IGN999      0.1535
     13  C13       42.0170   24.5030   49.6710 C.3   999  IGN999      0.0293
     14  C14       40.8310   25.5080   49.6850 C.3   999  IGN999      0.0040
     15  C15       41.1820   26.6250   50.7080 C.3   999  IGN999      0.0216
     16  C16       41.4450   26.0160   52.1120 C.3   999  IGN999      0.0939
     17  O31       43.0750   23.1830   53.4900 O.2   999  IGN999     -0.2734
     18  C32       42.6750   24.3610   53.3240 C.2   999  IGN999      0.2418
     19  C33       42.3870   25.1930   54.5340 C.3   999  IGN999      0.1495
     20  C34       41.2530   24.4910   55.3750 C.3   999  IGN999      0.0267
     21  C51       39.0480   24.5180   56.5380 C.3   999  IGN999      0.0001
     22  C52       40.1120   25.4250   55.8380 C.3   999  IGN999      0.0019
     23  C53       39.4760   26.2390   54.6620 C.3   999  IGN999      0.0001
     24  C54       38.1080   26.8590   55.0430 C.3   999  IGN999      0.0000
     25  C55       37.1670   25.7630   55.5090 C.3   999  IGN999      0.0000
     26  C56       37.7150   25.2280   56.8220 C.3   999  IGN999      0.0000
     27  N21       43.5210   25.3000   55.4180 N.3   999  IGN999     -0.1988
     28  C22       44.8470   24.9030   54.9380 C.3   999  IGN999      0.2033
     29  C23       45.7340   24.7210   56.1220 C.2   999  IGN999      0.3823
     30  O24       45.2390   24.7270   57.2860 O.co2 999  IGN999     -0.2440
     31  O25       47.0460   24.5800   55.9490 O.co2 999  IGN999     -0.2440
@<TRIPOS>BOND
     1    13    14    1
     2    13    12    1
     3    14    15    1
     4     4     3    1
     5     4     5    1
     6     3     1   am
     7    15    16    1
     8     1    12    1
     9     1     2    2
    10    12    11    1
    11     5     6    1
    12     6     7    1
    13    11    16    1
    14    11    18   am
    15     7     8    2
    16    18    17    2
    17    18    19    1
    18     8     9    1
    19     8    10    1
    20    19    20    1
    21    19    27    1
    22    23    24    1
    23    23    22    1
    24    28    27    1
    25    28    29    1
    26    24    25    1
    27    20    22    1
    28    25    26    1
    29    22    21    1
    30    31    29   ar
    31    29    30   ar
    32    21    26    1
