@<TRIPOS>MOLECULE
1k1p_MEL_A_1.pdb
 31 33 0 0 0
SMALL
GASTEIGER

@<TRIPOS>ATOM
      1  C1        40.2620   24.9760   55.8330 C.3   999  MEL999      0.0249
      2  C2        39.0840   25.9120   55.3820 C.3   999  MEL999      0.0019
      3  C3        37.7310   25.3530   55.9250 C.3   999  MEL999      0.0001
      4  C4        37.7780   25.2940   57.4640 C.3   999  MEL999      0.0000
      5  C5        38.9620   24.4070   57.9160 C.3   999  MEL999      0.0001
      6  C6        40.3050   24.9610   57.3840 C.3   999  MEL999      0.0019
      7  N7        42.7580   25.0960   56.0500 N.3   999  MEL999     -0.1988
      8  C8        41.6120   25.2920   55.1120 C.3   999  MEL999      0.1494
      9  C9        41.7490   24.4670   53.8410 C.2   999  MEL999      0.2418
     10  O0        42.3380   23.4110   53.8620 O.2   999  MEL999     -0.2734
     11  N11       41.0590   24.8760   52.7780 N.am  999  MEL999     -0.2717
     12  C12       41.3670   24.3570   51.3970 C.3   999  MEL999      0.1552
     13  C13       42.8260   23.8700   51.1850 C.2   999  MEL999      0.2598
     14  O14       43.7430   24.6850   51.3900 O.2   999  MEL999     -0.2715
     15  N15       43.0530   22.6320   50.7290 N.am  999  MEL999     -0.1992
     16  C16       44.4260   22.1590   50.4740 C.3   999  MEL999      0.1415
     17  C17       44.7950   21.0400   51.4280 C.ar  999  MEL999     -0.0006
     18  C18       45.0830   21.3600   52.7650 C.ar  999  MEL999     -0.0023
     19  C19       45.4330   20.3360   53.6710 C.ar  999  MEL999      0.0077
     20  C20       45.5050   18.9900   53.2470 C.ar  999  MEL999      0.0975
     21  C21       45.2370   18.6750   51.9070 C.ar  999  MEL999      0.0077
     22  C22       44.8830   19.6920   51.0110 C.ar  999  MEL999     -0.0023
     23  C23       45.8740   17.9020   54.2140 C.2   999  MEL999      0.4766
     24  N24       46.6570   18.1780   55.2140 N.pl3 999  MEL999      0.2047
     25  N25       45.4050   16.6840   54.0250 N.pl3 999  MEL999      0.2047
     26  C26       41.0450   25.7450   50.8200 C.3   999  MEL999      0.0508
     27  C27       41.2710   26.2580   52.2740 C.3   999  MEL999      0.0961
     28  C28       44.0940   25.5280   55.5730 C.3   999  MEL999      0.2033
     29  C29       45.2120   25.1060   56.4780 C.2   999  MEL999      0.3823
     30  O30       45.0270   25.1420   57.7020 O.co2 999  MEL999     -0.2440
     31  O31       46.3050   24.7400   55.9750 O.co2 999  MEL999     -0.2440
@<TRIPOS>BOND
     1    16    15    1
     2    16    17    1
     3    15    13   am
     4    26    12    1
     5    26    27    1
     6    22    17   ar
     7    22    21   ar
     8    13    14    2
     9    13    12    1
    10    12    11    1
    11    17    18   ar
    12    21    20   ar
    13    27    11    1
    14    18    19   ar
    15    11     9   am
    16    20    19   ar
    17    20    23    1
    18     9    10    2
    19     9     8    1
    20    25    23    2
    21    23    24    1
    22     8     1    1
    23     8     7    1
    24     2     1    1
    25     2     3    1
    26    28     7    1
    27    28    29    1
    28     1     6    1
    29     3     4    1
    30    31    29   ar
    31    29    30   ar
    32     6     5    1
    33     4     5    1
