@<TRIPOS>MOLECULE
1k1w_GLC_A_1.pdb
 12 12 0 0 0
SMALL
GASTEIGER

@<TRIPOS>ATOM
      1  C1        57.4890   32.4220   18.0470 C.3   660  GLC660      0.3024
      2  C2        56.8640   31.0080   18.0130 C.3   660  GLC660      0.2434
      3  C3        57.3530   30.1420   19.1990 C.3   660  GLC660      0.2199
      4  C4        58.8730   30.1930   19.2840 C.3   660  GLC660      0.2144
      5  C5        59.3580   31.6390   19.3130 C.3   660  GLC660      0.1836
      6  C6        60.8830   31.7310   19.3550 C.3   660  GLC660      0.2142
      7  O1        57.0010   33.1100   19.1620 O.3   660  GLC660     -0.1869
      8  O2        55.4540   31.1410   18.0670 O.3   660  GLC660     -0.2148
      9  O3        56.9660   28.8060   18.9580 O.3   660  GLC660     -0.2174
     10  O4        59.2800   29.5450   20.4620 O.3   660  GLC660     -0.2176
     11  O5        58.9190   32.3330   18.1360 O.3   660  GLC660     -0.3236
     12  O6        61.5140   30.6110   18.7410 O.3   660  GLC660     -0.2176
@<TRIPOS>BOND
     1     2     1    1
     2     2     8    1
     3     2     3    1
     4     1    11    1
     5     1     7    1
     6    11     5    1
     7    12     6    1
     8     9     3    1
     9     3     4    1
    10     4     5    1
    11     4    10    1
    12     5     6    1
