@<TRIPOS>MOLECULE
1k1y_MAL_B_1.pdb
 23 24 0 0 0
SMALL
GASTEIGER

@<TRIPOS>ATOM
      1  C1       -37.9300   19.2370   72.0750 C.3   660  MAL660      0.2695
      2  C2       -38.2270   20.6550   71.5490 C.3   660  MAL660      0.2406
      3  C3       -39.6210   21.0950   71.9990 C.3   660  MAL660      0.2198
      4  C4       -40.6560   20.0870   71.5100 C.3   660  MAL660      0.2144
      5  C5       -40.2890   18.6930   72.0310 C.3   660  MAL660      0.1835
      6  C6       -41.2080   17.6270   71.4890 C.3   660  MAL660      0.2142
      7  O1       -37.8080   19.2480   73.4750 O.3   660  MAL660     -0.3257
      8  O2       -37.2560   21.5720   72.0240 O.3   660  MAL660     -0.2149
      9  O3       -39.9220   22.3820   71.4840 O.3   660  MAL660     -0.2174
     10  O4       -41.9500   20.4600   71.9710 O.3   660  MAL660     -0.2176
     11  O5       -38.9440   18.3380   71.6270 O.3   660  MAL660     -0.3256
     12  O6       -41.4510   16.6270   72.4650 O.3   660  MAL660     -0.2176
     13  C1'      -35.0760   18.0080   76.4160 C.3   660  MAL660      0.3023
     14  C2'      -34.7730   19.3530   75.7430 C.3   660  MAL660      0.2433
     15  C3'      -36.0010   19.8650   74.9860 C.3   660  MAL660      0.2168
     16  C4'      -36.5390   18.8020   74.0150 C.3   660  MAL660      0.1804
     17  C5'      -36.7250   17.4510   74.7290 C.3   660  MAL660      0.1804
     18  C6'      -37.0030   16.3370   73.7400 C.3   660  MAL660      0.2141
     19  O1'      -35.9890   18.1810   77.4620 O.3   660  MAL660     -0.1869
     20  O2'      -34.3900   20.3050   76.7250 O.3   660  MAL660     -0.2148
     21  O3'      -35.6520   21.0350   74.2590 O.3   660  MAL660     -0.2175
     22  O5'      -35.5270   17.0690   75.4460 O.3   660  MAL660     -0.3237
     23  O6'      -37.5520   15.2000   74.3900 O.3   660  MAL660     -0.2176
@<TRIPOS>BOND
     1     9     3    1
     2     6     5    1
     3     6    12    1
     4     4    10    1
     5     4     3    1
     6     4     5    1
     7     2     3    1
     8     2     8    1
     9     2     1    1
    10    11     5    1
    11    11     1    1
    12     1     7    1
    13     7    16    1
    14    18    23    1
    15    18    17    1
    16    16    17    1
    17    16    15    1
    18    21    15    1
    19    17    22    1
    20    15    14    1
    21    22    13    1
    22    14    13    1
    23    14    20    1
    24    13    19    1
