@<TRIPOS>MOLECULE
1k1y_ACR_A_1.pdb
 44 47 0 0 0
SMALL
GASTEIGER

@<TRIPOS>ATOM
      1  C1A       -2.3020   58.4640   91.4770 C.3   660  ACR660      0.1273
      2  C2A       -1.8660   59.5760   90.3780 C.3   660  ACR660      0.2049
      3  C3A       -0.8760   60.5950   91.0570 C.3   660  ACR660      0.2179
      4  C4A       -1.6140   61.3480   92.2200 C.3   660  ACR660      0.2053
      5  C5A       -2.4050   60.4240   93.1780 C.2   660  ACR660      0.0180
      6  C6A       -2.8700   60.9790   94.5230 C.3   660  ACR660      0.2066
      7  C7A       -2.7130   59.1290   92.8200 C.2   660  ACR660     -0.0100
      8  O2A       -1.2660   58.9040   89.3080 O.3   660  ACR660     -0.2184
      9  O3A       -0.4630   61.5620   90.1130 O.3   660  ACR660     -0.2172
     10  O4A       -0.6090   62.2080   92.8250 O.3   660  ACR660     -0.2157
     11  O6A       -3.9460   61.9000   94.2730 O.3   660  ACR660     -0.2155
     12  C1B       -0.7920   53.2100   92.2520 C.3   660  ACR660      0.2694
     13  C2B       -1.0570   53.8110   90.8370 C.3   660  ACR660      0.2394
     14  C3B       -0.6710   55.3020   90.7580 C.3   660  ACR660      0.2054
     15  C4B       -1.4690   56.0850   91.8370 C.3   660  ACR660      0.1333
     16  C5B       -1.0590   55.4950   93.2600 C.3   660  ACR660      0.1364
     17  C6B       -1.7620   56.1580   94.4310 C.3   660  ACR660      0.0337
     18  N4B       -1.1460   57.5380   91.7470 N.3   660  ACR660     -0.2087
     19  O2B       -0.3830   53.0070   89.8790 O.3   660  ACR660     -0.2149
     20  O3B       -0.9700   55.7690   89.4390 O.3   660  ACR660     -0.2186
     21  O5B       -1.3880   54.0240   93.2990 O.3   660  ACR660     -0.3295
     22  C1C        3.2500   50.7820   94.9360 C.3   660  ACR660      0.2695
     23  C2C        3.0790   50.4450   93.4210 C.3   660  ACR660      0.2404
     24  C3C        2.4910   51.6670   92.6720 C.3   660  ACR660      0.2167
     25  C4C        1.1030   51.9910   93.3180 C.3   660  ACR660      0.1804
     26  C5C        1.3890   52.3810   94.8090 C.3   660  ACR660      0.1803
     27  C6C        0.0970   52.7070   95.5950 C.3   660  ACR660      0.2141
     28  O2C        4.3410   50.0470   92.9060 O.3   660  ACR660     -0.2149
     29  O3C        2.3500   51.2870   91.3140 O.3   660  ACR660     -0.2175
     30  O4C        0.4840   53.1440   92.7350 O.3   660  ACR660     -0.3257
     31  O5C        2.0160   51.2480   95.5000 O.3   660  ACR660     -0.3257
     32  O6C        0.3750   53.0740   96.9260 O.3   660  ACR660     -0.2176
     33  C1D        7.3020   52.4550   98.0040 C.3   660  ACR660      0.3023
     34  C2D        7.0760   50.9960   97.4840 C.3   660  ACR660      0.2433
     35  C3D        6.3180   51.0190   96.1540 C.3   660  ACR660      0.2168
     36  C4D        4.9660   51.7240   96.3640 C.3   660  ACR660      0.1804
     37  C5D        5.2210   53.2140   96.8690 C.3   660  ACR660      0.1804
     38  C6D        3.9260   54.0020   97.1230 C.3   660  ACR660      0.2141
     39  O1D        8.1320   53.1600   97.1290 O.3   660  ACR660     -0.1869
     40  O2D        8.3540   50.3510   97.3380 O.3   660  ACR660     -0.2148
     41  O3D        6.1230   49.6580   95.7030 O.3   660  ACR660     -0.2175
     42  O4D        4.2330   51.7500   95.1130 O.3   660  ACR660     -0.3257
     43  O5D        6.0000   53.1740   98.1390 O.3   660  ACR660     -0.3237
     44  O6D        3.1700   53.4700   98.2160 O.3   660  ACR660     -0.2176
@<TRIPOS>BOND
     1     8     2    1
     2    20    14    1
     3    19    13    1
     4     9     3    1
     5     2     3    1
     6     2     1    1
     7    14    13    1
     8    14    15    1
     9    13    12    1
    10     3     4    1
    11    29    24    1
    12     1    18    1
    13     1     7    1
    14    18    15    1
    15    15    16    1
    16     4    10    1
    17     4     5    1
    18    12    30    1
    19    12    21    1
    20    24    25    1
    21    24    23    1
    22    30    25    1
    23     7     5    2
    24    28    23    1
    25     5     6    1
    26    16    21    1
    27    16    17    1
    28    25    26    1
    29    23    22    1
    30    11     6    1
    31    26    31    1
    32    26    27    1
    33    22    42    1
    34    22    31    1
    35    42    36    1
    36    27    32    1
    37    41    35    1
    38    35    36    1
    39    35    34    1
    40    36    37    1
    41    37    38    1
    42    37    43    1
    43    38    44    1
    44    39    33    1
    45    40    34    1
    46    34    33    1
    47    33    43    1
