@<TRIPOS>MOLECULE
1k21_IGN_H_1.pdb
 31 32 0 0 0
SMALL
GASTEIGER

@<TRIPOS>ATOM
      1  C1        16.1560  -11.6220   20.2070 C.2   999  IGN999      0.2598
      2  O2        15.4510  -12.5640   19.8270 O.2   999  IGN999     -0.2715
      3  N3        15.6340  -10.3970   20.3990 N.am  999  IGN999     -0.2039
      4  C4        14.2220  -10.0260   20.1930 C.3   999  IGN999      0.1189
      5  C5        13.4950   -9.7650   21.5200 C.3   999  IGN999      0.0703
      6  C6        12.0090  -10.0930   21.4210 C.3   999  IGN999      0.2222
      7  N7        11.6090  -11.1220   22.3900 N.pl3 999  IGN999     -0.0865
      8  C8        11.0030  -10.8830   23.6710 C.cat 999  IGN999      0.5346
      9  N9        10.6870  -11.9160   24.4420 N.pl3 999  IGN999      0.1354
     10  N10       10.7580   -9.6370   24.0780 N.pl3 999  IGN999      0.1354
     11  N11       17.9500  -13.2540   21.0630 N.am  999  IGN999     -0.2496
     12  C12       17.6790  -11.8530   20.4870 C.3   999  IGN999      0.1579
     13  C13       18.4230  -11.6090   19.1400 C.3   999  IGN999      0.0343
     14  C14       19.8990  -12.0490   19.1810 C.3   999  IGN999      0.0296
     15  C15       20.0010  -13.5800   19.4210 C.2   999  IGN999     -0.0099
     16  C16       18.8870  -14.1930   20.3230 C.2   999  IGN999      0.0634
     17  O31       16.5740  -12.9000   22.8600 O.2   999  IGN999     -0.2730
     18  C32       17.3450  -13.6610   22.2510 C.2   999  IGN999      0.2455
     19  C33       17.5520  -15.0700   22.9300 C.3   999  IGN999      0.1498
     20  C34       17.9260  -15.0000   24.4670 C.3   999  IGN999      0.0267
     21  C51       20.4370  -14.8210   23.5540 C.3   999  IGN999      0.0001
     22  C52       19.4520  -14.7400   24.8050 C.3   999  IGN999      0.0019
     23  C53       19.7200  -13.3720   25.5260 C.3   999  IGN999      0.0001
     24  C54       21.2120  -13.2650   25.9910 C.3   999  IGN999      0.0000
     25  C55       22.1600  -13.3700   24.7530 C.3   999  IGN999      0.0000
     26  C56       21.9280  -14.7230   24.0130 C.3   999  IGN999      0.0000
     27  N21       16.2730  -15.8300   22.8380 N.3   999  IGN999     -0.1988
     28  C22       15.6600  -16.2720   21.5460 C.3   999  IGN999      0.2033
     29  C23       14.2430  -16.7860   21.7690 C.2   999  IGN999      0.3823
     30  O24       13.8040  -16.9480   22.9320 O.co2 999  IGN999     -0.2440
     31  O25       13.5190  -17.0470   20.7800 O.co2 999  IGN999     -0.2440
@<TRIPOS>BOND
     1    13    14    1
     2    13    12    1
     3    14    15    1
     4    15    16    2
     5     2     1    2
     6     4     3    1
     7     4     5    1
     8     1     3   am
     9     1    12    1
    10    16    11    1
    11    12    11    1
    12    31    29   ar
    13    11    18   am
    14     6     5    1
    15     6     7    1
    16    28    29    1
    17    28    27    1
    18    29    30   ar
    19    18    17    2
    20    18    19    1
    21     7     8    2
    22    27    19    1
    23    19    20    1
    24    21    26    1
    25    21    22    1
    26     8    10    1
    27     8     9    1
    28    26    25    1
    29    20    22    1
    30    25    24    1
    31    22    23    1
    32    23    24    1
