@<TRIPOS>MOLECULE
1k22_MEL_H_1.pdb
 31 33 0 0 0
SMALL
GASTEIGER

@<TRIPOS>ATOM
      1  C1        18.7400  -14.4090   24.4190 C.3   999  MEL999      0.0249
      2  C2        18.9060  -15.7460   25.2000 C.3   999  MEL999      0.0019
      3  C3        19.4890  -15.5290   26.6320 C.3   999  MEL999      0.0001
      4  C4        20.8110  -14.7180   26.5380 C.3   999  MEL999      0.0000
      5  C5        20.5890  -13.3450   25.8180 C.3   999  MEL999      0.0001
      6  C6        20.0880  -13.6120   24.3660 C.3   999  MEL999      0.0019
      7  N7        17.0410  -15.5660   22.9810 N.3   999  MEL999     -0.1988
      8  C8        18.2480  -14.6920   22.9380 C.3   999  MEL999      0.1494
      9  C9        17.8690  -13.4020   22.2810 C.2   999  MEL999      0.2418
     10  O0        16.8270  -12.7900   22.6660 O.2   999  MEL999     -0.2734
     11  N11       18.6150  -12.9120   21.2930 N.am  999  MEL999     -0.2717
     12  C12       18.4550  -11.6940   20.4810 C.3   999  MEL999      0.1552
     13  C13       17.0860  -11.8150   19.8150 C.2   999  MEL999      0.2598
     14  O14       16.8180  -12.8260   19.1830 O.2   999  MEL999     -0.2715
     15  N15       16.1420  -10.7990   19.9520 N.am  999  MEL999     -0.1992
     16  C16       14.7890  -11.0010   19.4880 C.3   999  MEL999      0.1415
     17  C17       13.8470  -10.9690   20.6190 C.ar  999  MEL999     -0.0006
     18  C18       13.2900   -9.7430   21.0060 C.ar  999  MEL999     -0.0023
     19  C19       12.3680   -9.6780   22.1010 C.ar  999  MEL999      0.0077
     20  C20       12.0130  -10.8460   22.8000 C.ar  999  MEL999      0.0975
     21  C21       12.5810  -12.1100   22.4090 C.ar  999  MEL999      0.0077
     22  C22       13.5050  -12.1640   21.3070 C.ar  999  MEL999     -0.0023
     23  C23       11.1080  -10.7790   23.8690 C.2   999  MEL999      0.4766
     24  N24       10.9490   -9.6150   24.5710 N.pl3 999  MEL999      0.2047
     25  N25       10.3630  -11.8800   24.2150 N.pl3 999  MEL999      0.2047
     26  C26       19.7830  -11.9190   19.8420 C.3   999  MEL999      0.0508
     27  C27       19.8320  -13.2830   20.5760 C.3   999  MEL999      0.0961
     28  C28       16.4900  -16.1470   21.7190 C.3   999  MEL999      0.2033
     29  C29       14.9780  -16.4710   21.8140 C.2   999  MEL999      0.3823
     30  O30       14.3890  -16.5990   23.0010 O.co2 999  MEL999     -0.2440
     31  O31       14.2770  -16.6270   20.7220 O.co2 999  MEL999     -0.2440
@<TRIPOS>BOND
     1    14    13    2
     2    16    15    1
     3    16    17    1
     4    13    15   am
     5    13    12    1
     6    26    12    1
     7    26    27    1
     8    12    11    1
     9    27    11    1
    10    17    18   ar
    11    17    22   ar
    12    31    29   ar
    13    18    19   ar
    14    11     9   am
    15    22    21   ar
    16    28    29    1
    17    28     7    1
    18    29    30   ar
    19    19    20   ar
    20     9    10    2
    21     9     8    1
    22    21    20   ar
    23    20    23    1
    24     8     7    1
    25     8     1    1
    26    23    25    2
    27    23    24    1
    28     6     1    1
    29     6     5    1
    30     1     2    1
    31     2     3    1
    32     5     4    1
    33     4     3    1
