@<TRIPOS>MOLECULE
1k27_MTM_A_1.pdb
 20 22 0 0 0
SMALL
GASTEIGER

@<TRIPOS>ATOM
      1  CS        58.5210   13.4930   31.9010 C.3   401  MTM401      0.0692
      2  S5'       58.5890   14.5390   30.4230 S.3   401  MTM401     -0.1378
      3  C5'       59.2520   16.0890   31.1300 C.3   401  MTM401      0.0776
      4  C4'       60.7460   16.0410   31.4360 C.3   401  MTM401      0.1168
      5  N4'       61.4390   15.5330   30.2470 N.3   401  MTM401     -0.2101
      6  C2'       61.9800   17.8430   30.3960 C.3   401  MTM401      0.2035
      7  O2'       63.3420   18.3630   30.6010 O.3   401  MTM401     -0.2185
      8  C3'       61.3410   17.4070   31.7860 C.3   401  MTM401      0.2005
      9  O3'       62.3740   17.2840   32.8510 O.3   401  MTM401     -0.2188
     10  C1'       62.0150   16.6010   29.4380 C.3   401  MTM401      0.1309
     11  C9        61.1390   16.7030   28.0930 C.2   401  MTM401      0.0343
     12  C8        60.8640   15.6420   27.2360 C.2   401  MTM401      0.0978
     13  N7        60.1240   15.9570   26.1900 N.2   401  MTM401     -0.2350
     14  C5        59.8810   17.3110   26.3470 C.2   401  MTM401      0.1884
     15  C6        59.1570   18.2780   25.5860 C.2   401  MTM401      0.4315
     16  N6        58.5200   17.9650   24.4520 N.pl3 401  MTM401      0.2177
     17  N1        59.1320   19.5860   26.0670 N.2   401  MTM401     -0.0278
     18  C2        59.7750   19.9130   27.2120 C.3   401  MTM401      0.3922
     19  N3        60.4840   19.0820   28.0040 N.2   401  MTM401     -0.2171
     20  C4        60.4940   17.7950   27.5090 C.2   401  MTM401      0.1045
@<TRIPOS>BOND
     1    16    15    1
     2    15    17    2
     3    15    14    1
     4    17    18    1
     5    13    14    2
     6    13    12    1
     7    14    20    1
     8    18    19    1
     9    12    11    2
    10    20    19    2
    11    20    11    1
    12    11    10    1
    13    10     5    1
    14    10     6    1
    15     5     4    1
    16     6     7    1
    17     6     8    1
    18     2     3    1
    19     2     1    1
    20     3     4    1
    21     4     8    1
    22     8     9    1
