@<TRIPOS>MOLECULE
1k2i_SN1_1_1.pdb
 12 12 0 0 0
SMALL
GASTEIGER

@<TRIPOS>ATOM
      1  CA2       27.6610    1.8660   38.5860 C.2   400  SN1400      0.0455
      2  CB2       26.9660    2.7040   39.3520 C.2   400  SN1400      0.0066
      3  CG        27.0890    2.9510   40.7920 C.ar  400  SN1400      0.0393
      4  CD1       26.6240    4.1620   41.3260 C.ar  400  SN1400      0.1988
      5  CE1       26.7160    4.3990   42.6790 C.ar  400  SN1400      0.0840
      6  CD2       27.6540    2.0020   41.6360 C.ar  400  SN1400      0.0065
      7  CE2       27.7440    2.2420   43.0020 C.ar  400  SN1400      0.0422
      8  CZ        27.2690    3.4470   43.5130 C.ar  400  SN1400      0.1989
      9  OH1       27.3370    3.7200   44.8580 O.3   400  SN1400     -0.2865
     10  OH2       26.0660    5.1130   40.5050 O.3   400  SN1400     -0.2865
     11  C2        27.3410    1.7760   37.1560 C.2   400  SN1400      0.2343
     12  O2        26.9590    0.7370   36.6120 O.2   400  SN1400     -0.2831
@<TRIPOS>BOND
     1    12    11    2
     2    11     1    1
     3     1     2    2
     4     2     3    1
     5    10     4    1
     6     3     4   ar
     7     3     6   ar
     8     4     5   ar
     9     6     7   ar
    10     5     8   ar
    11     7     8   ar
    12     8     9    1
