@<TRIPOS>MOLECULE
1k2o_HEM_A_1.pdb
 43 50 0 0 0
SMALL
GASTEIGER

@<TRIPOS>ATOM
      1  CHA        2.9890    6.1600    2.9260 C.2   417  HEM417      0.0000
      2  CHB        1.0830    1.7120    2.7740 C.2   417  HEM417      0.0000
      3  CHC       -3.3570    3.6020    3.0450 C.2   417  HEM417      0.0000
      4  CHD       -1.4740    8.0200    2.8310 C.2   417  HEM417      0.0000
      5  C1A        2.8850    4.7790    2.8910 C.ar  417  HEM417      0.0000
      6  C2A        3.9920    3.8420    2.9780 C.ar  417  HEM417      0.0000
      7  C3A        3.4380    2.6030    2.8850 C.ar  417  HEM417      0.0000
      8  C4A        2.0050    2.7670    2.7830 C.ar  417  HEM417      0.0000
      9  CMA        4.1370    1.2530    2.8760 C.3   417  HEM417      0.0000
     10  CAA        5.4720    4.1790    3.1890 C.3   417  HEM417      0.0000
     11  CBA        6.2260    4.1080    1.8590 C.3   417  HEM417      0.0000
     12  CGA        7.7110    4.4230    1.9790 C.2   417  HEM417      0.0000
     13  O1A        8.2670    4.3490    3.0900 O.co2 417  HEM417      0.0000
     14  O2A        8.3290    4.7580    0.9440 O.co2 417  HEM417      0.0000
     15  C1B       -0.3200    1.8110    2.7790 C.2   417  HEM417      0.0000
     16  C2B       -1.2190    0.7010    2.8850 C.2   417  HEM417      0.0000
     17  C3B       -2.5000    1.2090    2.9700 C.2   417  HEM417      0.0000
     18  C4B       -2.3230    2.6630    2.9130 C.2   417  HEM417      0.0000
     19  CMB       -0.7430   -0.7570    2.9100 C.3   417  HEM417      0.0000
     20  CAB       -3.7440    0.5590    2.9840 C.3   417  HEM417      0.0000
     21  CBB       -4.0350   -0.7470    3.3510 C.3   417  HEM417      0.0000
     22  C1C       -3.2370    4.9820    3.0500 C.ar  417  HEM417      0.0000
     23  C2C       -4.3310    5.9110    3.1490 C.ar  417  HEM417      0.0000
     24  C3C       -3.8140    7.1530    2.9970 C.ar  417  HEM417      0.0000
     25  C4C       -2.3790    6.9780    2.8750 C.ar  417  HEM417      0.0000
     26  CMC       -5.7750    5.5290    3.4630 C.3   417  HEM417      0.0000
     27  CAC       -4.4860    8.3720    2.8220 C.2   417  HEM417      0.0000
     28  CBC       -5.3740    8.9090    3.7270 C.2   417  HEM417      0.0000
     29  C1D       -0.0860    7.9150    2.8240 C.2   417  HEM417      0.0000
     30  C2D        0.8210    9.0340    2.8440 C.2   417  HEM417      0.0000
     31  C3D        2.0700    8.5280    2.8980 C.2   417  HEM417      0.0000
     32  C4D        1.9230    7.0810    2.8980 C.2   417  HEM417      0.0000
     33  CMD        0.3890   10.4980    2.7350 C.3   417  HEM417      0.0000
     34  CAD        3.3790    9.3080    2.8610 C.3   417  HEM417      0.0000
     35  CBD        4.1850    9.2460    4.1520 C.3   417  HEM417      0.0000
     36  CGD        5.5570    9.8860    4.0260 C.2   417  HEM417      0.0000
     37  O1D        6.0610   10.4130    5.0320 O.co2 417  HEM417      0.0000
     38  O2D        6.1470    9.8560    2.9310 O.co2 417  HEM417      0.0000
     39  NA         1.6940    4.0950    2.7860 N.ar  417  HEM417      0.0000
     40  NB        -1.0040    3.0040    2.7840 N.2   417  HEM417      0.0000
     41  NC        -2.0640    5.6560    2.9020 N.ar  417  HEM417      0.0000
     42  ND         0.5990    6.7270    2.8480 N.2   417  HEM417      0.0000
     43 FE         -0.2000    4.8500    3.0120 Fe    417  HEM417      0.0000
@<TRIPOS>BOND
     1    14    12   ar
     2    11    12    1
     3    11    10    1
     4    12    13   ar
     5    33    30    1
     6     2    15    1
     7     2     8    2
     8    15    40    2
     9    15    16    1
    10     8    39   ar
    11     8     7   ar
    12    40    18    1
    13    40    43    1
    14    39     5   ar
    15    39    43    1
    16    27    24    1
    17    27    28    2
    18    29     4    2
    19    29    30    1
    20    29    42    1
    21     4    25    1
    22    30    31    2
    23    42    32    2
    24    42    43    1
    25    34    31    1
    26    34    35    1
    27    25    41   ar
    28    25    24   ar
    29     9     7    1
    30     7     6   ar
    31    16    19    1
    32    16    17    2
    33     5     1    2
    34     5     6   ar
    35    32    31    1
    36    32     1    1
    37    41    43    1
    38    41    22   ar
    39    18    17    1
    40    18     3    2
    41    38    36   ar
    42    17    20    1
    43     6    10    1
    44    20    21    1
    45    24    23   ar
    46     3    22    1
    47    22    23   ar
    48    23    26    1
    49    36    35    1
    50    36    37   ar
