@<TRIPOS>MOLECULE
1k2r_NRG_A_1.pdb
 15 14 0 0 0
SMALL
GASTEIGER

@<TRIPOS>ATOM
      1  N          9.5040   -1.3120   26.4870 N.3   1775  NRG1775    -0.1208
      2  CA         8.9560   -1.6220   25.1340 C.3   1775  NRG1775     0.1944
      3  CB         9.8270   -0.9730   24.0690 C.3   1775  NRG1775     0.0343
      4  CG         9.9350    0.5330   24.2180 C.3   1775  NRG1775     0.0490
      5  CD        11.2040    1.0430   23.5580 C.3   1775  NRG1775     0.2204
      6  NE        12.4130    0.3360   24.0120 N.pl3 1775  NRG1775    -0.0874
      7  CZ        13.6060    0.4580   23.4230 C.cat 1775  NRG1775     0.5245
      8  NH1       13.7530    1.2950   22.3930 N.pl3 1775  NRG1775     0.1075
      9  NH2       14.6480   -0.2510   23.8650 N.pl3 1775  NRG1775     0.1343
     10  C          8.9240   -3.1300   24.9020 C.2   1775  NRG1775     0.3819
     11  OA1        8.4870   -3.5530   23.8070 O.co2 1775  NRG1775    -0.2441
     12  OA2        9.3390   -3.8730   25.8150 O.co2 1775  NRG1775    -0.2441
     13  N1        14.8620    1.3040   21.4610 N.pl3 1775  NRG1775     0.2221
     14  O2        14.7880    1.9730   20.4570 O.2   1775  NRG1775    -0.0910
     15  O3        15.8670    0.6490   21.6780 O.2   1775  NRG1775    -0.0910
@<TRIPOS>BOND
     1    14    13    2
     2    13    15    2
     3    13     8    1
     4     8     7    1
     5     7     9    2
     6     7     6    1
     7     5     6    1
     8     5     4    1
     9    11    10   ar
    10     3     4    1
    11     3     2    1
    12    10     2    1
    13    10    12   ar
    14     2     1    1
