@<TRIPOS>MOLECULE
1k2r_HEM_A_1.pdb
 43 50 0 0 0
SMALL
GASTEIGER

@<TRIPOS>ATOM
      1 FE         15.7400    4.3090   24.5740 Fe    750  HEM750      0.0000
      2  CHA       12.9160    4.3640   26.5860 C.2   750  HEM750      0.0000
      3  CHB       16.7270    1.4380   26.1890 C.2   750  HEM750      0.0000
      4  CHC       17.6800    3.4270   21.8820 C.2   750  HEM750      0.0000
      5  CHD       14.4600    6.9590   22.7690 C.2   750  HEM750      0.0000
      6  NA        15.0020    3.1840   26.0880 N.2   750  HEM750      0.0000
      7  C1A       13.8020    3.3370   26.7970 C.2   750  HEM750      0.0000
      8  C2A       13.6010    2.3200   27.7850 C.2   750  HEM750      0.0000
      9  C3A       14.7000    1.5500   27.7260 C.2   750  HEM750      0.0000
     10  C4A       15.5540    2.0590   26.6650 C.2   750  HEM750      0.0000
     11  CMA       14.9090    0.3470   28.6630 C.3   750  HEM750      0.0000
     12  CAA       12.3480    2.0480   28.6500 C.3   750  HEM750      0.0000
     13  CBA       11.3170    1.3640   27.7650 C.3   750  HEM750      0.0000
     14  CGA        9.9550    1.2100   28.4250 C.2   750  HEM750      0.0000
     15  O1A        9.8890    1.1100   29.6690 O.co2 750  HEM750      0.0000
     16  O2A        8.9490    1.1650   27.6900 O.co2 750  HEM750      0.0000
     17  NB        17.0730    2.8700   24.2060 N.ar  750  HEM750      0.0000
     18  C1B       17.4200    1.8060   25.0320 C.ar  750  HEM750      0.0000
     19  C2B       18.4350    0.9870   24.4230 C.ar  750  HEM750      0.0000
     20  C3B       18.7360    1.5190   23.2190 C.ar  750  HEM750      0.0000
     21  C4B       17.8670    2.6890   23.0740 C.ar  750  HEM750      0.0000
     22  CMB       19.0040   -0.3250   24.9650 C.3   750  HEM750      0.0000
     23  CAB       19.6930    0.9480   22.3510 C.2   750  HEM750      0.0000
     24  CBB       20.3290    1.5350   21.2950 C.2   750  HEM750      0.0000
     25  NC        15.9970    5.0300   22.7310 N.2   750  HEM750      0.0000
     26  C1C       16.7830    4.4950   21.7130 C.2   750  HEM750      0.0000
     27  C2C       16.6900    5.2720   20.5080 C.2   750  HEM750      0.0000
     28  C3C       15.9370    6.3860   20.8070 C.2   750  HEM750      0.0000
     29  C4C       15.4630    6.1890   22.1650 C.2   750  HEM750      0.0000
     30  CMC       17.2730    4.8740   19.1550 C.3   750  HEM750      0.0000
     31  CAC       15.7020    7.5200   20.0090 C.2   750  HEM750      0.0000
     32  CBC       16.4190    7.8830   18.9100 C.2   750  HEM750      0.0000
     33  ND        14.1330    5.4710   24.7260 N.ar  750  HEM750      0.0000
     34  C1D       13.7970    6.5950   23.9510 C.ar  750  HEM750      0.0000
     35  C2D       12.5550    7.1860   24.4080 C.ar  750  HEM750      0.0000
     36  C3D       12.1520    6.4360   25.4470 C.ar  750  HEM750      0.0000
     37  C4D       13.0790    5.3610   25.6170 C.ar  750  HEM750      0.0000
     38  CMD       11.7590    8.3400   23.8010 C.3   750  HEM750      0.0000
     39  CAD       10.9410    6.6370   26.3170 C.3   750  HEM750      0.0000
     40  CBD        9.7120    6.1960   25.5510 C.3   750  HEM750      0.0000
     41  CGD        8.4740    6.2310   26.4090 C.2   750  HEM750      0.0000
     42  O1D        8.2640    7.2480   27.1000 O.co2 750  HEM750      0.0000
     43  O2D        7.7160    5.2440   26.3920 O.co2 750  HEM750      0.0000
@<TRIPOS>BOND
     1    32    31    2
     2    30    27    1
     3    31    28    1
     4    27    28    2
     5    27    26    1
     6    28    29    1
     7    24    23    2
     8    26     4    2
     9    26    25    1
    10     4    21    1
    11    29    25    2
    12    29     5    1
    13    23    20    1
    14    25     1    1
    15     5    34    2
    16    21    20   ar
    17    21    17   ar
    18    20    19   ar
    19    38    35    1
    20    34    35   ar
    21    34    33   ar
    22    17     1    1
    23    17    18   ar
    24    35    36   ar
    25    19    22    1
    26    19    18   ar
    27     1    33    1
    28     1     6    1
    29    33    37   ar
    30    18     3    1
    31    36    37   ar
    32    36    39    1
    33    40    39    1
    34    40    41    1
    35    37     2    2
    36     6    10    1
    37     6     7    2
    38     3    10    2
    39    43    41   ar
    40    41    42   ar
    41     2     7    1
    42    10     9    1
    43     7     8    1
    44    16    14   ar
    45     9     8    2
    46     9    11    1
    47    13    14    1
    48    13    12    1
    49     8    12    1
    50    14    15   ar
