@<TRIPOS>MOLECULE
1k2r_H4B_A_1.pdb
 17 18 0 0 0
SMALL
GASTEIGER

@<TRIPOS>ATOM
      1  N1         9.9410    2.5360   34.0010 N.2   1760  H4B1760    -0.2683
      2  C2        10.0800    2.1630   32.7200 C.1   1760  H4B1760     0.2608
      3  N2        11.2610    2.0400   32.1480 N.pl3 1760  H4B1760    -0.0220
      4  N3         8.9590    1.9130   32.0070 N.2   1760  H4B1760    -0.2474
      5  C4         7.6280    2.0160   32.5140 C.1   1760  H4B1760     0.2441
      6  O4         6.6660    1.7600   31.7660 O.2   1760  H4B1760    -0.2063
      7  C4A        7.5730    2.4180   33.8650 C.2   1760  H4B1760     0.2463
      8  C8A        8.7140    2.6750   34.6100 C.1   1760  H4B1760     0.1270
      9  N5         6.2450    2.5610   34.4700 N.2   1760  H4B1760    -0.2460
     10  N8         8.6690    3.0540   35.8920 N.2   1760  H4B1760    -0.2054
     11  C6         6.2270    3.5510   35.6410 C.3   1760  H4B1760     0.1627
     12  C7         7.3880    3.2180   36.5810 C.3   1760  H4B1760     0.1643
     13  C9         4.8390    3.4330   36.2840 C.3   1760  H4B1760     0.2063
     14  O9         4.5250    2.1180   36.7190 O.3   1760  H4B1760    -0.2183
     15  C10        4.6560    4.3880   37.4870 C.3   1760  H4B1760     0.1842
     16  C11        3.2420    4.4140   37.9580 C.3   1760  H4B1760     0.0383
     17  O10        5.0150    5.6760   36.9820 O.3   1760  H4B1760    -0.2204
@<TRIPOS>BOND
     1     6     5    2
     2     4     5    2
     3     4     2    2
     4     3     2    1
     5     5     7    1
     6     2     1    2
     7     7     9    2
     8     7     8    1
     9     1     8    2
    10     9    11    1
    11     8    10    2
    12    11    13    1
    13    11    12    1
    14    10    12    1
    15    13    14    1
    16    13    15    1
    17    17    15    1
    18    15    16    1
