@<TRIPOS>MOLECULE
1k2s_ARV_A_1.pdb
 15 14 0 0 0
SMALL
GASTEIGER

@<TRIPOS>ATOM
      1  N          9.3120   -1.3760   26.4540 N.3   1780  ARV1780    -0.1208
      2  CA         8.8770   -1.6640   25.1000 C.3   1780  ARV1780     0.1944
      3  C          8.7870   -3.1500   24.8520 C.2   1780  ARV1780     0.3819
      4  O          8.4030   -3.5570   23.6690 O.co2 1780  ARV1780    -0.2441
      5  CB         9.8690   -1.0180   24.1230 C.3   1780  ARV1780     0.0343
      6  CG        10.0520    0.4910   24.3030 C.3   1780  ARV1780     0.0490
      7  CD        11.3400    0.9700   23.6590 C.3   1780  ARV1780     0.2204
      8  NE        12.4660    0.0480   24.0360 N.pl3 1780  ARV1780    -0.0894
      9  CZ        13.7840    0.0630   23.6820 C.cat 1780  ARV1780     0.4954
     10  NH1       14.4840   -0.8850   24.1690 N.pl3 1780  ARV1780     0.1317
     11  NH2       14.4490    0.9070   22.9040 N.pl3 1780  ARV1780    -0.0844
     12  OXT        9.0510   -3.9520   25.6730 O.co2 1780  ARV1780    -0.2441
     13  C1        13.8230    2.0700   22.2360 C.3   1780  ARV1780     0.2466
     14  C2        13.9410    1.9200   20.7150 C.2   1780  ARV1780     0.0202
     15  C3        12.8930    2.1910   19.9180 C.2   1780  ARV1780    -0.0012
@<TRIPOS>BOND
     1    15    14    2
     2    14    13    1
     3    13    11    1
     4    11     9    1
     5     7     8    1
     6     7     6    1
     7     4     3   ar
     8     9     8    1
     9     9    10    2
    10     5     6    1
    11     5     2    1
    12     3     2    1
    13     3    12   ar
    14     2     1    1
