@<TRIPOS>MOLECULE
1k2s_HEM_A_1.pdb
 43 50 0 0 0
SMALL
GASTEIGER

@<TRIPOS>ATOM
      1 FE         15.7750    4.3840   24.6240 Fe    750  HEM750      0.0000
      2  CHA       12.9300    4.5310   26.4910 C.2   750  HEM750      0.0000
      3  CHB       16.6710    1.4990   26.2360 C.2   750  HEM750      0.0000
      4  CHC       17.6400    3.4370   21.9070 C.2   750  HEM750      0.0000
      5  CHD       14.5580    7.0260   22.7610 C.2   750  HEM750      0.0000
      6  NA        14.9990    3.2880   26.0730 N.2   750  HEM750      0.0000
      7  C1A       13.7670    3.4620   26.7050 C.2   750  HEM750      0.0000
      8  C2A       13.5310    2.4630   27.7160 C.2   750  HEM750      0.0000
      9  C3A       14.6420    1.7030   27.7270 C.2   750  HEM750      0.0000
     10  C4A       15.5340    2.1790   26.6900 C.2   750  HEM750      0.0000
     11  CMA       14.8580    0.5320   28.6550 C.3   750  HEM750      0.0000
     12  CAA       12.2740    2.2420   28.5490 C.3   750  HEM750      0.0000
     13  CBA       11.3000    1.4370   27.7220 C.3   750  HEM750      0.0000
     14  CGA        9.9790    1.2290   28.4270 C.2   750  HEM750      0.0000
     15  O1A       10.0110    0.9360   29.6410 O.co2 750  HEM750      0.0000
     16  O2A        8.9210    1.3450   27.7660 O.co2 750  HEM750      0.0000
     17  NB        17.0310    2.8890   24.2480 N.ar  750  HEM750      0.0000
     18  C1B       17.3600    1.8240   25.0700 C.ar  750  HEM750      0.0000
     19  C2B       18.3490    0.9680   24.4430 C.ar  750  HEM750      0.0000
     20  C3B       18.6170    1.4670   23.2060 C.ar  750  HEM750      0.0000
     21  C4B       17.7790    2.6620   23.0820 C.ar  750  HEM750      0.0000
     22  CMB       19.0430   -0.2460   25.0610 C.3   750  HEM750      0.0000
     23  CAB       19.5130    0.8890   22.2870 C.2   750  HEM750      0.0000
     24  CBB       20.5620    1.5560   21.7350 C.2   750  HEM750      0.0000
     25  NC        16.0680    5.1280   22.7860 N.2   750  HEM750      0.0000
     26  C1C       16.8180    4.5760   21.7690 C.2   750  HEM750      0.0000
     27  C2C       16.7860    5.4150   20.6040 C.2   750  HEM750      0.0000
     28  C3C       16.0900    6.5390   20.9230 C.2   750  HEM750      0.0000
     29  C4C       15.6010    6.3080   22.2440 C.2   750  HEM750      0.0000
     30  CMC       17.4610    5.1030   19.2910 C.3   750  HEM750      0.0000
     31  CAC       15.9170    7.7210   20.2110 C.2   750  HEM750      0.0000
     32  CBC       16.3790    8.0020   18.9650 C.2   750  HEM750      0.0000
     33  ND        14.1800    5.5850   24.7240 N.ar  750  HEM750      0.0000
     34  C1D       13.8450    6.6690   23.8930 C.ar  750  HEM750      0.0000
     35  C2D       12.6430    7.3310   24.3160 C.ar  750  HEM750      0.0000
     36  C3D       12.2640    6.6560   25.3890 C.ar  750  HEM750      0.0000
     37  C4D       13.1570    5.5490   25.6080 C.ar  750  HEM750      0.0000
     38  CMD       11.8600    8.4350   23.6240 C.3   750  HEM750      0.0000
     39  CAD       11.0560    6.9720   26.2210 C.3   750  HEM750      0.0000
     40  CBD        9.7910    6.3960   25.6220 C.3   750  HEM750      0.0000
     41  CGD        8.6050    6.5760   26.5390 C.2   750  HEM750      0.0000
     42  O1D        8.5310    7.6420   27.1920 O.co2 750  HEM750      0.0000
     43  O2D        7.7500    5.6610   26.5970 O.co2 750  HEM750      0.0000
@<TRIPOS>BOND
     1    32    31    2
     2    30    27    1
     3    31    28    1
     4    27    28    2
     5    27    26    1
     6    28    29    1
     7    24    23    2
     8    26     4    2
     9    26    25    1
    10     4    21    1
    11    29     5    1
    12    29    25    2
    13    23    20    1
    14     5    34    2
    15    25     1    1
    16    21    20   ar
    17    21    17   ar
    18    20    19   ar
    19    38    35    1
    20    34    35   ar
    21    34    33   ar
    22    17     1    1
    23    17    18   ar
    24    35    36   ar
    25    19    22    1
    26    19    18   ar
    27     1    33    1
    28     1     6    1
    29    33    37   ar
    30    18     3    1
    31    36    37   ar
    32    36    39    1
    33    37     2    2
    34    40    39    1
    35    40    41    1
    36     6    10    1
    37     6     7    2
    38     3    10    2
    39     2     7    1
    40    41    43   ar
    41    41    42   ar
    42    10     9    1
    43     7     8    1
    44     8     9    2
    45     8    12    1
    46    13    14    1
    47    13    12    1
    48     9    11    1
    49    16    14   ar
    50    14    15   ar
