@<TRIPOS>MOLECULE
1k2s_H4B_A_1.pdb
 17 18 0 0 0
SMALL
GASTEIGER

@<TRIPOS>ATOM
      1  N1         9.8300    2.5190   33.9680 N.2   1760  H4B1760    -0.2683
      2  C2         9.9830    2.0610   32.7130 C.1   1760  H4B1760     0.2608
      3  N2        11.1660    1.9150   32.1600 N.pl3 1760  H4B1760    -0.0220
      4  N3         8.8720    1.7500   32.0100 N.2   1760  H4B1760    -0.2474
      5  C4         7.5380    1.8630   32.4950 C.1   1760  H4B1760     0.2441
      6  O4         6.6040    1.5420   31.7520 O.2   1760  H4B1760    -0.2063
      7  C4A        7.4590    2.3620   33.8240 C.2   1760  H4B1760     0.2463
      8  C8A        8.5850    2.6770   34.5590 C.1   1760  H4B1760     0.1270
      9  N5         6.1280    2.5260   34.4290 N.2   1760  H4B1760    -0.2460
     10  N8         8.5220    3.1310   35.8100 N.2   1760  H4B1760    -0.2054
     11  C6         6.0900    3.5550   35.5770 C.3   1760  H4B1760     0.1627
     12  C7         7.2580    3.3180   36.5080 C.3   1760  H4B1760     0.1643
     13  C9         4.7150    3.4110   36.2360 C.3   1760  H4B1760     0.2063
     14  O9         4.4550    2.0940   36.7130 O.3   1760  H4B1760    -0.2183
     15  C10        4.4960    4.3830   37.4260 C.3   1760  H4B1760     0.1842
     16  C11        3.0850    4.3550   37.8800 C.3   1760  H4B1760     0.0383
     17  O10        4.8090    5.6830   36.9210 O.3   1760  H4B1760    -0.2204
@<TRIPOS>BOND
     1     6     5    2
     2     4     5    2
     3     4     2    2
     4     3     2    1
     5     5     7    1
     6     2     1    2
     7     7     9    2
     8     7     8    1
     9     1     8    2
    10     9    11    1
    11     8    10    2
    12    11    13    1
    13    11    12    1
    14    10    12    1
    15    13    14    1
    16    13    15    1
    17    17    15    1
    18    15    16    1
