@<TRIPOS>MOLECULE
1k2t_H4B_A_1.pdb
 17 18 0 0 0
SMALL
GASTEIGER

@<TRIPOS>ATOM
      1  N1         9.8850    2.6000   34.0840 N.2   1760  H4B1760    -0.2683
      2  C2        10.0230    2.1830   32.8140 C.1   1760  H4B1760     0.2608
      3  N2        11.2020    2.0300   32.2530 N.pl3 1760  H4B1760    -0.0220
      4  N3         8.9040    1.9140   32.1070 N.2   1760  H4B1760    -0.2474
      5  C4         7.5830    2.0400   32.5970 C.1   1760  H4B1760     0.2441
      6  O4         6.6340    1.7550   31.8410 O.2   1760  H4B1760    -0.2063
      7  C4A        7.5200    2.4910   33.9450 C.2   1760  H4B1760     0.2463
      8  C8A        8.6560    2.7710   34.6860 C.1   1760  H4B1760     0.1270
      9  N5         6.1950    2.6660   34.5450 N.2   1760  H4B1760    -0.2460
     10  N8         8.6160    3.1960   35.9550 N.2   1760  H4B1760    -0.2054
     11  C6         6.1790    3.6890   35.7020 C.3   1760  H4B1760     0.1627
     12  C7         7.3470    3.4010   36.6480 C.3   1760  H4B1760     0.1643
     13  C9         4.7870    3.5720   36.3510 C.3   1760  H4B1760     0.2063
     14  O9         4.4890    2.2580   36.8000 O.3   1760  H4B1760    -0.2183
     15  C10        4.6010    4.5410   37.5420 C.3   1760  H4B1760     0.1842
     16  C11        3.1950    4.5600   38.0200 C.3   1760  H4B1760     0.0383
     17  O10        4.9450    5.8280   37.0220 O.3   1760  H4B1760    -0.2204
@<TRIPOS>BOND
     1     6     5    2
     2     4     5    2
     3     4     2    2
     4     3     2    1
     5     5     7    1
     6     2     1    2
     7     7     9    2
     8     7     8    1
     9     1     8    2
    10     9    11    1
    11     8    10    2
    12    11    13    1
    13    11    12    1
    14    10    12    1
    15    13    14    1
    16    13    15    1
    17    17    15    1
    18    15    16    1
