@<TRIPOS>MOLECULE
1k2t_HEM_A_1.pdb
 43 50 0 0 0
SMALL
GASTEIGER

@<TRIPOS>ATOM
      1 FE         15.6650    4.3920   24.8390 Fe    750  HEM750      0.0000
      2  CHA       13.0020    4.6170   27.0800 C.2   750  HEM750      0.0000
      3  CHB       16.5850    1.4590   26.3630 C.2   750  HEM750      0.0000
      4  CHC       17.5550    3.4770   22.1150 C.2   750  HEM750      0.0000
      5  CHD       14.3320    6.9800   22.9880 C.2   750  HEM750      0.0000
      6  NA        14.9330    3.2710   26.3580 N.2   750  HEM750      0.0000
      7  C1A       13.7820    3.4660   27.1360 C.2   750  HEM750      0.0000
      8  C2A       13.5520    2.3510   28.0160 C.2   750  HEM750      0.0000
      9  C3A       14.6140    1.5390   27.9030 C.2   750  HEM750      0.0000
     10  C4A       15.4600    2.0940   26.8740 C.2   750  HEM750      0.0000
     11  CMA       14.8180    0.2710   28.7400 C.3   750  HEM750      0.0000
     12  CAA       12.2910    2.0360   28.8250 C.3   750  HEM750      0.0000
     13  CBA       11.2350    1.5360   27.8540 C.3   750  HEM750      0.0000
     14  CGA        9.8870    1.3350   28.5100 C.2   750  HEM750      0.0000
     15  O1A        9.8650    1.0340   29.7170 O.co2 750  HEM750      0.0000
     16  O2A        8.8550    1.4600   27.8150 O.co2 750  HEM750      0.0000
     17  NB        16.9790    2.9350   24.4500 N.ar  750  HEM750      0.0000
     18  C1B       17.2760    1.8290   25.2300 C.ar  750  HEM750      0.0000
     19  C2B       18.2670    0.9940   24.6070 C.ar  750  HEM750      0.0000
     20  C3B       18.5690    1.5460   23.4030 C.ar  750  HEM750      0.0000
     21  C4B       17.7510    2.7460   23.3060 C.ar  750  HEM750      0.0000
     22  CMB       18.9320   -0.2630   25.1930 C.3   750  HEM750      0.0000
     23  CAB       19.5290    1.0010   22.5220 C.2   750  HEM750      0.0000
     24  CBB       20.2940    1.6720   21.6170 C.2   750  HEM750      0.0000
     25  NC        15.8980    5.0810   22.9620 N.2   750  HEM750      0.0000
     26  C1C       16.6770    4.5390   21.9410 C.2   750  HEM750      0.0000
     27  C2C       16.6570    5.3370   20.7410 C.2   750  HEM750      0.0000
     28  C3C       15.8520    6.4300   21.0360 C.2   750  HEM750      0.0000
     29  C4C       15.3690    6.2430   22.3950 C.2   750  HEM750      0.0000
     30  CMC       17.4360    5.0100   19.4440 C.3   750  HEM750      0.0000
     31  CAC       15.4930    7.5010   20.2090 C.2   750  HEM750      0.0000
     32  CBC       16.2180    7.9450   19.1570 C.2   750  HEM750      0.0000
     33  ND        14.0810    5.5780   25.0420 N.ar  750  HEM750      0.0000
     34  C1D       13.6830    6.6330   24.1930 C.ar  750  HEM750      0.0000
     35  C2D       12.5220    7.3170   24.7190 C.ar  750  HEM750      0.0000
     36  C3D       12.2270    6.6700   25.8640 C.ar  750  HEM750      0.0000
     37  C4D       13.1650    5.6110   26.0790 C.ar  750  HEM750      0.0000
     38  CMD       11.8080    8.5670   24.1840 C.3   750  HEM750      0.0000
     39  CAD       11.0410    6.9260   26.7540 C.3   750  HEM750      0.0000
     40  CBD        9.7530    6.5670   26.0430 C.3   750  HEM750      0.0000
     41  CGD        8.5520    6.8040   26.9080 C.2   750  HEM750      0.0000
     42  O1D        8.5120    7.8530   27.5750 O.co2 750  HEM750      0.0000
     43  O2D        7.6480    5.9510   26.9160 O.co2 750  HEM750      0.0000
@<TRIPOS>BOND
     1    32    31    2
     2    30    27    1
     3    31    28    1
     4    27    28    2
     5    27    26    1
     6    28    29    1
     7    24    23    2
     8    26     4    2
     9    26    25    1
    10     4    21    1
    11    29    25    2
    12    29     5    1
    13    23    20    1
    14    25     1    1
    15     5    34    2
    16    21    20   ar
    17    21    17   ar
    18    20    19   ar
    19    38    35    1
    20    34    35   ar
    21    34    33   ar
    22    17     1    1
    23    17    18   ar
    24    19    22    1
    25    19    18   ar
    26    35    36   ar
    27     1    33    1
    28     1     6    1
    29    33    37   ar
    30    18     3    1
    31    36    37   ar
    32    36    39    1
    33    40    39    1
    34    40    41    1
    35    37     2    2
    36     6    10    1
    37     6     7    2
    38     3    10    2
    39    10     9    1
    40    41    43   ar
    41    41    42   ar
    42     2     7    1
    43     7     8    1
    44    16    14   ar
    45    13    14    1
    46    13    12    1
    47     9     8    2
    48     9    11    1
    49     8    12    1
    50    14    15   ar
