@<TRIPOS>MOLECULE
1k2t_PTU_A_1.pdb
 12 12 0 0 0
SMALL
GASTEIGER

@<TRIPOS>ATOM
      1  N1        14.9270   -0.7740   24.0860 N.2   1810  PTU1810    -0.1227
      2  C         14.1020    0.1540   23.6500 C.2   1810  PTU1810     0.2002
      3  S         14.6560    1.3200   22.3820 S.3   1810  PTU1810    -0.0766
      4  N2        12.8740    0.1830   24.1990 N.pl3 1810  PTU1810    -0.1874
      5  C1        11.8390    1.0930   24.2170 C.ar  1810  PTU1810     0.0726
      6  C2        10.5150    0.5780   24.2430 C.ar  1810  PTU1810     0.0166
      7  C3         9.3890    1.4700   24.2590 C.ar  1810  PTU1810     0.0013
      8  C4         9.5820    2.8780   24.2510 C.ar  1810  PTU1810     0.0001
      9  C5        10.8900    3.3970   24.2220 C.ar  1810  PTU1810     0.0013
     10  C6        12.0070    2.5310   24.2070 C.ar  1810  PTU1810     0.0166
     11  C1'       13.4450    1.4710   21.0450 C.3   1810  PTU1810     0.0650
     12  C2'       13.5100    2.8760   20.4440 C.3   1810  PTU1810     0.0130
@<TRIPOS>BOND
     1    12    11    1
     2    11     3    1
     3     3     2    1
     4     2     1    2
     5     2     4    1
     6     4     5    1
     7    10     5   ar
     8    10     9   ar
     9     5     6   ar
    10     9     8   ar
    11     6     7   ar
    12     8     7   ar
