@<TRIPOS>MOLECULE
1k2u_HEM_A_1.pdb
 43 50 0 0 0
SMALL
GASTEIGER

@<TRIPOS>ATOM
      1 FE         15.7530    4.3560   24.7180 Fe    750  HEM750      0.0000
      2  CHA       13.0460    4.6350   26.8870 C.2   750  HEM750      0.0000
      3  CHB       16.6370    1.4410   26.2950 C.2   750  HEM750      0.0000
      4  CHC       17.6680    3.3650   22.0100 C.2   750  HEM750      0.0000
      5  CHD       14.4720    6.9050   22.8340 C.2   750  HEM750      0.0000
      6  NA        14.9970    3.2640   26.2160 N.2   750  HEM750      0.0000
      7  C1A       13.8330    3.4910   26.9910 C.2   750  HEM750      0.0000
      8  C2A       13.5900    2.4330   27.9350 C.2   750  HEM750      0.0000
      9  C3A       14.6520    1.6360   27.8440 C.2   750  HEM750      0.0000
     10  C4A       15.4970    2.1060   26.7660 C.2   750  HEM750      0.0000
     11  CMA       14.8890    0.4320   28.7580 C.3   750  HEM750      0.0000
     12  CAA       12.3190    2.1350   28.7480 C.3   750  HEM750      0.0000
     13  CBA       11.2750    1.5220   27.8290 C.3   750  HEM750      0.0000
     14  CGA        9.9440    1.2800   28.5140 C.2   750  HEM750      0.0000
     15  O1A        9.9430    1.0250   29.7300 O.co2 750  HEM750      0.0000
     16  O2A        8.8970    1.3260   27.8320 O.co2 750  HEM750      0.0000
     17  NB        17.0370    2.8550   24.3270 N.ar  750  HEM750      0.0000
     18  C1B       17.3590    1.7910   25.1560 C.ar  750  HEM750      0.0000
     19  C2B       18.3960    0.9580   24.5800 C.ar  750  HEM750      0.0000
     20  C3B       18.7220    1.4930   23.3860 C.ar  750  HEM750      0.0000
     21  C4B       17.8330    2.6400   23.2030 C.ar  750  HEM750      0.0000
     22  CMB       18.9640   -0.3450   25.1620 C.3   750  HEM750      0.0000
     23  CAB       19.8230    1.0260   22.6250 C.2   750  HEM750      0.0000
     24  CBB       20.2990    1.4820   21.4220 C.2   750  HEM750      0.0000
     25  NC        16.0300    5.0000   22.8480 N.2   750  HEM750      0.0000
     26  C1C       16.8150    4.4480   21.8290 C.2   750  HEM750      0.0000
     27  C2C       16.7870    5.2390   20.6170 C.2   750  HEM750      0.0000
     28  C3C       16.0040    6.3460   20.9200 C.2   750  HEM750      0.0000
     29  C4C       15.5140    6.1540   22.2670 C.2   750  HEM750      0.0000
     30  CMC       17.5330    4.9150   19.3000 C.3   750  HEM750      0.0000
     31  CAC       15.7050    7.4780   20.1360 C.2   750  HEM750      0.0000
     32  CBC       16.2320    7.8010   18.9270 C.2   750  HEM750      0.0000
     33  ND        14.1810    5.5650   24.9030 N.ar  750  HEM750      0.0000
     34  C1D       13.8280    6.6140   24.0550 C.ar  750  HEM750      0.0000
     35  C2D       12.7150    7.3600   24.5770 C.ar  750  HEM750      0.0000
     36  C3D       12.3610    6.7380   25.7160 C.ar  750  HEM750      0.0000
     37  C4D       13.2250    5.6040   25.8900 C.ar  750  HEM750      0.0000
     38  CMD       12.1430    8.6740   24.0470 C.3   750  HEM750      0.0000
     39  CAD       11.3350    7.2320   26.7270 C.3   750  HEM750      0.0000
     40  CBD        9.9640    7.4190   26.1070 C.3   750  HEM750      0.0000
     41  CGD        8.9760    8.0270   27.0710 C.2   750  HEM750      0.0000
     42  O1D        9.1840    9.1800   27.5180 O.co2 750  HEM750      0.0000
     43  O2D        7.9870    7.3390   27.3760 O.co2 750  HEM750      0.0000
@<TRIPOS>BOND
     1    32    31    2
     2    30    27    1
     3    31    28    1
     4    27    28    2
     5    27    26    1
     6    28    29    1
     7    24    23    2
     8    26     4    2
     9    26    25    1
    10     4    21    1
    11    29     5    1
    12    29    25    2
    13    23    20    1
    14     5    34    2
    15    25     1    1
    16    21    20   ar
    17    21    17   ar
    18    20    19   ar
    19    38    35    1
    20    34    35   ar
    21    34    33   ar
    22    17     1    1
    23    17    18   ar
    24    35    36   ar
    25    19    18   ar
    26    19    22    1
    27     1    33    1
    28     1     6    1
    29    33    37   ar
    30    18     3    1
    31    36    37   ar
    32    36    39    1
    33    37     2    2
    34    40    39    1
    35    40    41    1
    36     6    10    1
    37     6     7    2
    38     3    10    2
    39    10     9    1
    40     2     7    1
    41     7     8    1
    42    41    43   ar
    43    41    42   ar
    44    13    14    1
    45    13    12    1
    46    16    14   ar
    47     9     8    2
    48     9    11    1
    49     8    12    1
    50    14    15   ar
