@<TRIPOS>MOLECULE
1k2u_TFM_A_1.pdb
 16 16 0 0 0
SMALL
GASTEIGER

@<TRIPOS>ATOM
      1  N1        14.9400   -0.6860   24.2110 N.2   1820  TFM1820    -0.1227
      2  C         14.0850    0.0940   23.5960 C.2   1820  TFM1820     0.2002
      3  S         14.6630    1.3410   22.4450 S.3   1820  TFM1820    -0.0766
      4  N2        12.7900   -0.0560   23.8050 N.pl3 1820  TFM1820    -0.1874
      5  C1        11.7470    0.9000   24.0390 C.ar  1820  TFM1820     0.0726
      6  C2        11.9750    2.3100   24.0940 C.ar  1820  TFM1820     0.0165
      7  C3        10.9020    3.2040   24.3240 C.ar  1820  TFM1820     0.0052
      8  C4         9.5820    2.7030   24.5040 C.ar  1820  TFM1820     0.0715
      9  C5         9.3460    1.2870   24.4480 C.ar  1820  TFM1820     0.0052
     10  C6        10.4270    0.3920   24.2170 C.ar  1820  TFM1820     0.0165
     11  C1'       13.6480    1.3540   20.9550 C.3   1820  TFM1820     0.0650
     12  C2'       13.3180    2.7970   20.5530 C.3   1820  TFM1820     0.0130
     13  CM         8.4210    3.6910   24.7580 C.3   1820  TFM1820     0.4186
     14  F1         7.2150    3.0950   24.4430 F     1820  TFM1820    -0.1659
     15  F2         8.4150    4.0520   26.0810 F     1820  TFM1820    -0.1659
     16  F3         8.6000    4.8160   23.9850 F     1820  TFM1820    -0.1659
@<TRIPOS>BOND
     1    12    11    1
     2    11     3    1
     3     3     2    1
     4     2     4    1
     5     2     1    2
     6     4     5    1
     7    16    13    1
     8     5     6   ar
     9     5    10   ar
    10     6     7   ar
    11    10     9   ar
    12     7     8   ar
    13    14    13    1
    14     9     8   ar
    15     8    13    1
    16    13    15    1
