@<TRIPOS>MOLECULE
1k2u_H4B_A_1.pdb
 17 18 0 0 0
SMALL
GASTEIGER

@<TRIPOS>ATOM
      1  N1         9.9020    2.6390   33.9970 N.2   1760  H4B1760    -0.2683
      2  C2        10.0510    2.2360   32.7170 C.1   1760  H4B1760     0.2608
      3  N2        11.2400    2.0930   32.1580 N.pl3 1760  H4B1760    -0.0220
      4  N3         8.9290    1.9780   31.9980 N.2   1760  H4B1760    -0.2474
      5  C4         7.5990    2.0990   32.4950 C.1   1760  H4B1760     0.2441
      6  O4         6.6380    1.8330   31.7450 O.2   1760  H4B1760    -0.2063
      7  C4A        7.5350    2.5330   33.8400 C.2   1760  H4B1760     0.2463
      8  C8A        8.6660    2.7990   34.5910 C.1   1760  H4B1760     0.1270
      9  N5         6.2010    2.6930   34.4290 N.2   1760  H4B1760    -0.2460
     10  N8         8.6120    3.2030   35.8650 N.2   1760  H4B1760    -0.2054
     11  C6         6.1700    3.6840   35.6000 C.3   1760  H4B1760     0.1627
     12  C7         7.3300    3.3850   36.5470 C.3   1760  H4B1760     0.1643
     13  C9         4.7760    3.5540   36.2320 C.3   1760  H4B1760     0.2063
     14  O9         4.4720    2.2370   36.6750 O.3   1760  H4B1760    -0.2183
     15  C10        4.5700    4.4990   37.4270 C.3   1760  H4B1760     0.1842
     16  C11        3.1520    4.5030   37.8780 C.3   1760  H4B1760     0.0383
     17  O10        4.9190    5.7880   36.9250 O.3   1760  H4B1760    -0.2204
@<TRIPOS>BOND
     1     6     5    2
     2     4     5    2
     3     4     2    2
     4     3     2    1
     5     5     7    1
     6     2     1    2
     7     7     9    2
     8     7     8    1
     9     1     8    2
    10     9    11    1
    11     8    10    2
    12    11    13    1
    13    11    12    1
    14    10    12    1
    15    13    14    1
    16    13    15    1
    17    17    15    1
    18    15    16    1
