@<TRIPOS>MOLECULE
1k2v_DEF_N_1.pdb
 35 39 0 0 0
SMALL
GASTEIGER

@<TRIPOS>ATOM
      1 FE         24.8950   -7.1950  -29.6650 Fe      1  DEF1        0.0000
      2  O11       24.9780   -5.2650  -30.0300 O.3     1  DEF1        0.0000
      3  O12       24.4400   -6.5410  -27.8780 O.3     1  DEF1        0.0000
      4  O21       23.0230   -7.7500  -29.8750 O.3     1  DEF1        0.0000
      5  O22       24.8780   -7.2720  -31.6130 O.2     1  DEF1        0.0000
      6  O31       26.7340   -6.9720  -30.2790 O.3     1  DEF1        0.0000
      7  O32       25.5220   -9.0530  -29.2860 O.3     1  DEF1        0.0000
      8  N11       24.6820   -4.5800  -28.8940 N.4     1  DEF1        0.0000
      9  C11       24.4020   -5.2860  -27.7960 C.3     1  DEF1        0.0000
     10  C12       24.0290   -4.6080  -26.4230 C.3     1  DEF1        0.0000
     11  C13       22.5590   -4.0590  -26.3770 C.3     1  DEF1        0.0000
     12  C14       21.4560   -5.1600  -26.3910 C.1     1  DEF1        0.0000
     13  O13       21.4410   -6.0510  -25.4830 O.2     1  DEF1        0.0000
     14  N12       20.4960   -5.1380  -27.3900 N.2     1  DEF1        0.0000
     15  C15       19.5600   -6.1420  -27.2930 C.3     1  DEF1        0.0000
     16  C16       19.9880   -7.3670  -28.1550 C.3     1  DEF1        0.0000
     17  C18       20.4430   -8.3620  -30.4260 C.3     1  DEF1        0.0000
     18  C17       20.0000   -7.0800  -29.6760 C.3     1  DEF1        0.0000
     19  C19       21.4250   -8.0490  -31.5830 C.3     1  DEF1        0.0000
     20  N21       22.7050   -7.7460  -31.1710 N.4     1  DEF1        0.0000
     21  C21       23.6930   -7.4970  -32.0460 C.2     1  DEF1        0.0000
     22  C22       23.3280   -7.5600  -33.5900 C.2     1  DEF1        0.0000
     23  C23       24.5260   -7.2960  -34.5910 C.3     1  DEF1        0.0000
     24  C24       25.4240   -6.0690  -34.2480 C.1     1  DEF1        0.0000
     25  O23       24.9020   -4.9770  -33.9540 O.2     1  DEF1        0.0000
     26  N22       26.7890   -6.2240  -34.2790 N.2     1  DEF1        0.0000
     27  C25       27.5330   -5.1140  -33.9580 C.3     1  DEF1        0.0000
     28  C26       28.9040   -5.5720  -33.3510 C.3     1  DEF1        0.0000
     29  C27       28.6690   -6.8770  -32.5510 C.3     1  DEF1        0.0000
     30  C28       29.2310   -6.8650  -31.1150 C.3     1  DEF1        0.0000
     31  C29       28.8010   -8.2000  -30.4200 C.3     1  DEF1        0.0000
     32  N31       27.4460   -8.1340  -30.0740 N.4     1  DEF1        0.0000
     33  C31       26.7700   -9.1850  -29.5580 C.3     1  DEF1        0.0000
     34  C32       27.5220  -10.5310  -29.3250 C.3     1  DEF1        0.0000
     35  C39       24.6810   -3.2170  -28.9060 C.3     1  DEF1        0.0000
@<TRIPOS>BOND
     1    23    24    1
     2    23    22    1
     3    26    24    2
     4    26    27    1
     5    24    25    2
     6    27    28    1
     7    22    21    2
     8    28    29    1
     9    29    30    1
    10    21     5    1
    11    21    20    1
    12     5     1    1
    13    19    20    1
    14    19    17    1
    15    20     4    1
    16    30    31    1
    17    17    18    1
    18    31    32    1
    19     6    32    1
    20     6     1    1
    21    32    33    1
    22     2     1    1
    23     2     8    1
    24     4     1    1
    25    18    16    1
    26     1     7    1
    27     1     3    1
    28    33    34    1
    29    33     7    1
    30    35     8    1
    31     8     9    1
    32    16    15    1
    33     3     9    1
    34     9    10    1
    35    14    15    1
    36    14    12    2
    37    10    11    1
    38    12    11    1
    39    12    13    2
