@<TRIPOS>MOLECULE
1k3a_ACP_A_1.pdb
 31 33 0 0 0
SMALL
GASTEIGER

@<TRIPOS>ATOM
      1  PG        28.1870   20.3750   47.9930 P.3   300  ACP300      0.1295
      2  O1G       27.2630   21.0590   48.9360 O.3   300  ACP300     -0.3567
      3  O2G       29.6140   20.7040   48.2270 O.3   300  ACP300     -0.3567
      4  O3G       27.7590   20.3680   46.5750 O.2   300  ACP300     -0.4595
      5  PB        28.9890   17.5390   47.5920 P.3   300  ACP300      0.3815
      6  O1B       29.3140   17.9930   46.2160 O.2   300  ACP300     -0.2547
      7  O2B       30.1060   17.0950   48.4650 O.3   300  ACP300     -0.1391
      8  C3B       28.1210   18.7610   48.3860 C.3   300  ACP300      0.1768
      9  PA        26.8360   16.0290   48.3830 P.3   300  ACP300      0.2209
     10  O1A       27.1210   16.4210   49.7820 O.3   300  ACP300     -0.4371
     11  O2A       25.5910   16.5000   47.7310 O.2   300  ACP300     -0.5170
     12  O3A       28.0290   16.3570   47.4920 O.3   300  ACP300     -0.2483
     13  O5'       26.8340   14.4260   48.3280 O.3   300  ACP300     -0.3111
     14  C5'       27.9920   13.5720   48.2830 C.3   300  ACP300      0.1813
     15  C4'       27.6030   12.3160   47.5390 C.3   300  ACP300      0.1821
     16  O4'       26.4730   11.7050   48.2130 O.3   300  ACP300     -0.3135
     17  C3'       27.1300   12.5370   46.1100 C.3   300  ACP300      0.2184
     18  O3'       28.2310   12.5270   45.2080 O.3   300  ACP300     -0.2174
     19  C2'       26.2090   11.3470   45.8740 C.3   300  ACP300      0.2570
     20  O2'       26.9100   10.1720   45.5150 O.3   300  ACP300     -0.2130
     21  C1'       25.5720   11.1740   47.2550 C.3   300  ACP300      0.3186
     22  N9        24.2760   11.8390   47.4150 N.pl3 300  ACP300     -0.1439
     23  C8        24.0150   13.0740   47.9620 C.3   300  ACP300      0.3377
     24  N7        22.7410   13.3860   47.9820 N.2   300  ACP300     -0.2095
     25  C5        22.1180   12.2870   47.4060 C.2   300  ACP300      0.2526
     26  C6        20.7660   11.9960   47.1330 C.2   300  ACP300      0.4393
     27  N6        19.7530   12.8190   47.4260 N.pl3 300  ACP300      0.2180
     28  N1        20.4850   10.8120   46.5470 N.2   300  ACP300      0.0021
     29  C2        21.4970    9.9860   46.2540 C.3   300  ACP300      0.5254
     30  N3        22.8040   10.1440   46.4600 N.2   300  ACP300     -0.0055
     31  C4        23.0520   11.3290   47.0450 C.2   300  ACP300      0.3518
@<TRIPOS>BOND
     1    18    17    1
     2    20    19    1
     3    19    17    1
     4    19    21    1
     5    17    15    1
     6     6     5    2
     7    29    30    1
     8    29    28    1
     9    30    31    2
    10    28    26    2
    11     4     1    2
    12    31    25    1
    13    31    22    1
    14    26    25    1
    15    26    27    1
    16    21    22    1
    17    21    16    1
    18    25    24    2
    19    22    23    1
    20    12     5    1
    21    12     9    1
    22    15    16    1
    23    15    14    1
    24     5     8    1
    25     5     7    1
    26    11     9    2
    27    23    24    1
    28     1     3    1
    29     1     8    1
    30     1     2    1
    31    14    13    1
    32    13     9    1
    33     9    10    1
