@<TRIPOS>MOLECULE
1k3c_ADP_A_1.pdb
 27 29 0 0 0
SMALL
GASTEIGER

@<TRIPOS>ATOM
      1  PB        28.7740    6.4060   12.0050 P.3   541  ADP541      0.5373
      2  O1B       27.4500    5.9700   11.5080 O.3   541  ADP541     -0.1143
      3  O2B       29.2360    5.7980   13.2570 O.3   541  ADP541     -0.1143
      4  O3B       29.8350    6.5410   10.8070 O.2   541  ADP541     -0.2221
      5  PA        29.2050    8.7270   13.5410 P.3   541  ADP541      0.2231
      6  O1A       28.2120    8.4650   14.5850 O.3   541  ADP541     -0.4370
      7  O2A       30.6360    8.5560   13.7980 O.2   541  ADP541     -0.5169
      8  O3A       28.7730    7.9680   12.1560 O.3   541  ADP541     -0.2261
      9  O5'       29.0170   10.1740   12.9470 O.3   541  ADP541     -0.3111
     10  C5'       27.8830   11.0060   12.7640 C.3   541  ADP541      0.1813
     11  C4'       28.4600   12.3690   12.4790 C.3   541  ADP541      0.1821
     12  O4'       27.4150   13.3030   12.2520 O.3   541  ADP541     -0.3135
     13  C3'       29.2720   12.8750   13.6890 C.3   541  ADP541      0.2184
     14  O3'       30.3490   13.6970   13.1620 O.3   541  ADP541     -0.2174
     15  C2'       28.1960   13.7200   14.4000 C.3   541  ADP541      0.2570
     16  O2'       28.7320   14.7220   15.2930 O.3   541  ADP541     -0.2130
     17  C1'       27.4580   14.3350   13.2250 C.3   541  ADP541      0.3186
     18  N9        26.0290   14.6440   13.4630 N.pl3 541  ADP541     -0.1439
     19  C8        25.4270   15.8670   13.2930 C.3   541  ADP541      0.3377
     20  N7        24.1480   15.8600   13.5640 N.2   541  ADP541     -0.2095
     21  C5        23.8730   14.5510   13.9320 C.2   541  ADP541      0.2526
     22  C6        22.6790   13.8980   14.3260 C.2   541  ADP541      0.4393
     23  N6        21.5170   14.5320   14.4070 N.pl3 541  ADP541      0.2180
     24  N1        22.7510   12.5870   14.6300 N.2   541  ADP541      0.0021
     25  C2        23.9320   11.9560   14.5440 C.3   541  ADP541      0.5254
     26  N3        25.1120   12.4560   14.1770 N.2   541  ADP541     -0.0055
     27  C4        25.0150   13.7870   13.8890 C.2   541  ADP541      0.3518
@<TRIPOS>BOND
     1     4     1    2
     2     2     1    1
     3     1     8    1
     4     1     3    1
     5     8     5    1
     6    12    11    1
     7    12    17    1
     8    11    10    1
     9    11    13    1
    10    10     9    1
    11     9     5    1
    12    14    13    1
    13    17    18    1
    14    17    15    1
    15    19    18    1
    16    19    20    1
    17    18    27    1
    18     5     7    2
    19     5     6    1
    20    20    21    2
    21    13    15    1
    22    27    21    1
    23    27    26    2
    24    21    22    1
    25    26    25    1
    26    22    23    1
    27    22    24    2
    28    15    16    1
    29    25    24    1
