@<TRIPOS>MOLECULE
1k3d_ADP_A_1.pdb
 27 29 0 0 0
SMALL
GASTEIGER

@<TRIPOS>ATOM
      1  PB        29.2310    6.1610   11.8490 P.3   541  ADP541      0.5373
      2  O1B       27.8680    5.7970   11.4020 O.3   541  ADP541     -0.1143
      3  O2B       29.6830    5.5710   13.1140 O.3   541  ADP541     -0.1143
      4  O3B       30.2670    6.1970   10.6180 O.2   541  ADP541     -0.2221
      5  PA        29.7420    8.5040   13.3320 P.3   541  ADP541      0.2231
      6  O1A       28.7250    8.2960   14.3690 O.3   541  ADP541     -0.4370
      7  O2A       31.1690    8.2920   13.6030 O.2   541  ADP541     -0.5169
      8  O3A       29.2910    7.7300   11.9670 O.3   541  ADP541     -0.2261
      9  O5'       29.6140    9.9300   12.6910 O.3   541  ADP541     -0.3111
     10  C5'       28.5260   10.8060   12.4820 C.3   541  ADP541      0.1813
     11  C4'       29.1840   12.1600   12.2900 C.3   541  ADP541      0.1821
     12  O4'       28.2090   13.1680   12.0670 O.3   541  ADP541     -0.3135
     13  C3'       29.9930   12.5380   13.5500 C.3   541  ADP541      0.2184
     14  O3'       31.2230   13.1830   13.1150 O.3   541  ADP541     -0.2174
     15  C2'       29.0230   13.5130   14.2500 C.3   541  ADP541      0.2570
     16  O2'       29.6930   14.4770   15.0810 O.3   541  ADP541     -0.2130
     17  C1'       28.2950   14.1700   13.0890 C.3   541  ADP541      0.3186
     18  N9        26.8930   14.5970   13.3570 N.pl3 541  ADP541     -0.1439
     19  C8        26.4170   15.8780   13.2350 C.3   541  ADP541      0.3377
     20  N7        25.1470   15.9950   13.5200 N.2   541  ADP541     -0.2095
     21  C5        24.7440   14.7160   13.8600 C.2   541  ADP541      0.2526
     22  C6        23.4930   14.1920   14.2620 C.2   541  ADP541      0.4393
     23  N6        22.4130   14.9590   14.3720 N.pl3 541  ADP541      0.2180
     24  N1        23.4190   12.8570   14.5300 N.2   541  ADP541      0.0021
     25  C2        24.5200   12.1150   14.4100 C.3   541  ADP541      0.5254
     26  N3        25.7530   12.4920   14.0440 N.2   541  ADP541     -0.0055
     27  C4        25.7950   13.8350   13.7730 C.2   541  ADP541      0.3518
@<TRIPOS>BOND
     1     4     1    2
     2     2     1    1
     3     1     8    1
     4     1     3    1
     5     8     5    1
     6    12    11    1
     7    12    17    1
     8    11    10    1
     9    11    13    1
    10    10     9    1
    11     9     5    1
    12    17    18    1
    13    17    15    1
    14    14    13    1
    15    19    18    1
    16    19    20    1
    17     5     7    2
    18     5     6    1
    19    18    27    1
    20    20    21    2
    21    13    15    1
    22    27    21    1
    23    27    26    2
    24    21    22    1
    25    26    25    1
    26    15    16    1
    27    22    23    1
    28    22    24    2
    29    25    24    1
