@<TRIPOS>MOLECULE
1k3l_GTX_A_1.pdb
 26 25 0 0 0
SMALL
GASTEIGER

@<TRIPOS>ATOM
      1  N1        76.2000   24.5540   13.1020 N.3   5100  GTX5100    -0.1208
      2  CA1       76.9510   25.7390   12.5730 C.3   5100  GTX5100     0.1948
      3  C1        77.6310   25.3430   11.2440 C.2   5100  GTX5100     0.3819
      4  O11       77.8860   26.1600   10.3370 O.co2 5100  GTX5100    -0.2441
      5  O12       77.7510   24.0990   11.1030 O.co2 5100  GTX5100    -0.2441
      6  CB1       78.0640   25.9920   13.6360 C.3   5100  GTX5100     0.0402
      7  CG1       78.8750   27.2280   13.1520 C.3   5100  GTX5100     0.0889
      8  CD1       79.8300   27.6840   14.2460 C.2   5100  GTX5100     0.2418
      9  OE1       79.9960   27.0900   15.3170 O.2   5100  GTX5100    -0.2733
     10  N2        80.7320   28.6810   13.7850 N.am  5100  GTX5100    -0.1969
     11  CA2       81.7880   29.0870   14.7410 C.3   5100  GTX5100     0.1834
     12  C2        81.5560   30.5890   14.9230 C.2   5100  GTX5100     0.2626
     13  O2        81.2180   31.3530   14.0310 O.2   5100  GTX5100    -0.2714
     14  CB2       83.1370   28.9790   13.9750 C.3   5100  GTX5100     0.0886
     15  SG2       83.5970   27.2770   13.7150 S.3   5100  GTX5100    -0.1379
     16  C1S       84.5000   26.7190   15.1390 C.3   5100  GTX5100     0.0576
     17  C2S       85.5060   25.6030   14.8700 C.3   5100  GTX5100     0.0116
     18  C3S       86.8600   25.8760   15.5570 C.3   5100  GTX5100     0.0009
     19  C4S       87.3870   24.5730   16.1870 C.3   5100  GTX5100     0.0000
     20  C5S       88.1390   24.9070   17.4880 C.3   5100  GTX5100     0.0000
     21  C6S       89.0490   23.7520   17.8980 C.3   5100  GTX5100     0.0000
     22  N3        81.6130   30.9630   16.3120 N.am  5100  GTX5100    -0.1917
     23  CA3       81.2010   32.3460   16.6220 C.3   5100  GTX5100     0.2285
     24  C3        79.9810   32.3490   17.5360 C.2   5100  GTX5100     0.3865
     25  O31       79.7010   33.4510   18.1040 O.co2 5100  GTX5100    -0.2437
     26  O32       79.2450   31.3370   17.6340 O.co2 5100  GTX5100    -0.2437
@<TRIPOS>BOND
     1     4     3   ar
     2     5     3   ar
     3     3     2    1
     4     2     1    1
     5     2     6    1
     6     7     6    1
     7     7     8    1
     8    15    14    1
     9    15    16    1
    10    10     8   am
    11    10    11    1
    12    14    11    1
    13    13    12    2
    14     8     9    2
    15    11    12    1
    16    17    16    1
    17    17    18    1
    18    12    22   am
    19    18    19    1
    20    19    20    1
    21    22    23    1
    22    23    24    1
    23    20    21    1
    24    24    26   ar
    25    24    25   ar
