@<TRIPOS>MOLECULE
1k3t_BRZ_C_1.pdb
 23 25 0 0 0
SMALL
GASTEIGER

@<TRIPOS>ATOM
      1  C1        26.4600    9.6930    7.8100 C.ar  960  BRZ960      0.0348
      2  C2        27.8250    9.8620    7.9860 C.ar  960  BRZ960      0.0061
      3  C3        28.1220   10.8250    8.9560 C.ar  960  BRZ960      0.0375
      4  C4        27.1210   11.5020    9.6200 C.ar  960  BRZ960      0.1480
      5  C5        25.7470   11.3070    9.4130 C.ar  960  BRZ960      0.0750
      6  C6        25.3840   10.3520    8.4590 C.ar  960  BRZ960      0.1517
      7  O7        24.0140   10.0930    8.1850 O.2   960  BRZ960     -0.4211
      8  C8        23.5040    9.1440    7.2600 C.ar  960  BRZ960      0.3420
      9  C9        24.7270    8.4850    6.5790 C.ar  960  BRZ960      0.0570
     10  C10       26.0380    8.6720    6.7800 C.ar  960  BRZ960      0.0055
     11  O11       27.5970   12.4240   10.5220 O.2   960  BRZ960     -0.4552
     12  C12       29.0370   12.3260   10.5190 C.ar  960  BRZ960      0.1501
     13  C13       29.4660   11.2920    9.4280 C.ar  960  BRZ960      0.0385
     14  O14       22.3140    8.8240    6.9000 O.2   960  BRZ960     -0.2448
     15  C15       24.3570    7.3970    5.5230 C.3   960  BRZ960      0.0436
     16  C16       25.5250    6.4030    5.1820 C.3   960  BRZ960      0.0090
     17  C17       24.1130    8.1880    4.2430 C.3   960  BRZ960      0.0090
     18  C18       23.3900    6.5730    6.3380 C.2   960  BRZ960     -0.0225
     19  C19       23.0800    6.3460    7.6070 C.2   960  BRZ960     -0.0046
     20  C20       29.9000   13.5870   10.7530 C.3   960  BRZ960      0.1769
     21  O21       29.4600   14.9070   10.4370 O.3   960  BRZ960     -0.2180
     22  C22       30.3940   13.6950   12.2080 C.3   960  BRZ960      0.0408
     23  C23       31.1440   13.2520    9.8870 C.3   960  BRZ960      0.0408
@<TRIPOS>BOND
     1    17    15    1
     2    16    15    1
     3    15    18    1
     4    15     9    1
     5    18    19    2
     6     9    10   ar
     7     9     8   ar
     8    10     1   ar
     9    14     8    2
    10     8     7   ar
    11     1     2   ar
    12     1     6   ar
    13     2     3   ar
    14     7     6   ar
    15     6     5   ar
    16     3    13   ar
    17     3     4   ar
    18     5     4   ar
    19    13    12   ar
    20     4    11   ar
    21    23    20    1
    22    21    20    1
    23    12    11   ar
    24    12    20    1
    25    20    22    1
