@<TRIPOS>MOLECULE
1k3u_IAD_A_1.pdb
 21 22 0 0 0
SMALL
GASTEIGER

@<TRIPOS>ATOM
      1  OD2       45.2230   28.2880    9.3080 O.co2 801  IAD801     -0.2456
      2  CG        45.8570   29.0940   10.1670 C.2   801  IAD801      0.3672
      3  OD1       46.1510   30.3310    9.8700 O.co2 801  IAD801     -0.2456
      4  CB        46.2030   28.5530   11.5690 C.3   801  IAD801      0.1472
      5  CA        47.6410   27.9310   11.5210 C.3   801  IAD801      0.2090
      6  C         48.5050   28.5790   10.4430 C.2   801  IAD801      0.3848
      7  O         49.2410   29.6610   10.7560 O.co2 801  IAD801     -0.2437
      8  O1        48.5620   28.0390    9.2970 O.co2 801  IAD801     -0.2437
      9  N         48.3210   28.1780   12.7980 N.am  801  IAD801     -0.1947
     10  C11       47.8190   27.7160   14.0250 C.2   801  IAD801      0.2460
     11  O11       46.8190   27.0240   14.0880 O.2   801  IAD801     -0.2730
     12  C10       48.6350   28.0620   15.2670 C.3   801  IAD801      0.1110
     13  C3        50.0020   27.3790   15.1760 C.2   801  IAD801     -0.0067
     14  C2        51.2550   28.0140   15.2990 C.2   801  IAD801      0.0911
     15  N1        52.2180   27.0150   15.1780 N.2   801  IAD801     -0.2481
     16  C9        50.2100   25.9880   15.0420 C.3   801  IAD801      0.0823
     17  C4        49.3270   24.9110   14.9690 C.2   801  IAD801     -0.0164
     18  C8        51.5910   25.7880   15.0160 C.2   801  IAD801      0.0665
     19  C7        52.1030   24.4930   14.8910 C.2   801  IAD801      0.0153
     20  C6        51.2350   23.4210   14.7960 C.2   801  IAD801      0.0009
     21  C5        49.8650   23.6370   14.8290 C.2   801  IAD801     -0.0038
@<TRIPOS>BOND
     1     8     6   ar
     2     1     2   ar
     3     3     2   ar
     4     2     4    1
     5     6     7   ar
     6     6     5    1
     7     5     4    1
     8     5     9    1
     9     9    10   am
    10    10    11    2
    11    10    12    1
    12    20    21    1
    13    20    19    2
    14    21    17    2
    15    19    18    1
    16    17    16    1
    17    18    16    1
    18    18    15    2
    19    16    13    1
    20    13    12    1
    21    13    14    2
    22    15    14    1
