@<TRIPOS>MOLECULE
1k3u_PLP_B_1.pdb
 15 15 0 0 0
SMALL
GASTEIGER

@<TRIPOS>ATOM
      1  N1        84.4000   13.7260   11.9310 N.ar  802  PLP802     -0.2452
      2  C2        84.3450   14.0650   10.6230 C.ar  802  PLP802      0.0978
      3  C2A       85.5870   13.9620    9.7540 C.3   802  PLP802      0.0555
      4  C3        83.0950   14.4840   10.1390 C.ar  802  PLP802      0.2049
      5  O3        83.0280   14.7880    8.8490 O.3   802  PLP802     -0.2857
      6  C4        81.9830   14.5870   10.9620 C.ar  802  PLP802      0.0182
      7  C4A       80.6150   14.9880   10.5220 C.3   802  PLP802      0.0342
      8  C5        82.0940   14.2700   12.2910 C.ar  802  PLP802      0.0261
      9  C6        83.3170   13.8400   12.7500 C.ar  802  PLP802      0.0965
     10  C5A       80.9450   14.4780   13.3420 C.3   802  PLP802      0.1815
     11  O4P       79.7300   13.7880   13.1270 O.3   802  PLP802     -0.2653
     12  P         79.4840   12.3990   13.8340 P.3   802  PLP802      0.5329
     13  O1P       78.0620   12.1260   13.4310 O.3   802  PLP802     -0.1145
     14  O2P       79.6100   12.6270   15.3660 O.3   802  PLP802     -0.1145
     15  O3P       80.4150   11.3110   13.3540 O.2   802  PLP802     -0.2224
@<TRIPOS>BOND
     1     5     4    1
     2     3     2    1
     3     4     2   ar
     4     4     6   ar
     5     7     6    1
     6     2     1   ar
     7     6     8   ar
     8     1     9   ar
     9     8     9   ar
    10     8    10    1
    11    11    10    1
    12    11    12    1
    13    15    12    2
    14    13    12    1
    15    12    14    1
