@<TRIPOS>MOLECULE
1k3y_GTX_A_1.pdb
 26 25 0 0 0
SMALL
GASTEIGER

@<TRIPOS>ATOM
      1  N1        75.6580   24.5330   13.1260 N.3   5100  GTX5100    -0.1208
      2  CA1       76.5020   25.6550   12.6090 C.3   5100  GTX5100     0.1948
      3  C1        77.1480   25.2170   11.2740 C.2   5100  GTX5100     0.3819
      4  O11       77.4110   24.0020   11.1450 O.co2 5100  GTX5100    -0.2441
      5  O12       77.4070   26.0740   10.4080 O.co2 5100  GTX5100    -0.2441
      6  CB1       77.5580   25.9660   13.6760 C.3   5100  GTX5100     0.0402
      7  CG1       78.4250   27.1760   13.2170 C.3   5100  GTX5100     0.0889
      8  CD1       79.4290   27.5030   14.3290 C.2   5100  GTX5100     0.2418
      9  OE1       79.4710   26.9910   15.4190 O.2   5100  GTX5100    -0.2733
     10  N2        80.2930   28.5270   13.9400 N.am  5100  GTX5100    -0.1969
     11  CA2       81.3360   29.0020   14.8070 C.3   5100  GTX5100     0.1834
     12  C2        81.0380   30.4830   14.9990 C.2   5100  GTX5100     0.2626
     13  O2        80.8110   31.2990   14.1170 O.2   5100  GTX5100    -0.2714
     14  CB2       82.6890   28.8670   14.0840 C.3   5100  GTX5100     0.0886
     15  SG2       83.1030   27.1300   13.8020 S.3   5100  GTX5100    -0.1379
     16  C1S       84.1410   26.6840   15.1900 C.3   5100  GTX5100     0.0576
     17  C2S       84.9670   25.4150   14.8470 C.3   5100  GTX5100     0.0116
     18  C3S       86.3420   25.4690   15.5490 C.3   5100  GTX5100     0.0009
     19  C4S       86.6040   24.1300   16.2480 C.3   5100  GTX5100     0.0000
     20  C5S       87.4150   24.3130   17.5550 C.3   5100  GTX5100     0.0000
     21  C6S       88.3030   23.0790   17.7650 C.3   5100  GTX5100     0.0000
     22  N3        81.1110   30.8340   16.3620 N.am  5100  GTX5100    -0.1917
     23  CA3       80.7860   32.2140   16.7580 C.3   5100  GTX5100     0.2285
     24  C3        79.4870   32.2410   17.5570 C.2   5100  GTX5100     0.3865
     25  O31       79.2060   33.3420   18.1140 O.co2 5100  GTX5100    -0.2437
     26  O32       78.7000   31.2730   17.6310 O.co2 5100  GTX5100    -0.2437
@<TRIPOS>BOND
     1     5     3   ar
     2     4     3   ar
     3     3     2    1
     4     2     1    1
     5     2     6    1
     6     7     6    1
     7     7     8    1
     8    15    14    1
     9    15    16    1
    10    10     8   am
    11    10    11    1
    12    14    11    1
    13    13    12    2
    14     8     9    2
    15    11    12    1
    16    17    16    1
    17    17    18    1
    18    12    22   am
    19    18    19    1
    20    19    20    1
    21    22    23    1
    22    23    24    1
    23    20    21    1
    24    24    26   ar
    25    24    25   ar
