@<TRIPOS>MOLECULE
1k4g_AIQ_A_1.pdb
 20 22 0 0 0
SMALL
GASTEIGER

@<TRIPOS>ATOM
      1  C1        17.3030   17.2870   18.5860 C.2   900  AIQ900      0.0167
      2  C2        16.2560   17.0760   19.5090 C.2   900  AIQ900      0.0189
      3  C9        14.8190   16.6670   19.0990 C.3   900  AIQ900      0.1010
      4  C3        16.5320   17.2430   20.8840 C.2   900  AIQ900      0.1401
      5  N3        15.5600   17.0610   21.8200 N.2   900  AIQ900     -0.3286
      6  C8        15.7440   17.1950   23.0860 C.1   900  AIQ900      0.2512
      7  N2        14.7420   16.9990   23.9050 N.pl3 900  AIQ900     -0.0226
      8  N1        16.9300   17.5320   23.5920 N.2   900  AIQ900     -0.2537
      9  C7        17.9840   17.7520   22.8230 C.1   900  AIQ900      0.2018
     10  O1        19.0790   18.0620   23.2770 O.2   900  AIQ900     -0.2127
     11  C4        17.8250   17.6090   21.3180 C.3   900  AIQ900      0.1948
     12  C5        18.8600   17.8140   20.3860 C.2   900  AIQ900      0.0163
     13  C6        18.5980   17.6560   19.0090 C.2   900  AIQ900      0.0861
     14  N4        19.5820   17.8530   18.0990 N.pl3 900  AIQ900     -0.1284
     15  S1        14.6390   14.9630   18.4200 S.3   900  AIQ900     -0.0376
     16  C10       14.5470   15.4380   16.6960 C.1   900  AIQ900      0.0645
     17  N5        15.3680   16.3400   16.1280 N.2   900  AIQ900     -0.1853
     18  N6        13.7510   15.0380   15.8040 N.2   900  AIQ900     -0.1853
     19  C11       15.0030   16.4360   14.8490 C.2   900  AIQ900      0.1315
     20  C12       13.9740   15.6440   14.5320 C.2   900  AIQ900      0.1315
@<TRIPOS>BOND
     1    20    19    2
     2    20    18    1
     3    19    17    1
     4    18    16    2
     5    17    16    2
     6    16    15    1
     7    14    13    1
     8    15     3    1
     9     1    13    1
    10     1     2    2
    11    13    12    2
    12     3     2    1
    13     2     4    1
    14    12    11    1
    15     4    11    1
    16     4     5    2
    17    11     9    1
    18     5     6    2
    19     9    10    2
    20     9     8    2
    21     6     8    2
    22     6     7    1
