@<TRIPOS>MOLECULE
1k4h_APQ_A_1.pdb
 18 19 0 0 0
SMALL
GASTEIGER

@<TRIPOS>ATOM
      1  C10       12.9290   14.6350   18.0240 C.3   900  APQ900      0.0576
      2  C11       12.3480   15.9970   17.5590 C.3   900  APQ900      0.0116
      3  C12       11.7970   15.8360   16.1110 C.3   900  APQ900      0.0009
      4  S1        14.6910   14.8460   18.4000 S.3   900  APQ900     -0.1395
      5  C9        14.9260   16.5260   19.1510 C.3   900  APQ900      0.0690
      6  C2        16.3500   16.9360   19.6250 C.3   900  APQ900      0.0882
      7  C3        16.5660   17.1270   21.0140 C.2   900  APQ900      0.1391
      8  N3        15.5460   16.9320   21.9280 N.2   900  APQ900     -0.3286
      9  C8        15.6810   17.0890   23.2010 C.1   900  APQ900      0.2515
     10  N1        16.8540   17.4550   23.7440 N.2   900  APQ900     -0.2501
     11  C7        17.9440   17.6790   23.0040 C.1   900  APQ900      0.2180
     12  O1        19.0240   18.0180   23.5010 O.2   900  APQ900     -0.2085
     13  C4        17.8510   17.5110   21.4910 C.2   900  APQ900      0.1233
     14  C5        18.9310   17.7190   20.5890 C.2   900  APQ900      0.0327
     15  C6        18.7120   17.5300   19.1980 C.2   900  APQ900      0.0861
     16  N4        19.7060   17.7150   18.2950 N.pl3 900  APQ900     -0.1284
     17  C1        17.4320   17.1480   18.7450 C.2   900  APQ900     -0.0004
     18  N2        14.6500   16.8820   23.9810 N.pl3 900  APQ900     -0.0226
@<TRIPOS>BOND
     1     3     2    1
     2     2     1    1
     3     1     4    1
     4    16    15    1
     5     4     5    1
     6    17    15    2
     7    17     6    1
     8     5     6    1
     9    15    14    1
    10     6     7    1
    11    14    13    2
    12     7    13    1
    13     7     8    2
    14    13    11    1
    15     8     9    2
    16    11    12    2
    17    11    10    2
    18     9    10    2
    19     9    18    1
