@<TRIPOS>MOLECULE
1k4m_NAD_A_1.pdb
 44 48 0 0 0
SMALL
GASTEIGER

@<TRIPOS>ATOM
      1  PA        21.3440   27.8750    4.4730 P.3   601  NAD601      0.2189
      2  O1A       20.4480   27.1400    5.3610 O.3   601  NAD601     -0.4371
      3  O2A       22.0780   27.0570    3.4880 O.2   601  NAD601     -0.5170
      4  O5B       22.4860   28.6270    5.3260 O.3   601  NAD601     -0.3112
      5  C5B       22.0930   29.5440    6.3890 C.3   601  NAD601      0.1813
      6  C4B       23.2000   30.6070    6.4260 C.3   601  NAD601      0.1821
      7  O4B       24.4520   30.0870    6.9450 O.3   601  NAD601     -0.3135
      8  C3B       23.5600   31.2430    5.0810 C.3   601  NAD601      0.2184
      9  O3B       23.6490   32.6910    5.2350 O.3   601  NAD601     -0.2174
     10  C2B       24.8820   30.5580    4.7610 C.3   601  NAD601      0.2570
     11  O2B       25.6570   31.3920    3.9100 O.3   601  NAD601     -0.2130
     12  C1B       25.5280   30.3930    6.1450 C.3   601  NAD601      0.3186
     13  N9A       26.4120   29.2410    6.2280 N.pl3 601  NAD601     -0.1439
     14  C8A       26.1240   27.9490    5.8570 C.3   601  NAD601      0.3377
     15  N7A       27.1450   27.0960    6.0620 N.2   601  NAD601     -0.2095
     16  C5A       28.1370   27.9270    6.5980 C.2   601  NAD601      0.2526
     17  C6A       29.4620   27.6520    7.0380 C.2   601  NAD601      0.4393
     18  N6A       30.0130   26.4510    6.9960 N.pl3 601  NAD601      0.2180
     19  N1A       30.2130   28.6960    7.5340 N.2   601  NAD601      0.0021
     20  C2A       29.6390   29.9500    7.5800 C.3   601  NAD601      0.5254
     21  N3A       28.3990   30.2860    7.1840 N.2   601  NAD601     -0.0055
     22  C4A       27.7020   29.2410    6.7090 C.2   601  NAD601      0.3518
     23  O3        20.4490   29.0140    3.7590 O.3   601  NAD601     -0.2703
     24  PN        20.6940   29.6770    2.3070 P.3   601  NAD601      0.2189
     25  O1N       20.0920   28.9170    1.1840 O.2   601  NAD601     -0.5170
     26  O2N       22.1490   29.9150    2.1090 O.3   601  NAD601     -0.4371
     27  O5D       19.8050   31.0150    2.5320 O.3   601  NAD601     -0.3112
     28  C5D       20.2420   31.9890    3.5350 C.3   601  NAD601      0.1813
     29  C4D       19.2430   33.1020    3.5640 C.3   601  NAD601      0.1799
     30  O4D       19.2790   33.8700    2.3170 O.3   601  NAD601     -0.3327
     31  C3D       17.7790   32.6750    3.7750 C.3   601  NAD601      0.2158
     32  O3D       17.1130   33.5490    4.7020 O.3   601  NAD601     -0.2175
     33  C2D       17.1970   32.7900    2.3760 C.3   601  NAD601      0.2309
     34  O2D       15.7740   32.9490    2.3690 O.3   601  NAD601     -0.2158
     35  C1D       17.9350   33.9800    1.8310 C.3   601  NAD601      0.2263
     36  N1N       17.8770   34.0640    0.3630 N.pl3 601  NAD601     -0.2787
     37  C2N       16.9130   34.9140   -0.2090 C.3   601  NAD601      0.1244
     38  C3N       16.7650   35.0740   -1.6490 C.2   601  NAD601      0.0544
     39  C7N       15.6910   36.0220   -2.0830 C.2   601  NAD601      0.2818
     40  O7N       15.6000   36.1510   -3.3110 O.2   601  NAD601     -0.2670
     41  N7N       14.8890   36.6930   -1.2160 N.am  601  NAD601     -0.0839
     42  C4N       17.6590   34.3050   -2.5490 C.2   601  NAD601      0.0033
     43  C5N       18.6830   33.3970   -1.8630 C.2   601  NAD601      0.0157
     44  C6N       18.7420   33.3200   -0.5260 C.2   601  NAD601      0.0633
@<TRIPOS>BOND
     1    40    39    2
     2    42    43    1
     3    42    38    2
     4    39    38    1
     5    39    41   am
     6    43    44    2
     7    38    37    1
     8    44    36    1
     9    37    36    1
    10    36    35    1
    11    25    24    2
    12    35    30    1
    13    35    33    1
    14    26    24    1
    15    24    27    1
    16    24    23    1
    17    30    29    1
    18    34    33    1
    19    33    31    1
    20    27    28    1
    21     3     1    2
    22    28    29    1
    23    29    31    1
    24    23     1    1
    25    31    32    1
    26    11    10    1
    27     1     4    1
    28     1     2    1
    29    10     8    1
    30    10    12    1
    31     8     9    1
    32     8     6    1
    33     4     5    1
    34    14    15    1
    35    14    13    1
    36    15    16    2
    37    12    13    1
    38    12     7    1
    39    13    22    1
    40     5     6    1
    41     6     7    1
    42    16    22    1
    43    16    17    1
    44    22    21    2
    45    18    17    1
    46    17    19    2
    47    21    20    1
    48    19    20    1
