@<TRIPOS>MOLECULE
1k4t_TTG_C_1.pdb
 32 35 0 0 0
SMALL
GASTEIGER

@<TRIPOS>ATOM
      1  C25       19.3970    1.9110   29.0790 C.3   991  TTG991      0.0459
      2  C31       18.5260    1.0040   29.9790 C.3   991  TTG991      0.0036
      3  C21       20.0320    1.3410   27.7610 C.3   991  TTG991      0.2375
      4  O24       18.9460    0.8230   26.9810 O.3   991  TTG991     -0.2096
      5  C16       21.0310    0.1500   28.1100 C.ar  991  TTG991      0.0200
      6  C20       20.5720    2.5540   26.8550 C.2   991  TTG991      0.3955
      7  C15       22.3870    0.3030   28.3480 C.ar  991  TTG991      0.0656
      8  C17       20.5240   -1.1400   28.2230 C.ar  991  TTG991      0.0184
      9  O23       20.6060    2.4610   25.6020 O.co2 991  TTG991     -0.2426
     10  O22       20.9780    3.6130   27.3890 O.co2 991  TTG991     -0.2426
     11  C14       23.3420   -0.9430   28.5010 C.ar  991  TTG991      0.2594
     12  C19       23.0760    1.6470   28.4750 C.3   991  TTG991      0.2131
     13  C13       21.2710   -2.2670   28.3940 C.ar  991  TTG991      0.0919
     14  O18       24.5670   -0.8350   28.6490 O.2   991  TTG991     -0.2672
     15  N12       22.7150   -2.1430   28.4830 N.ar  991  TTG991     -0.2891
     16  C9        21.0050   -3.7410   28.4660 C.2   991  TTG991      0.1445
     17  C11       23.4130   -3.4500   28.5260 C.3   991  TTG991      0.1384
     18  C8        22.2470   -4.4310   28.5130 C.2   991  TTG991      0.0316
     19  N10       19.7590   -4.4690   28.3460 N.2   991  TTG991     -0.4047
     20  C7        22.2630   -5.8290   28.4460 C.2   991  TTG991      0.0022
     21  C5        19.8100   -5.7840   28.2830 C.2   991  TTG991      0.1133
     22  C6        21.0540   -6.5370   28.3210 C.2   991  TTG991      0.0260
     23  C4        18.6180   -6.4680   28.0730 C.3   991  TTG991      0.0882
     24  C1        21.0150   -7.9460   28.1560 C.2   991  TTG991      0.0346
     25  C3        18.6190   -7.8250   27.8130 C.2   991  TTG991      0.0230
     26  C2        19.7820   -8.5630   27.8780 C.2   991  TTG991      0.1893
     27  C27       22.2390   -8.9080   28.2590 C.3   991  TTG991      0.1025
     28  N28       22.7880   -9.4030   26.9450 N.3   991  TTG991     -0.2664
     29  C29       23.6120   -8.3780   26.2250 C.3   991  TTG991      0.0899
     30  C30       23.4780  -10.7280   27.0450 C.3   991  TTG991      0.0899
     31  O26       19.6930   -9.9130   27.6240 O.2   991  TTG991     -0.2872
     32  O19       23.9950    1.9100   27.4230 O.3   991  TTG991     -0.2150
@<TRIPOS>BOND
     1     9     6   ar
     2    29    28    1
     3     6    10   ar
     4     6     3    1
     5    28    30    1
     6    28    27    1
     7     4     3    1
     8    32    12    1
     9    31    26    1
    10     3     5    1
    11     3     1    1
    12    25    26    2
    13    25    23    1
    14    26    24    1
    15    23    21    1
    16     5     8   ar
    17     5     7   ar
    18    24    27    1
    19    24    22    2
    20     8    13   ar
    21    21    22    1
    22    21    19    2
    23    22    20    1
    24    19    16    2
    25     7    12    1
    26     7    11   ar
    27    13    16    1
    28    13    15   ar
    29    20    18    2
    30    16    18    1
    31    15    11   ar
    32    15    17    1
    33    11    14    2
    34    18    17    1
    35     1     2    1
