@<TRIPOS>MOLECULE
1k4t_TTC_D_1.pdb
 31 35 0 0 0
SMALL
GASTEIGER

@<TRIPOS>ATOM
      1  C25       19.7090    1.6120   29.4990 C.3   990  TTC990      0.0458
      2  C31       18.6450    0.7720   30.2500 C.3   990  TTC990      0.0036
      3  C21       20.0910    1.0950   28.0810 C.3   990  TTC990      0.2334
      4  O24       18.9830    0.8350   27.4100 O.3   990  TTC990     -0.2097
      5  C16       20.9730   -0.1340   28.2250 C.ar  990  TTC990      0.0209
      6  C20       20.8980    2.1730   27.2750 C.2   990  TTC990      0.3490
      7  C15       22.3880   -0.0080   28.3820 C.ar  990  TTC990      0.0763
      8  C17       20.5700   -1.4690   28.2120 C.ar  990  TTC990      0.0184
      9  O23       20.3350    2.9850   26.4060 O.2   990  TTC990     -0.2470
     10  O22       22.2640    2.2880   27.4680 O.3   990  TTC990     -0.4414
     11  C14       23.2600   -1.1000   28.5100 C.ar  990  TTC990      0.2604
     12  C19       22.9580    1.4170   28.4060 C.3   990  TTC990      0.2396
     13  C13       21.4600   -2.5510   28.3350 C.ar  990  TTC990      0.0918
     14  O18       24.5670   -0.9400   28.6530 O.2   990  TTC990     -0.2672
     15  N12       22.7550   -2.3780   28.4770 N.ar  990  TTC990     -0.2891
     16  C9        21.1640   -3.9150   28.3120 C.2   990  TTC990      0.1443
     17  C11       23.5230   -3.6370   28.5820 C.3   990  TTC990      0.1381
     18  C8        22.4180   -4.6700   28.4590 C.2   990  TTC990      0.0280
     19  N10       19.9320   -4.4280   28.1690 N.2   990  TTC990     -0.4044
     20  C7        22.3480   -6.0000   28.4480 C.2   990  TTC990     -0.0150
     21  C5        19.8990   -5.8280   28.1570 C.2   990  TTC990      0.1167
     22  C6        21.0710   -6.6350   28.2830 C.3   990  TTC990      0.0967
     23  C4        18.6570   -6.3600   27.9950 C.2   990  TTC990      0.0314
     24  C1        20.9250   -8.0350   28.2410 C.2   990  TTC990      0.0210
     25  C3        18.5190   -7.7590   27.9510 C.2   990  TTC990      0.0437
     26  C2        19.6520   -8.5800   28.0710 C.2   990  TTC990      0.1899
     27  C27       22.0810   -9.0360   28.3510 C.3   990  TTC990      0.0988
     28  N28       22.6920   -9.3970   27.0440 N.3   990  TTC990     -0.2667
     29  C29       23.8570   -8.5830   26.7240 C.3   990  TTC990      0.0899
     30  C30       23.0590  -10.8230   26.9670 C.3   990  TTC990      0.0899
     31  O26       19.4330   -9.9280   28.0140 O.2   990  TTC990     -0.2872
@<TRIPOS>BOND
     1     9     6    2
     2    29    28    1
     3    30    28    1
     4    28    27    1
     5     6    10    1
     6     6     3    1
     7     4     3    1
     8    10    12    1
     9    25    23    2
    10    25    26    1
    11    23    21    1
    12    31    26    1
    13    26    24    2
    14     3     5    1
    15     3     1    1
    16    21    19    2
    17    21    22    1
    18    19    16    2
    19     8     5   ar
    20     8    13   ar
    21     5     7   ar
    22    24    22    1
    23    24    27    1
    24    22    20    1
    25    16    13    1
    26    16    18    1
    27    13    15   ar
    28     7    12    1
    29     7    11   ar
    30    20    18    2
    31    18    17    1
    32    15    11   ar
    33    15    17    1
    34    11    14    2
    35     1     2    1
