@<TRIPOS>MOLECULE
1k4v_UDP_A_1.pdb
 25 26 0 0 0
SMALL
GASTEIGER

@<TRIPOS>ATOM
      1  N1         2.8730   13.4070   43.2520 N.am  401  UDP401     -0.1996
      2  C2         2.9420   14.3400   42.2340 C.1   401  UDP401      0.2802
      3  N3         2.5350   15.6010   42.5740 N.2   401  UDP401     -0.2497
      4  C4         1.9290   15.9640   43.8150 C.1   401  UDP401      0.1941
      5  C5         2.1250   15.0080   44.8890 C.3   401  UDP401      0.1579
      6  C6         2.4230   13.7250   44.5600 C.3   401  UDP401      0.1249
      7  O2         3.3070   14.0150   41.0930 O.2   401  UDP401     -0.1922
      8  O4         1.7890   17.1810   43.9880 O.2   401  UDP401     -0.2133
      9  C1'        3.2300   11.9900   42.8630 C.3   401  UDP401      0.2361
     10  C2'        4.7340   11.7730   42.5970 C.3   401  UDP401      0.2316
     11  O2'        4.9080   10.6650   41.7190 O.3   401  UDP401     -0.2157
     12  C3'        5.1910   11.4820   44.0240 C.3   401  UDP401      0.2158
     13  C4'        4.1100   10.5170   44.5300 C.3   401  UDP401      0.1799
     14  O4'        2.8840   11.1040   43.9470 O.3   401  UDP401     -0.3322
     15  O3'        6.4840   10.8390   43.9510 O.3   401  UDP401     -0.2175
     16  C5'        3.8870   10.3770   46.0690 C.3   401  UDP401      0.1813
     17  O5'        4.0680   11.6810   46.6700 O.3   401  UDP401     -0.3111
     18  PA         5.4120   12.0740   47.4110 P.3   401  UDP401      0.2231
     19  O1A        6.5620   11.4660   46.6400 O.2   401  UDP401     -0.5169
     20  O2A        5.4610   13.5860   47.5220 O.3   401  UDP401     -0.4370
     21  O3A        5.2350   11.4260   48.8520 O.3   401  UDP401     -0.2261
     22  PB         6.4900   11.1940   49.8640 P.3   401  UDP401      0.5373
     23  O1B        7.3500    9.9930   49.2910 O.2   401  UDP401     -0.2221
     24  O2B        5.7970   10.8080   51.1150 O.3   401  UDP401     -0.1143
     25  O3B        7.3080   12.4710   49.8560 O.3   401  UDP401     -0.1143
@<TRIPOS>BOND
     1     7     2    2
     2    11    10    1
     3     2     3    2
     4     2     1   am
     5     3     4    2
     6    10     9    1
     7    10    12    1
     8     9     1    1
     9     9    14    1
    10     1     6    1
    11     4     8    2
    12     4     5    1
    13    14    13    1
    14    15    12    1
    15    12    13    1
    16    13    16    1
    17     6     5    1
    18    16    17    1
    19    19    18    2
    20    17    18    1
    21    18    20    1
    22    18    21    1
    23    21    22    1
    24    23    22    2
    25    25    22    1
    26    22    24    1
