@<TRIPOS>MOLECULE
1k4y_4PN_A_1.pdb
 12 13 0 0 0
SMALL
GASTEIGER

@<TRIPOS>ATOM
      1  C8       -11.2000  103.8770  118.8780 C.3   2001  4PN2001     0.0720
      2  C9       -10.2900  105.0260  119.3410 C.3   2001  4PN2001     0.0174
      3  C10      -10.8660  106.4600  119.1850 C.3   2001  4PN2001     0.0029
      4  C11      -12.3590  106.5380  119.6680 C.3   2001  4PN2001     0.0174
      5  C12      -13.2840  105.2960  119.3320 C.3   2001  4PN2001     0.0720
      6  N7       -12.5710  104.3240  118.3620 N.3   2001  4PN2001    -0.2739
      7  C4       -12.9390  104.1050  117.7210 C.3   2001  4PN2001     0.0604
      8  C5       -12.2850  104.2870  116.2970 C.3   2001  4PN2001     0.0348
      9  C6       -13.1570  103.8120  115.1420 C.3   2001  4PN2001     0.0901
     10  N1       -14.5950  103.6180  115.5590 N.3   2001  4PN2001    -0.2180
     11  C2       -14.7890  102.5590  116.6340 C.3   2001  4PN2001     0.0901
     12  C3       -13.6440  102.6760  117.7040 C.3   2001  4PN2001     0.0348
@<TRIPOS>BOND
     1     9    10    1
     2     9     8    1
     3    10    11    1
     4     8     7    1
     5    11    12    1
     6    12     7    1
     7     7     6    1
     8     6     1    1
     9     6     5    1
    10     1     2    1
    11     3     2    1
    12     3     4    1
    13     5     4    1
