@<TRIPOS>MOLECULE
1k4y_MAN_A_1.pdb
 11 11 0 0 0
SMALL
GASTEIGER

@<TRIPOS>ATOM
      1  C1       -14.7590  106.7750  129.5880 C.3   1393  MAN1393     0.1777
      2  C2       -13.3190  107.1130  129.1730 C.3   1393  MAN1393     0.2141
      3  C3       -12.6910  105.9340  128.4180 C.3   1393  MAN1393     0.2173
      4  C4       -13.5540  105.5320  127.2070 C.3   1393  MAN1393     0.2142
      5  C5       -14.8830  106.3030  127.1980 C.3   1393  MAN1393     0.1810
      6  C6       -15.8770  105.7590  126.1890 C.3   1393  MAN1393     0.2141
      7  O2       -12.5450  107.4110  130.3260 O.3   1393  MAN1393    -0.2176
      8  O3       -12.5440  104.8240  129.2970 O.3   1393  MAN1393    -0.2175
      9  O4       -12.8430  105.7930  126.0060 O.3   1393  MAN1393    -0.2176
     10  O5       -15.5090  106.2140  128.4970 O.3   1393  MAN1393    -0.3481
     11  O6       -15.4670  106.0410  124.8600 O.3   1393  MAN1393    -0.2176
@<TRIPOS>BOND
     1    11     6    1
     2     9     4    1
     3     6     5    1
     4     5     4    1
     5     5    10    1
     6     4     3    1
     7     3     2    1
     8     3     8    1
     9    10     1    1
    10     2     1    1
    11     2     7    1
