@<TRIPOS>MOLECULE
1k54_HOQ_A_1.pdb
 17 17 0 0 0
SMALL
GASTEIGER

@<TRIPOS>ATOM
      1  C1        17.4640    4.5510   34.7530 C.2   967  HOQ967      0.2117
      2  O1        18.0110    4.1050   35.7500 O.2   967  HOQ967     -0.2881
      3  C2        17.5250    3.8700   33.4220 C.3   967  HOQ967      0.1189
      4  C21       18.8240    4.2400   32.7070 C.3   967  HOQ967      0.1358
      5  O22       19.1910    5.5550   33.1430 O.3   967  HOQ967     -0.2251
      6  C3        17.3610    2.3450   33.5420 C.3   967  HOQ967      0.1301
      7  S4        15.8360    1.8820   34.4020 S.3   967  HOQ967     -0.1228
      8  C5        15.1470    0.9650   33.0060 C.3   967  HOQ967      0.0658
      9  C51       13.7130    1.3710   32.7880 C.3   967  HOQ967      0.0129
     10  C52       15.2580   -0.5120   33.3070 C.3   967  HOQ967      0.0129
     11  C6        16.0290    1.4020   31.8150 C.3   967  HOQ967      0.1856
     12  C8        15.9520    0.3220   30.6680 C.2   967  HOQ967      0.3811
     13  O81       14.9340    0.3210   29.9380 O.co2 967  HOQ967     -0.2441
     14  O82       16.9290   -0.4560   30.5750 O.co2 967  HOQ967     -0.2441
     15  N7        17.3890    1.6590   32.2650 N.3   967  HOQ967     -0.1975
     16  C9        18.5320    4.3120   31.2040 C.3   967  HOQ967      0.0335
     17  C10       19.9970    3.2910   32.9600 C.3   967  HOQ967      0.0335
@<TRIPOS>BOND
     1    13    12   ar
     2    14    12   ar
     3    12    11    1
     4    16     4    1
     5    11    15    1
     6    11     8    1
     7    15     6    1
     8     4    17    1
     9     4     5    1
    10     4     3    1
    11     9     8    1
    12     8    10    1
    13     8     7    1
    14     3     6    1
    15     3     1    1
    16     6     7    1
    17     1     2    2
