@<TRIPOS>MOLECULE
1k5d_GNP_A_1.pdb
 32 34 0 0 0
SMALL
GASTEIGER

@<TRIPOS>ATOM
      1  PG        -3.4040   -1.5530  -19.0470 P.3   1250  GNP1250     0.4884
      2  O1G       -4.4230   -1.1490  -20.0220 O.2   1250  GNP1250    -0.2331
      3  O2G       -3.5460   -2.9790  -18.7860 O.3   1250  GNP1250    -0.1240
      4  O3G       -3.8460   -0.8800  -17.7220 O.3   1250  GNP1250    -0.1240
      5  N3B       -1.8590   -1.0210  -19.3610 N.3   1250  GNP1250    -0.0163
      6  PB        -1.1530   -0.9450  -20.8650 P.3   1250  GNP1250     0.4669
      7  O1B       -0.2050   -2.0150  -21.1280 O.3   1250  GNP1250    -0.1253
      8  O2B       -2.0960   -0.7550  -21.9880 O.2   1250  GNP1250    -0.2351
      9  O3A       -0.2160    0.3780  -20.8700 O.3   1250  GNP1250    -0.2360
     10  PA        -0.1710    1.5750  -21.9920 P.3   1250  GNP1250     0.2220
     11  O1A       -0.1100    0.9690  -23.3470 O.2   1250  GNP1250    -0.5170
     12  O2A       -1.2770    2.5330  -21.6970 O.3   1250  GNP1250    -0.4370
     13  O5'        1.2570    2.2920  -21.6890 O.3   1250  GNP1250    -0.3111
     14  C5'        1.4200    3.0190  -20.4550 C.3   1250  GNP1250     0.1813
     15  C4'        2.6150    3.9780  -20.4980 C.3   1250  GNP1250     0.1799
     16  O4'        3.7910    3.3430  -21.0410 O.3   1250  GNP1250    -0.3326
     17  C3'        2.3540    5.2410  -21.3270 C.3   1250  GNP1250     0.2158
     18  O3'        2.7940    6.4010  -20.5770 O.3   1250  GNP1250    -0.2175
     19  C2'        3.2670    5.0030  -22.5670 C.3   1250  GNP1250     0.2310
     20  O2'        3.7210    6.2530  -23.1130 O.3   1250  GNP1250    -0.2158
     21  C1'        4.4360    4.2520  -21.9220 C.3   1250  GNP1250     0.2293
     22  N9         5.2310    3.5050  -22.9190 N.pl3 1250  GNP1250    -0.2354
     23  C8         4.8350    2.4870  -23.7780 C.3   1250  GNP1250     0.2246
     24  N7         5.7640    2.0580  -24.5840 N.2   1250  GNP1250    -0.2322
     25  C5         6.9270    2.6740  -24.0900 C.2   1250  GNP1250     0.2182
     26  C6         8.3280    2.4900  -24.4260 C.1   1250  GNP1250     0.2372
     27  O6         8.8410    1.6640  -25.1760 O.2   1250  GNP1250    -0.2069
     28  N1         9.1520    3.3980  -23.7800 N.2   1250  GNP1250    -0.2485
     29  C2         8.7320    4.3840  -22.9260 C.1   1250  GNP1250     0.2531
     30  N2         9.6120    5.3220  -22.5300 N.pl3 1250  GNP1250    -0.0226
     31  N3         7.4430    4.4500  -22.4660 N.2   1250  GNP1250    -0.3074
     32  C4         6.5930    3.6060  -23.1120 C.2   1250  GNP1250     0.2300
@<TRIPOS>BOND
     1    27    26    2
     2    24    25    2
     3    24    23    1
     4    26    25    1
     5    26    28    2
     6    25    32    1
     7    28    29    2
     8    23    22    1
     9    11    10    2
    10    20    19    1
    11    32    22    1
    12    32    31    2
    13    29    30    1
    14    29    31    2
    15    22    21    1
    16    19    21    1
    17    19    17    1
    18    10    12    1
    19    10    13    1
    20    10     9    1
    21     8     6    2
    22    21    16    1
    23    13    14    1
    24    17    18    1
    25    17    15    1
    26     7     6    1
    27    16    15    1
    28     9     6    1
    29     6     5    1
    30    15    14    1
    31     2     1    2
    32     5     1    1
    33     1     3    1
    34     1     4    1
