@<TRIPOS>MOLECULE
1k5g_GDP_A_1.pdb
 28 30 0 0 0
SMALL
GASTEIGER

@<TRIPOS>ATOM
      1  PB        -1.2130   -0.2000  -20.8170 P.3   1250  GDP1250     0.5373
      2  O1B       -0.8940   -1.4940  -21.3910 O.2   1250  GDP1250    -0.2221
      3  O2B       -2.5900    0.2800  -21.1160 O.3   1250  GDP1250    -0.1143
      4  O3B       -0.9950   -0.2220  -19.3030 O.3   1250  GDP1250    -0.1143
      5  O3A       -0.0900    0.9040  -21.1370 O.3   1250  GDP1250    -0.2261
      6  PA        -0.4720    2.3170  -21.7520 P.3   1250  GDP1250     0.2231
      7  O1A       -0.6530    2.0480  -23.1820 O.2   1250  GDP1250    -0.5169
      8  O2A       -1.5820    2.9680  -21.0520 O.3   1250  GDP1250    -0.4370
      9  O5'        0.8640    3.1200  -21.6410 O.3   1250  GDP1250    -0.3111
     10  C5'        1.2620    3.5210  -20.3820 C.3   1250  GDP1250     0.1813
     11  C4'        2.3520    4.5820  -20.3250 C.3   1250  GDP1250     0.1799
     12  O4'        3.6180    4.1800  -20.8540 O.3   1250  GDP1250    -0.3326
     13  C3'        1.9930    5.8790  -21.0350 C.3   1250  GDP1250     0.2158
     14  O3'        2.3990    6.9180  -20.1410 O.3   1250  GDP1250    -0.2175
     15  C2'        2.8740    5.7730  -22.2850 C.3   1250  GDP1250     0.2310
     16  O2'        3.2460    7.0320  -22.8930 O.3   1250  GDP1250    -0.2158
     17  C1'        4.0930    5.0710  -21.8120 C.3   1250  GDP1250     0.2293
     18  N9         4.7900    4.2850  -22.7960 N.pl3 1250  GDP1250    -0.2354
     19  C8         4.3350    3.3570  -23.6390 C.3   1250  GDP1250     0.2246
     20  N7         5.2190    2.8210  -24.4070 N.2   1250  GDP1250    -0.2322
     21  C5         6.3730    3.4380  -24.0530 C.2   1250  GDP1250     0.2182
     22  C6         7.7500    3.2870  -24.5360 C.1   1250  GDP1250     0.2372
     23  O6         8.2180    2.5350  -25.4140 O.2   1250  GDP1250    -0.2069
     24  N1         8.6460    4.1560  -23.8700 N.2   1250  GDP1250    -0.2485
     25  C2         8.2960    5.0420  -22.8810 C.1   1250  GDP1250     0.2531
     26  N2         9.2560    5.7810  -22.3710 N.pl3 1250  GDP1250    -0.0226
     27  N3         7.0070    5.1690  -22.4340 N.2   1250  GDP1250    -0.3074
     28  C4         6.1130    4.3470  -23.0580 C.2   1250  GDP1250     0.2300
@<TRIPOS>BOND
     1    23    22    2
     2    22    21    1
     3    22    24    2
     4    20    21    2
     5    20    19    1
     6    21    28    1
     7    24    25    2
     8    19    18    1
     9     7     6    2
    10    28    18    1
    11    28    27    2
    12    16    15    1
    13    25    27    2
    14    25    26    1
    15    18    17    1
    16    15    17    1
    17    15    13    1
    18    17    12    1
    19     6     9    1
    20     6     5    1
    21     6     8    1
    22     9    10    1
    23     2     1    2
    24     5     1    1
    25     3     1    1
    26    13    11    1
    27    13    14    1
    28    12    11    1
    29     1     4    1
    30    10    11    1
