@<TRIPOS>MOLECULE
1k5q_PAC_B_1.pdb
 10 10 0 0 0
SMALL
GASTEIGER

@<TRIPOS>ATOM
      1  C1        -0.0770   -1.4590    0.6170 C.2   559  PAC559      0.3692
      2  C2        -0.6430   -2.8530    0.6040 C.3   559  PAC559      0.1404
      3  C1'       -1.8180   -2.9730    1.5450 C.ar  559  PAC559     -0.0109
      4  C2'       -1.6350   -3.6330    2.7510 C.ar  559  PAC559     -0.0037
      5  C3'       -2.6960   -3.7730    3.6350 C.ar  559  PAC559     -0.0003
      6  C4'       -3.9400   -3.2480    3.3090 C.ar  559  PAC559     -0.0000
      7  C5'       -4.1220   -2.5880    2.1010 C.ar  559  PAC559     -0.0003
      8  C6'       -3.0620   -2.4500    1.2150 C.ar  559  PAC559     -0.0037
      9  O1        -0.4440   -0.5770   -0.3130 O.co2 559  PAC559     -0.2453
     10  O2         0.6850   -1.1360    1.5120 O.co2 559  PAC559     -0.2453
@<TRIPOS>BOND
     1     9     1   ar
     2     2     1    1
     3     2     3    1
     4     1    10   ar
     5     8     3   ar
     6     8     7   ar
     7     3     4   ar
     8     7     6   ar
     9     4     5   ar
    10     6     5   ar
