@<TRIPOS>MOLECULE
1k5s_GRO_B_1.pdb
 11 11 0 0 0
SMALL
GASTEIGER

@<TRIPOS>ATOM
      1  O2        -1.8730   -1.0040   -1.4420 O.co2 601  GRO601     -0.2453
      2  C1        -1.0150   -0.5650   -0.6830 C.2   601  GRO601      0.3683
      3  O1        -0.2750    0.3370   -1.0360 O.co2 601  GRO601     -0.2453
      4  C2        -0.8280   -1.1080    0.7020 C.3   601  GRO601      0.1256
      5  C3         0.3470   -2.0820    0.7310 C.3   601  GRO601      0.0166
      6  C1'       -2.0630   -1.7280    1.2500 C.ar  601  GRO601     -0.0118
      7  C6'       -2.8150   -1.0090    2.1750 C.ar  601  GRO601     -0.0037
      8  C5'       -3.9590   -1.5540    2.7270 C.ar  601  GRO601     -0.0003
      9  C4'       -4.3560   -2.8310    2.3660 C.ar  601  GRO601     -0.0000
     10  C3'       -3.6070   -3.5670    1.4470 C.ar  601  GRO601     -0.0003
     11  C2'       -2.4510   -3.0160    0.8890 C.ar  601  GRO601     -0.0037
@<TRIPOS>BOND
     1     1     2   ar
     2     3     2   ar
     3     2     4    1
     4     4     5    1
     5     4     6    1
     6    11     6   ar
     7    11    10   ar
     8     6     7   ar
     9    10     9   ar
    10     7     8   ar
    11     9     8   ar
