@<TRIPOS>MOLECULE
1k6c_MK1_B_1.pdb
 45 49 0 0 0
SMALL
GASTEIGER

@<TRIPOS>ATOM
      1  N1         3.2570   -5.4410   16.1630 N.3   902  MK1902     -0.2661
      2  C1         4.6680   -5.2080   15.6870 C.3   902  MK1902      0.0980
      3  C2         5.4710   -4.0700   16.3040 C.3   902  MK1902      0.1527
      4  C3         6.8220   -4.0520   15.6490 C.2   902  MK1902      0.2572
      5  O1         6.9300   -3.5390   14.5320 O.2   902  MK1902     -0.2718
      6  N2         7.8690   -4.6000   16.3290 N.am  902  MK1902     -0.2077
      7  C4         9.2810   -4.7300   15.9960 C.3   902  MK1902      0.0788
      8  C5         9.9750   -5.4710   17.1500 C.3   902  MK1902      0.0217
      9  C6         9.9180   -3.4980   15.8420 C.3   902  MK1902      0.0217
     10  C7         9.5520   -5.5330   14.7940 C.3   902  MK1902      0.0217
     11  N3         4.5920   -2.8780   15.9820 N.3   902  MK1902     -0.2619
     12  C8         3.1280   -2.9740   16.3070 C.3   902  MK1902      0.0901
     13  C9         2.5030   -4.2940   15.8350 C.3   902  MK1902      0.0899
     14  C10        5.0790   -1.5860   16.4960 C.3   902  MK1902      0.1057
     15  C11        5.1070   -0.4850   15.4430 C.3   902  MK1902      0.1684
     16  O2         5.1220    0.5580   16.3690 O.3   902  MK1902     -0.2216
     17  C12        6.3240   -0.2320   14.5380 C.3   902  MK1902      0.0438
     18  C13        6.2700    0.8700   13.4720 C.3   902  MK1902      0.0851
     19  C14        7.6060    0.9590   12.6720 C.3   902  MK1902      0.0356
     20  C15        7.6000    1.9920   11.5890 C.ar  902  MK1902     -0.0217
     21  C16        7.4220    3.3780   11.8960 C.ar  902  MK1902     -0.0043
     22  C17        7.4040    4.3340   10.8500 C.ar  902  MK1902     -0.0003
     23  C18        7.5650    3.8960    9.4960 C.ar  902  MK1902     -0.0000
     24  C19        7.7440    2.5130    9.1910 C.ar  902  MK1902     -0.0003
     25  C20        7.7600    1.5670   10.2430 C.ar  902  MK1902     -0.0043
     26  C21        5.0920    0.6470   12.4780 C.2   902  MK1902      0.2416
     27  O3         4.7680   -0.4980   12.0830 O.2   902  MK1902     -0.2733
     28  N4         4.5110    1.7690   12.0600 N.am  902  MK1902     -0.2001
     29  C22        3.4330    1.8060   11.0760 C.3   902  MK1902      0.1477
     30  C23        3.3590    3.1720   10.3930 C.3   902  MK1902      0.1802
     31  O4         3.7700    4.2120   11.2840 O.3   902  MK1902     -0.2206
     32  C24        1.9360    3.3040    9.9120 C.3   902  MK1902      0.0611
     33  C25        0.9990    2.5900   10.8420 C.ar  902  MK1902     -0.0218
     34  C26       -0.3540    2.6130   11.1430 C.ar  902  MK1902     -0.0044
     35  C27       -0.8350    1.7260   12.1380 C.ar  902  MK1902     -0.0003
     36  C28        0.0480    0.8370   12.8270 C.ar  902  MK1902     -0.0003
     37  C29        1.4230    0.7970   12.5400 C.ar  902  MK1902     -0.0029
     38  C30        1.9880    1.6230   11.5920 C.ar  902  MK1902     -0.0040
     39  C31        2.6450   -6.6790   15.6730 C.3   902  MK1902      0.1008
     40  C32        3.2420   -8.0430   16.0480 C.ar  902  MK1902      0.0130
     41  C33        3.2830   -8.5380   17.3800 C.ar  902  MK1902      0.0959
     42  N5         3.8350   -9.8040   17.7710 N.ar  902  MK1902     -0.2426
     43  C34        4.3530  -10.5370   16.6670 C.ar  902  MK1902      0.0989
     44  C35        4.3410  -10.1010   15.3220 C.ar  902  MK1902      0.0204
     45  C36        3.7770   -8.8330   15.0110 C.ar  902  MK1902      0.0002
@<TRIPOS>BOND
     1    24    23   ar
     2    24    25   ar
     3    23    22   ar
     4    32    30    1
     5    32    33    1
     6    25    20   ar
     7    30    29    1
     8    30    31    1
     9    33    34   ar
    10    33    38   ar
    11    22    21   ar
    12    29    38    1
    13    29    28    1
    14    34    35   ar
    15    20    21   ar
    16    20    19    1
    17    38    37   ar
    18    28    26   am
    19    27    26    2
    20    35    36   ar
    21    26    18    1
    22    37    36   ar
    23    19    18    1
    24    18    17    1
    25     5     4    2
    26    17    15    1
    27    10     7    1
    28    45    44   ar
    29    45    40   ar
    30    44    43   ar
    31    15    16    1
    32    15    14    1
    33     4     3    1
    34     4     6   am
    35    39    40    1
    36    39     1    1
    37     2     1    1
    38     2     3    1
    39    13     1    1
    40    13    12    1
    41     9     7    1
    42    11     3    1
    43    11    12    1
    44    11    14    1
    45     7     6    1
    46     7     8    1
    47    40    41   ar
    48    43    42   ar
    49    41    42   ar
