@<TRIPOS>MOLECULE
1k6l_SPN_M_1.pdb
 43 42 0 0 0
SMALL
GASTEIGER

@<TRIPOS>ATOM
      1  CMA       43.3420   84.8040   55.8150 C.3   600  SPN600      0.1745
      2  O1        44.1510   86.0810   55.9770 O.3   600  SPN600     -0.3486
      3  CM1       46.1080   87.5520   55.4320 C.3   600  SPN600      0.0376
      4  CM2       46.2400   85.1040   54.9290 C.3   600  SPN600      0.0376
      5  C1        45.3020   86.3160   55.0140 C.3   600  SPN600      0.1476
      6  C2        44.6410   86.5490   53.6610 C.2   600  SPN600      0.1969
      7  O2        45.2630   86.3920   52.6050 O.2   600  SPN600     -0.2889
      8  C3        43.1540   87.1250   53.4840 C.2   600  SPN600      0.0353
      9  C4        42.9890   88.0640   52.4490 C.2   600  SPN600     -0.0231
     10  C5        41.5920   88.6560   52.1920 C.3   600  SPN600      0.0265
     11  CM3       40.7370   89.1530   53.3870 C.3   600  SPN600      0.0050
     12  C6        41.5710   89.3690   50.9870 C.3   600  SPN600      0.0300
     13  C7        40.2660   89.9970   50.4860 C.2   600  SPN600     -0.0304
     14  C8        40.3200   90.5740   49.2120 C.2   600  SPN600     -0.0310
     15  C9        39.0450   91.1850   48.6330 C.3   600  SPN600      0.0217
     16  CM4       37.8340   91.5270   49.5310 C.3   600  SPN600      0.0047
     17  C10       39.2390   91.7970   47.4030 C.3   600  SPN600      0.0047
     18  C11       38.0400   92.4220   46.6730 C.3   600  SPN600      0.0047
     19  C12       38.4190   93.0070   45.4590 C.3   600  SPN600      0.0220
     20  C13       37.3550   93.7000   44.6200 C.2   600  SPN600     -0.0439
     21  CM5       35.8840   93.6820   45.0890 C.3   600  SPN600      0.0264
     22  C14       37.8770   94.4690   43.5780 C.2   600  SPN600     -0.0085
     23  C15       36.8420   95.2260   42.7440 C.2   600  SPN600     -0.0007
     24  C16       37.2610   96.0880   41.7390 C.2   600  SPN600     -0.0007
     25  C17       38.7240   96.2910   41.4420 C.2   600  SPN600     -0.0085
     26  C18       39.1450   97.0720   40.3780 C.2   600  SPN600     -0.0439
     27  CM6       38.2900   97.5890   39.2180 C.3   600  SPN600      0.0264
     28  C19       40.6780   97.1090   40.2870 C.3   600  SPN600      0.0220
     29  C20       41.2520   97.6990   39.1720 C.3   600  SPN600      0.0043
     30  C21       42.7760   97.6460   39.1910 C.3   600  SPN600      0.0003
     31  C22       43.5290   98.1670   38.1510 C.3   600  SPN600      0.0000
     32  CM7       43.0350   98.4990   36.7420 C.3   600  SPN600      0.0000
     33  C23       45.0350   98.3760   38.3990 C.3   600  SPN600      0.0000
     34  C24       45.4570   99.8010   38.1000 C.3   600  SPN600      0.0000
     35  C25       46.9290  100.0610   38.4470 C.3   600  SPN600      0.0000
     36  C26       47.4300  100.9550   39.4090 C.3   600  SPN600      0.0003
     37  CM8       46.6270  102.2080   39.8080 C.3   600  SPN600      0.0000
     38  C27       48.9540  101.1340   39.6250 C.3   600  SPN600      0.0046
     39  C28       49.6510  101.2090   38.2740 C.3   600  SPN600      0.0254
     40  C29       51.1520  101.5500   38.3750 C.2   600  SPN600     -0.0346
     41  C30       52.0650  101.3790   37.3190 C.2   600  SPN600     -0.0478
     42  CM9       51.6390  100.8390   35.9360 C.3   600  SPN600      0.0260
     43  CMB       53.5590  101.7420   37.4120 C.3   600  SPN600      0.0260
@<TRIPOS>BOND
     1    42    41    1
     2    32    31    1
     3    41    43    1
     4    41    40    2
     5    34    33    1
     6    34    35    1
     7    31    33    1
     8    31    30    1
     9    39    40    1
    10    39    38    1
    11    35    36    1
    12    29    30    1
    13    29    28    1
    14    27    26    1
    15    36    38    1
    16    36    37    1
    17    28    26    1
    18    26    25    2
    19    25    24    1
    20    24    23    2
    21    23    22    1
    22    22    20    2
    23    20    21    1
    24    20    19    1
    25    19    18    1
    26    18    17    1
    27    17    15    1
    28    15    14    1
    29    15    16    1
    30    14    13    2
    31    13    12    1
    32    12    10    1
    33    10     9    1
    34    10    11    1
    35     9     8    2
    36     7     6    2
    37     8     6    1
    38     6     5    1
    39     4     5    1
    40     5     3    1
    41     5     2    1
    42     1     2    1
