@<TRIPOS>MOLECULE
1k6l_U10_L_1.pdb
 48 48 0 0 0
SMALL
GASTEIGER

@<TRIPOS>ATOM
      1  C1        36.0680   75.5590   33.0640 C.2   502  U10502      0.0198
      2  C2        36.4750   74.3750   32.3250 C.2   502  U10502      0.2282
      3  C3        36.1580   74.2500   30.9260 C.2   502  U10502      0.2140
      4  C4        35.4120   75.1930   30.3220 C.2   502  U10502      0.2140
      5  C5        34.9370   76.3360   31.0760 C.2   502  U10502      0.2285
      6  C6        35.3360   76.5270   32.4590 C.2   502  U10502      0.0235
      7  C1M       36.5500   75.6740   34.5090 C.3   502  U10502      0.0343
      8  C3M       36.8020   72.9010   28.8610 C.3   502  U10502      0.2528
      9  C4M       35.8710   76.2860   28.1100 C.3   502  U10502      0.2528
     10  C7        35.0120   77.8780   33.1990 C.3   502  U10502      0.0548
     11  C8        33.8990   77.8140   34.1530 C.2   502  U10502     -0.0298
     12  C9        33.7920   78.2410   35.4780 C.2   502  U10502     -0.0475
     13  C10       34.9270   78.9220   36.3060 C.3   502  U10502      0.0260
     14  C11       32.4850   78.0750   36.2640 C.3   502  U10502      0.0264
     15  C12       32.6670   77.6160   37.7040 C.3   502  U10502      0.0297
     16  C13       31.4630   77.8860   38.4590 C.2   502  U10502     -0.0342
     17  C14       31.2830   78.4380   39.7290 C.2   502  U10502     -0.0478
     18  C15       32.4520   78.8620   40.6720 C.3   502  U10502      0.0260
     19  C16       29.8770   78.6950   40.3430 C.3   502  U10502      0.0263
     20  C17       29.2780   80.0600   39.9530 C.3   502  U10502      0.0297
     21  C18       28.3700   80.4670   40.9360 C.2   502  U10502     -0.0342
     22  C19       28.5800   81.1380   42.1270 C.2   502  U10502     -0.0478
     23  C20       29.9550   81.7030   42.5610 C.3   502  U10502      0.0260
     24  C21       27.4220   81.4250   43.1410 C.3   502  U10502      0.0263
     25  C22       27.4800   80.5650   44.4350 C.3   502  U10502      0.0297
     26  C23       26.1550   80.5040   45.2030 C.2   502  U10502     -0.0342
     27  C24       25.6770   79.5650   46.1260 C.2   502  U10502     -0.0478
     28  C25       26.4670   78.3040   46.5720 C.3   502  U10502      0.0260
     29  C26       24.2940   79.6750   46.8060 C.3   502  U10502      0.0263
     30  C27       23.6980   78.3100   47.1910 C.3   502  U10502      0.0297
     31  C28       22.2750   78.4090   47.7530 C.2   502  U10502     -0.0342
     32  C29       21.7740   78.9670   48.9430 C.2   502  U10502     -0.0478
     33  C30       22.6570   79.6830   49.9940 C.3   502  U10502      0.0260
     34  C31       20.2560   78.9610   49.3430 C.3   502  U10502      0.0263
     35  C32       19.5430   80.2780   48.9710 C.3   502  U10502      0.0297
     36  C33       18.6010   80.8110   50.0320 C.2   502  U10502     -0.0342
     37  C34       18.5100   82.0810   50.6300 C.2   502  U10502     -0.0478
     38  C35       19.5020   83.2470   50.3440 C.3   502  U10502      0.0260
     39  C36       17.4040   82.4280   51.6970 C.3   502  U10502      0.0263
     40  C37       17.2720   83.9270   52.0250 C.3   502  U10502      0.0297
     41  C38       16.4550   84.1920   53.2800 C.2   502  U10502     -0.0342
     42  C39       16.0120   85.4010   53.8360 C.2   502  U10502     -0.0478
     43  C40       16.2600   86.7880   53.2130 C.3   502  U10502      0.0260
     44  C41       15.2070   85.5160   55.1320 C.3   502  U10502      0.0260
     45  O2        37.1220   73.5060   32.8630 O.2   502  U10502     -0.2836
     46  O3        36.9580   73.2320   30.2200 O.2   502  U10502     -0.4652
     47  O4        35.3120   75.2780   28.8660 O.2   502  U10502     -0.4652
     48  O5        34.1770   77.1520   30.5420 O.2   502  U10502     -0.2835
@<TRIPOS>BOND
     1     9    47    1
     2     8    46    1
     3    47     4    1
     4    46     3    1
     5     4     3    2
     6     4     5    1
     7    48     5    2
     8     3     2    1
     9     5     6    1
    10     2    45    2
    11     2     1    1
    12     6     1    2
    13     6    10    1
    14     1     7    1
    15    10    11    1
    16    11    12    2
    17    12    14    1
    18    12    13    1
    19    14    15    1
    20    15    16    1
    21    16    17    2
    22    17    19    1
    23    17    18    1
    24    20    19    1
    25    20    21    1
    26    21    22    2
    27    22    23    1
    28    22    24    1
    29    24    25    1
    30    25    26    1
    31    26    27    2
    32    27    28    1
    33    27    29    1
    34    29    30    1
    35    30    31    1
    36    31    32    2
    37    32    34    1
    38    32    33    1
    39    35    34    1
    40    35    36    1
    41    36    37    2
    42    38    37    1
    43    37    39    1
    44    39    40    1
    45    40    41    1
    46    43    42    1
    47    41    42    2
    48    42    44    1
