@<TRIPOS>MOLECULE
1k6m_AGS_A_1.pdb
 37 39 0 0 0
SMALL
GASTEIGER

@<TRIPOS>ATOM
      1  PG       -18.6210   43.7350   29.3770 P.3   503  AGS503      0.4340
      2  S1G      -19.9150   44.8320   28.8780 S.3   503  AGS503      0.0416
      3  O2G      -19.0920   42.2850   29.2350 O.3   503  AGS503     -0.1305
      4  O3G      -17.3220   44.0820   28.6900 O.2   503  AGS503     -0.2423
      5  PB       -18.2710   42.7550   32.1380 P.3   503  AGS503      0.2262
      6  O1B      -19.3980   41.8740   31.7950 O.2   503  AGS503     -0.5168
      7  O2B      -16.9850   42.2280   32.5620 O.3   503  AGS503     -0.4369
      8  O3B      -18.2720   43.9180   30.9750 O.3   503  AGS503     -0.2405
      9  PA       -19.4640   44.7130   33.5260 P.3   503  AGS503      0.2182
     10  O1A      -18.3950   45.7750   33.4270 O.3   503  AGS503     -0.4371
     11  O2A      -20.5840   44.7460   32.5330 O.2   503  AGS503     -0.5170
     12  O3A      -18.7060   43.3050   33.4750 O.3   503  AGS503     -0.2701
     13  O5'      -20.0960   44.6260   34.9800 O.3   503  AGS503     -0.3242
     14  C5'      -20.5390   45.7460   35.6170 C.3   503  AGS503      0.0895
     15  C4'      -20.6880   45.3220   37.0620 C.3   503  AGS503      0.1597
     16  O4'      -19.5130   44.9080   37.6280 O.3   503  AGS503     -0.3153
     17  C3'      -21.2400   46.4230   38.0160 C.3   503  AGS503      0.1219
     18  O3'      -22.1740   45.7600   38.8850 O.3   503  AGS503     -0.3859
     19  C2'      -20.0200   46.6800   38.9040 C.3   503  AGS503      0.1582
     20  O2'      -20.3150   46.9060   40.2920 O.3   503  AGS503     -0.3819
     21  C1'      -19.4270   45.3110   38.9190 C.3   503  AGS503      0.3079
     22  N9       -18.0280   45.2730   39.3400 N.pl3 503  AGS503     -0.1443
     23  C8       -17.0330   46.2450   39.3090 C.3   503  AGS503      0.3377
     24  N7       -15.7950   45.8890   39.7270 N.2   503  AGS503     -0.2095
     25  C5       -15.9640   44.5640   40.0510 C.2   503  AGS503      0.2526
     26  C6       -15.0610   43.4980   40.4390 C.2   503  AGS503      0.4393
     27  N6       -13.5950   43.6790   40.5920 N.pl3 503  AGS503      0.2180
     28  N1       -15.5890   42.2350   40.5430 N.2   503  AGS503      0.0021
     29  C2       -16.9120   41.9880   40.3450 C.3   503  AGS503      0.5254
     30  N3       -17.8430   42.8950   39.9640 N.2   503  AGS503     -0.0055
     31  C4       -17.3450   44.1690   39.8580 C.2   503  AGS503      0.3518
     32 H5'1      -21.4590   46.0800   35.1560 H     503  AGS503      0.0595
     33 H5'2      -19.7710   46.5090   35.5270 H     503  AGS503      0.0595
     34  H3'      -21.7040   47.2600   37.5030 H     503  AGS503      0.0652
     35 HO3'      -22.8490   45.3180   38.3280 H     503  AGS503      0.2100
     36  H2'      -19.3580   47.4220   38.4320 H     503  AGS503      0.0693
     37 HO2'      -19.4670   47.1580   40.6940 H     503  AGS503      0.2102
@<TRIPOS>BOND
     1     4     1    2
     2     2     1    1
     3     3     1    1
     4     1     8    1
     5     8     5    1
     6     6     5    2
     7     5     7    1
     8     5    12    1
     9    11     9    2
    10    10     9    1
    11    12     9    1
    12     9    13    1
    13    13    14    1
    14    32    14    1
    15    33    14    1
    16    14    15    1
    17    15    16    1
    18    15    17    1
    19    34    17    1
    20    16    21    1
    21    17    18    1
    22    17    19    1
    23    35    18    1
    24    36    19    1
    25    19    21    1
    26    19    20    1
    27    21    22    1
    28    23    22    1
    29    23    24    1
    30    22    31    1
    31    24    25    2
    32    31    30    2
    33    31    25    1
    34    30    29    1
    35    25    26    1
    36    20    37    1
    37    29    28    1
    38    26    28    2
    39    26    27    1
