@<TRIPOS>MOLECULE
1k6n_SPN_M_1.pdb
 43 42 0 0 0
SMALL
GASTEIGER

@<TRIPOS>ATOM
      1  CMA       43.1950   84.8930   55.8570 C.3   600  SPN600      0.1745
      2  O1        44.0040   86.1700   56.0210 O.3   600  SPN600     -0.3486
      3  CM1       45.9640   87.6400   55.4840 C.3   600  SPN600      0.0376
      4  CM2       46.0970   85.1910   54.9840 C.3   600  SPN600      0.0376
      5  C1        45.1590   86.4040   55.0630 C.3   600  SPN600      0.1476
      6  C2        44.5050   86.6340   53.7070 C.2   600  SPN600      0.1969
      7  O2        45.1310   86.4760   52.6540 O.2   600  SPN600     -0.2889
      8  C3        43.0190   87.2120   53.5220 C.2   600  SPN600      0.0353
      9  C4        42.8590   88.1490   52.4860 C.2   600  SPN600     -0.0231
     10  C5        41.4630   88.7410   52.2210 C.3   600  SPN600      0.0265
     11  CM3       40.6030   89.2410   53.4120 C.3   600  SPN600      0.0050
     12  C6        41.4480   89.4530   51.0150 C.3   600  SPN600      0.0300
     13  C7        40.1460   90.0810   50.5070 C.2   600  SPN600     -0.0304
     14  C8        40.2060   90.6560   49.2330 C.2   600  SPN600     -0.0310
     15  C9        38.9340   91.2670   48.6470 C.3   600  SPN600      0.0220
     16  CM4       37.7200   91.6110   49.5400 C.3   600  SPN600      0.0047
     17  C10       39.1340   91.8780   47.4170 C.3   600  SPN600      0.0090
     18  C11       37.9390   92.5020   46.6810 C.3   600  SPN600      0.0260
     19  C12       38.3240   93.0860   45.4680 C.2   600  SPN600     -0.0304
     20  C13       37.2640   93.7780   44.6230 C.2   600  SPN600     -0.0261
     21  CM5       35.7910   93.7610   45.0850 C.3   600  SPN600      0.0307
     22  C14       37.7910   94.5450   43.5820 C.2   600  SPN600     -0.0046
     23  C15       36.7600   95.3020   42.7430 C.2   600  SPN600     -0.0003
     24  C16       37.1840   96.1620   41.7390 C.2   600  SPN600     -0.0003
     25  C17       38.6490   96.3640   41.4480 C.2   600  SPN600     -0.0046
     26  C18       39.0750   97.1440   40.3850 C.2   600  SPN600     -0.0261
     27  CM6       38.2260   97.6590   39.2210 C.3   600  SPN600      0.0307
     28  C19       40.6090   97.1800   40.3010 C.2   600  SPN600     -0.0304
     29  C20       41.1880   97.7670   39.1880 C.3   600  SPN600      0.0257
     30  C21       42.7120   97.7140   39.2140 C.3   600  SPN600      0.0047
     31  C22       43.4700   98.2330   38.1770 C.3   600  SPN600      0.0003
     32  CM7       42.9820   98.5640   36.7650 C.3   600  SPN600      0.0000
     33  C23       44.9750   98.4420   38.4320 C.3   600  SPN600      0.0000
     34  C24       45.3990   99.8660   38.1320 C.3   600  SPN600      0.0000
     35  C25       46.8700  100.1260   38.4860 C.3   600  SPN600      0.0000
     36  C26       47.3660  101.0200   39.4490 C.3   600  SPN600      0.0003
     37  CM8       46.5620  102.2750   39.8420 C.3   600  SPN600      0.0000
     38  C27       48.8890  101.1990   39.6720 C.3   600  SPN600      0.0046
     39  C28       49.5930  101.2720   38.3240 C.3   600  SPN600      0.0254
     40  C29       51.0940  101.6130   38.4310 C.2   600  SPN600     -0.0346
     41  C30       52.0120  101.4390   37.3800 C.2   600  SPN600     -0.0478
     42  CM9       51.5920  100.8980   35.9960 C.3   600  SPN600      0.0260
     43  CMB       53.5060  101.8020   37.4790 C.3   600  SPN600      0.0260
@<TRIPOS>BOND
     1    42    41    1
     2    32    31    1
     3    41    43    1
     4    41    40    2
     5    34    33    1
     6    34    35    1
     7    31    33    1
     8    31    30    1
     9    39    40    1
    10    39    38    1
    11    35    36    1
    12    29    30    1
    13    29    28    1
    14    27    26    1
    15    36    38    1
    16    36    37    1
    17    28    26    2
    18    26    25    1
    19    25    24    2
    20    24    23    1
    21    23    22    2
    22    22    20    1
    23    20    21    1
    24    20    19    2
    25    19    18    1
    26    18    17    1
    27    17    15    1
    28    15    14    1
    29    15    16    1
    30    14    13    2
    31    13    12    1
    32    12    10    1
    33    10     9    1
    34    10    11    1
    35     9     8    2
    36     7     6    2
    37     8     6    1
    38     6     5    1
    39     4     5    1
    40     5     3    1
    41     5     2    1
    42     1     2    1
