@<TRIPOS>MOLECULE
1k6n_U10_L_1.pdb
 48 48 0 0 0
SMALL
GASTEIGER

@<TRIPOS>ATOM
      1  C1        35.1880   75.9400   28.5720 C.2   502  U10502      0.0198
      2  C2        34.7260   75.2950   27.3470 C.2   502  U10502      0.2282
      3  C3        34.9440   73.8710   27.0990 C.2   502  U10502      0.2140
      4  C4        35.5890   73.1850   28.0730 C.2   502  U10502      0.2140
      5  C5        36.0600   73.8060   29.2900 C.2   502  U10502      0.2285
      6  C6        35.8420   75.2330   29.5350 C.2   502  U10502      0.0235
      7  C1M       34.9210   77.4250   28.7530 C.3   502  U10502      0.0343
      8  C3M       34.7990   73.3780   24.5070 C.3   502  U10502      0.2528
      9  C4M       37.1040   71.4380   27.2050 C.3   502  U10502      0.2528
     10  C7        36.3830   75.7720   30.8520 C.3   502  U10502      0.0548
     11  C8        35.3960   76.0200   31.8800 C.2   502  U10502     -0.0298
     12  C9        35.5370   75.9000   33.2590 C.2   502  U10502     -0.0478
     13  C10       36.8300   75.4770   33.9670 C.3   502  U10502      0.0260
     14  C11       34.3960   76.2140   34.2340 C.3   502  U10502      0.0217
     15  C12       34.4460   77.6840   34.6450 C.3   502  U10502      0.0043
     16  C13       33.2830   78.0240   35.4840 C.3   502  U10502      0.0003
     17  C14       33.3920   78.7640   36.6750 C.3   502  U10502      0.0003
     18  C15       34.1910   80.0970   36.6680 C.3   502  U10502      0.0000
     19  C16       32.8330   78.4160   38.0350 C.3   502  U10502      0.0046
     20  C17       31.3690   78.0370   38.1490 C.3   502  U10502      0.0254
     21  C18       30.7350   78.7710   39.2440 C.2   502  U10502     -0.0346
     22  C19       29.7610   78.4310   40.1730 C.2   502  U10502     -0.0482
     23  C20       29.1010   77.0330   40.2590 C.3   502  U10502      0.0260
     24  C21       29.2200   79.3480   41.2700 C.3   502  U10502      0.0217
     25  C22       28.5920   80.6560   40.8410 C.3   502  U10502      0.0043
     26  C23       27.7950   81.2150   41.9360 C.3   502  U10502      0.0003
     27  C24       28.2250   82.0820   42.9470 C.3   502  U10502      0.0003
     28  C25       29.5120   82.9030   42.7730 C.3   502  U10502      0.0000
     29  C26       27.4900   82.3020   44.2690 C.3   502  U10502      0.0046
     30  C27       27.7220   81.1880   45.2860 C.3   502  U10502      0.0254
     31  C28       26.4890   80.6430   45.7780 C.2   502  U10502     -0.0342
     32  C29       25.7450   79.4880   45.8420 C.2   502  U10502     -0.0432
     33  C30       26.1930   78.1140   45.2860 C.3   502  U10502      0.0264
     34  C31       24.3610   79.3430   46.5030 C.3   502  U10502      0.0560
     35  C32       24.4250   79.7100   47.9840 C.2   502  U10502      0.0189
     36  C33       23.2570   79.5450   48.7590 C.1   502  U10502     -0.1141
     37  C34       22.3930   79.2140   49.7620 C.2   502  U10502     -0.0096
     38  C35       22.9050   78.4720   51.0140 C.3   502  U10502      0.0347
     39  C36       20.8890   79.5310   49.7410 C.3   502  U10502      0.0344
     40  C37       20.5560   80.6740   50.6810 C.3   502  U10502      0.0303
     41  C38       19.1840   81.1380   50.6830 C.2   502  U10502     -0.0342
     42  C39       18.6740   82.4310   50.8020 C.2   502  U10502     -0.0478
     43  C40       19.5460   83.6990   50.9180 C.3   502  U10502      0.0260
     44  C41       17.1800   82.7730   50.8140 C.3   502  U10502      0.0260
     45  O2        34.1330   75.8680   26.4440 O.2   502  U10502     -0.2836
     46  O3        34.4180   73.4310   25.8300 O.2   502  U10502     -0.4652
     47  O4        35.8880   71.7560   27.8780 O.2   502  U10502     -0.4652
     48  O5        36.6510   73.2340   30.2000 O.2   502  U10502     -0.2835
@<TRIPOS>BOND
     1     8    46    1
     2    46     3    1
     3    45     2    2
     4     3     2    1
     5     3     4    2
     6     9    47    1
     7     2     1    1
     8    47     4    1
     9     4     5    1
    10     1     7    1
    11     1     6    2
    12     5     6    1
    13     5    48    2
    14     6    10    1
    15    10    11    1
    16    11    12    2
    17    12    13    1
    18    12    14    1
    19    14    15    1
    20    15    16    1
    21    16    17    1
    22    18    17    1
    23    17    19    1
    24    19    20    1
    25    20    21    1
    26    21    22    2
    27    22    23    1
    28    22    24    1
    29    25    24    1
    30    25    26    1
    31    26    27    1
    32    28    27    1
    33    27    29    1
    34    29    30    1
    35    33    32    1
    36    30    31    1
    37    31    32    2
    38    32    34    1
    39    34    35    1
    40    35    36    2
    41    36    37    2
    42    39    37    1
    43    39    40    1
    44    37    38    1
    45    40    41    1
    46    41    42    2
    47    42    44    1
    48    42    43    1
