@<TRIPOS>MOLECULE
1k6p_XN3_B_1.pdb
 48 53 0 0 0
SMALL
GASTEIGER

@<TRIPOS>ATOM
      1  N1         2.9870   -5.2210   16.4330 N.3   807  XN3807     -0.2661
      2  C1         4.4240   -5.1360   15.8830 C.3   807  XN3807      0.0980
      3  C2         5.2740   -4.0030   16.4550 C.3   807  XN3807      0.1527
      4  C3         6.5890   -4.1070   15.7800 C.2   807  XN3807      0.2572
      5  O1         6.6900   -3.7170   14.5870 O.2   807  XN3807     -0.2718
      6  N2         7.6250   -4.6130   16.5050 N.am  807  XN3807     -0.2077
      7  C4         9.0440   -4.8250   16.1550 C.3   807  XN3807      0.0788
      8  C5         9.7760   -5.4670   17.3640 C.3   807  XN3807      0.0217
      9  C6         9.7310   -3.6180   15.9290 C.3   807  XN3807      0.0217
     10  C7         9.2710   -5.7280   14.9800 C.3   807  XN3807      0.0217
     11  N3         4.4080   -2.7320   16.1550 N.3   807  XN3807     -0.2619
     12  C8         2.9770   -2.7210   16.6230 C.3   807  XN3807      0.0901
     13  C9         2.3040   -3.9920   16.0890 C.3   807  XN3807      0.0899
     14  C10        5.0340   -1.4780   16.6850 C.3   807  XN3807      0.1057
     15  C11        5.0310   -0.4040   15.6520 C.3   807  XN3807      0.1684
     16  O2         5.0260    0.6510   16.5970 O.3   807  XN3807     -0.2216
     17  C12        6.2600   -0.1440   14.7950 C.3   807  XN3807      0.0438
     18  C13        6.2470    0.9680   13.7360 C.3   807  XN3807      0.0851
     19  C14        7.6760    1.0260   12.9870 C.3   807  XN3807      0.0356
     20  C15        7.7080    2.1340   11.9120 C.ar  807  XN3807     -0.0217
     21  C16        7.5640    3.5760   12.2690 C.ar  807  XN3807     -0.0043
     22  C17        7.5860    4.5810   11.2230 C.ar  807  XN3807     -0.0003
     23  C18        7.7530    4.1510    9.8110 C.ar  807  XN3807     -0.0000
     24  C19        7.8950    2.7180    9.4740 C.ar  807  XN3807     -0.0003
     25  C20        7.8720    1.7290   10.5180 C.ar  807  XN3807     -0.0043
     26  C21        5.1360    0.7420   12.6270 C.2   807  XN3807      0.2416
     27  O3         4.7740   -0.4090   12.1580 O.2   807  XN3807     -0.2733
     28  N4         4.6460    1.8950   12.2310 N.am  807  XN3807     -0.2001
     29  C22        3.6330    2.0750   11.2110 C.3   807  XN3807      0.1477
     30  C23        3.5990    3.4990   10.6770 C.3   807  XN3807      0.1802
     31  O4         3.7360    4.4530   11.7260 O.3   807  XN3807     -0.2206
     32  C24        2.3020    3.5780    9.9210 C.3   807  XN3807      0.0611
     33  C25        1.2550    2.8450   10.7180 C.ar  807  XN3807     -0.0218
     34  C26       -0.1400    2.8390   10.8590 C.ar  807  XN3807     -0.0044
     35  C27       -0.7240    1.9050   11.8050 C.ar  807  XN3807     -0.0003
     36  C28        0.1090    0.9840   12.5990 C.ar  807  XN3807     -0.0003
     37  C29        1.5180    0.9800   12.4650 C.ar  807  XN3807     -0.0029
     38  C30        2.1670    1.8480   11.5760 C.ar  807  XN3807     -0.0040
     39  C31        2.2370   -6.3570   15.8620 C.3   807  XN3807      0.0993
     40  C32        2.7850   -7.7490   16.1700 C.ar  807  XN3807     -0.0029
     41  C33        2.6270   -8.3460   17.4970 C.ar  807  XN3807      0.0004
     42  C34        3.8240  -10.3630   16.7610 C.ar  807  XN3807      0.1764
     43  C35        4.0190   -9.8410   15.4420 C.ar  807  XN3807      0.1762
     44  C36        3.4850   -8.5080   15.1320 C.ar  807  XN3807      0.0373
     45  O5         4.4180  -11.6360   16.8100 O.3   807  XN3807     -0.4346
     46  C38        5.0500  -12.0910   15.5490 C.3   807  XN3807      0.4294
     47  O6         4.7110  -10.8440   14.7730 O.3   807  XN3807     -0.4346
     48  C37        3.1340   -9.6740   17.8730 C.ar  807  XN3807      0.0399
@<TRIPOS>BOND
     1    24    23   ar
     2    24    25   ar
     3    23    22   ar
     4    32    30    1
     5    32    33    1
     6    25    20   ar
     7    30    29    1
     8    30    31    1
     9    33    34   ar
    10    33    38   ar
    11    34    35   ar
    12    29    38    1
    13    29    28    1
    14    22    21   ar
    15    38    37   ar
    16    35    36   ar
    17    20    21   ar
    18    20    19    1
    19    27    26    2
    20    28    26   am
    21    37    36   ar
    22    26    18    1
    23    19    18    1
    24    18    17    1
    25     5     4    2
    26    47    43    1
    27    47    46    1
    28    17    15    1
    29    10     7    1
    30    44    43   ar
    31    44    40   ar
    32    43    42   ar
    33    46    45    1
    34    15    16    1
    35    15    14    1
    36     4     3    1
    37     4     6   am
    38    39    40    1
    39    39     1    1
    40     2     1    1
    41     2     3    1
    42     9     7    1
    43    13     1    1
    44    13    12    1
    45    11     3    1
    46    11    12    1
    47    11    14    1
    48     7     6    1
    49     7     8    1
    50    40    41   ar
    51    42    45    1
    52    42    48   ar
    53    41    48   ar
