@<TRIPOS>MOLECULE
1k6r_MX1_A_1.pdb
 29 30 0 0 0
SMALL
GASTEIGER

@<TRIPOS>ATOM
      1  O4         0.3310    9.8530   63.0030 O.co2 300  MX1300     -0.2392
      2  C7         0.6350   10.8110   62.2610 C.2   300  MX1300      0.4008
      3  O3         1.0350   10.5910   61.0980 O.co2 300  MX1300     -0.2392
      4  C4         0.5250   12.1960   62.7690 C.2   300  MX1300      0.1378
      5  N1         1.7400   12.8780   63.0350 N.2   300  MX1300     -0.2369
      6  C5        -0.7080   12.7670   62.9660 C.3   300  MX1300      0.0763
      7  C8        -1.9890   12.0960   62.7020 C.3   300  MX1300      0.0091
      8  C6        -0.7610   14.1730   63.4890 C.3   300  MX1300      0.1505
      9  O2         0.4350   14.9350   63.2100 O.3   300  MX1300     -0.3307
     10  C3         1.6720   14.2480   63.5430 C.3   300  MX1300      0.2724
     11  C2         2.8360   15.2200   63.0090 C.3   300  MX1300      0.2774
     12  C1         3.9770   14.2890   62.4420 C.2   300  MX1300      0.2597
     13  O31        3.9720   13.7520   61.3360 O.2   300  MX1300     -0.2836
     14  O5         3.1380   15.9170   64.2360 O.3   300  MX1300     -0.3279
     15  C9         4.4340   16.4560   64.4440 C.3   300  MX1300      0.1766
     16  N2         2.3270   16.1050   61.9490 N.am  300  MX1300     -0.1699
     17  C10        3.0980   16.9520   61.1640 C.2   300  MX1300      0.2584
     18  O6         4.3510   17.0040   61.2350 O.2   300  MX1300     -0.2723
     19  C11        2.3680   17.8390   60.1500 C.3   300  MX1300      0.2032
     20  C12        3.2860   18.9410   59.6870 C.2   300  MX1300      0.3771
     21  O8         3.3170   20.0400   60.2850 O.co2 300  MX1300     -0.2448
     22  O7         4.0440   18.7420   58.7090 O.co2 300  MX1300     -0.2448
     23  C13        1.0640   18.3730   60.7070 C.ar  300  MX1300     -0.0028
     24  C14        1.0300   19.2920   61.7570 C.ar  300  MX1300      0.0000
     25  C18       -0.1550   17.9470   60.1670 C.ar  300  MX1300      0.0000
     26  C17       -1.3780   18.4210   60.6590 C.ar  300  MX1300      0.0417
     27  C16       -1.3880   19.3340   61.7050 C.ar  300  MX1300      0.1957
     28  O9        -2.5930   19.8000   62.2020 O.3   300  MX1300     -0.2866
     29  C15       -0.1880   19.7760   62.2580 C.ar  300  MX1300      0.0417
@<TRIPOS>BOND
     1    22    20   ar
     2    20    19    1
     3    20    21   ar
     4    19    23    1
     5    19    17    1
     6    25    26   ar
     7    25    23   ar
     8    26    27   ar
     9    23    24   ar
    10     3     2   ar
    11    17    18    2
    12    17    16   am
    13    13    12    2
    14    27    28    1
    15    27    29   ar
    16    24    29   ar
    17    16    11    1
    18     2     4    1
    19     2     1   ar
    20    12    11    1
    21     7     6    1
    22     4     6    1
    23     4     5    2
    24     6     8    1
    25    11    10    1
    26    11    14    1
    27     5    10    1
    28     9     8    1
    29     9    10    1
    30    14    15    1
