@<TRIPOS>MOLECULE
1k6s_IAP_A_1.pdb
 12 12 0 0 0
SMALL
GASTEIGER

@<TRIPOS>ATOM
      1  B          4.2430   14.5340   62.8660 B     300  IAP300      0.0000
      2  O1         4.3200   14.2360   61.3870 O.3   300  IAP300      0.0000
      3  O2         3.6570   13.2950   63.4820 O.3   300  IAP300      0.0000
      4  C1         3.3970   15.8370   63.1930 C.ar  300  IAP300      0.0000
      5  C2         3.7930   17.1130   62.6750 C.ar  300  IAP300      0.0000
      6  C3         3.0510   18.2830   62.9690 C.ar  300  IAP300      0.0000
      7  C4         1.9020   18.2050   63.7870 C.ar  300  IAP300      0.0000
      8  C5         1.4940   16.9280   64.3180 C.ar  300  IAP300      0.0000
      9  C6         2.2510   15.7570   64.0080 C.ar  300  IAP300      0.0000
     10  N1         0.3670   16.9170   65.1810 N.am  300  IAP300      0.0000
     11  C7        -0.1580   15.8880   65.9370 C.2   300  IAP300      0.0000
     12  O3         0.3920   14.7920   66.1830 O.2   300  IAP300      0.0000
@<TRIPOS>BOND
     1     2     1    1
     2     5     6   ar
     3     5     4   ar
     4     1     4    1
     5     1     3    1
     6     6     7   ar
     7     4     9   ar
     8     7     8   ar
     9     9     8   ar
    10     8    10    1
    11    10    11   am
    12    11    12    2
