@<TRIPOS>MOLECULE
1k6t_XN1_B_1.pdb
 46 50 0 0 0
SMALL
GASTEIGER

@<TRIPOS>ATOM
      1  N1         3.1820   -5.3320   16.3030 N.3   509  XN1509     -0.2661
      2  C1         4.6020   -5.1460   15.8000 C.3   509  XN1509      0.0980
      3  C2         5.4030   -3.9970   16.4070 C.3   509  XN1509      0.1527
      4  C3         6.7370   -4.0250   15.7400 C.2   509  XN1509      0.2572
      5  O1         6.8500   -3.5830   14.5800 O.2   509  XN1509     -0.2718
      6  N2         7.7600   -4.5330   16.4390 N.am  509  XN1509     -0.2077
      7  C4         9.1730   -4.7000   16.0900 C.3   509  XN1509      0.0788
      8  C5         9.9070   -5.3650   17.2820 C.3   509  XN1509      0.0217
      9  C6         9.8290   -3.4800   15.8720 C.3   509  XN1509      0.0217
     10  C7         9.4110   -5.5860   14.9160 C.3   509  XN1509      0.0217
     11  N3         4.4900   -2.7760   16.1220 N.3   509  XN1509     -0.2619
     12  C8         3.0610   -2.8590   16.5660 C.3   509  XN1509      0.0901
     13  C9         2.4390   -4.1420   16.0320 C.3   509  XN1509      0.0899
     14  C10        5.0120   -1.4890   16.6570 C.3   509  XN1509      0.1057
     15  C11        4.9970   -0.4370   15.6040 C.3   509  XN1509      0.1684
     16  O2         5.1220    0.6140   16.5270 O.3   509  XN1509     -0.2216
     17  C12        6.1660   -0.2630   14.6360 C.3   509  XN1509      0.0438
     18  C13        6.1370    0.8190   13.5370 C.3   509  XN1509      0.0848
     19  C14        7.4940    0.7770   12.6920 C.3   509  XN1509      0.0311
     20  C15        7.4930    1.8430   11.5870 C.ar  509  XN1509     -0.0220
     21  C16        7.3260    3.2730   11.8930 C.ar  509  XN1509     -0.0043
     22  C17        7.3180    4.2330   10.8230 C.ar  509  XN1509     -0.0003
     23  C18        7.4810    3.7660    9.4410 C.ar  509  XN1509     -0.0000
     24  C19        7.6480    2.3510    9.1530 C.ar  509  XN1509     -0.0003
     25  C20        7.6530    1.4040   10.2200 C.ar  509  XN1509     -0.0043
     26  C21        4.9510    0.6120   12.5330 C.2   509  XN1509      0.2416
     27  O3         4.4830   -0.5370   12.1980 O.2   509  XN1509     -0.2733
     28  N4         4.5160    1.7590   12.0580 N.am  509  XN1509     -0.2001
     29  C22        3.4530    1.8920   11.0810 C.3   509  XN1509      0.1477
     30  C23        3.4150    3.2820   10.4760 C.3   509  XN1509      0.1802
     31  O4         3.7030    4.2740   11.4470 O.3   509  XN1509     -0.2206
     32  C24        2.0500    3.3980    9.8540 C.3   509  XN1509      0.0611
     33  C25        1.0530    2.6850   10.7290 C.ar  509  XN1509     -0.0218
     34  C26       -0.3210    2.7010   10.9570 C.ar  509  XN1509     -0.0044
     35  C27       -0.8560    1.7970   11.9360 C.ar  509  XN1509     -0.0003
     36  C28        0.0030    0.8880   12.6750 C.ar  509  XN1509     -0.0003
     37  C29        1.3940    0.8600   12.4570 C.ar  509  XN1509     -0.0029
     38  C30        1.9990    1.6960   11.5320 C.ar  509  XN1509     -0.0040
     39  C31        2.4960   -6.4920   15.7040 C.3   509  XN1509      0.1008
     40  C32        3.1180   -7.8800   15.8760 C.ar  509  XN1509      0.0130
     41  C33        3.2680   -8.5080   17.1620 C.ar  509  XN1509      0.0959
     42  N5         3.8580   -9.8240   17.3710 N.ar  509  XN1509     -0.2426
     43  C34        4.2940  -10.4710   16.1490 C.ar  509  XN1509      0.0989
     44  C35        4.1720   -9.8990   14.8360 C.ar  509  XN1509      0.0204
     45  C36        3.5750   -8.5820   14.7060 C.ar  509  XN1509      0.0002
     46  C37        8.8850    0.7840   13.3100 C.3   509  XN1509      0.0052
@<TRIPOS>BOND
     1    24    23   ar
     2    24    25   ar
     3    23    22   ar
     4    32    30    1
     5    32    33    1
     6    25    20   ar
     7    30    29    1
     8    30    31    1
     9    33    34   ar
    10    33    38   ar
    11    22    21   ar
    12    34    35   ar
    13    29    38    1
    14    29    28    1
    15    38    37   ar
    16    20    21   ar
    17    20    19    1
    18    35    36   ar
    19    28    26   am
    20    27    26    2
    21    37    36   ar
    22    26    18    1
    23    19    46    1
    24    19    18    1
    25    18    17    1
    26     5     4    2
    27    17    15    1
    28    45    44   ar
    29    45    40   ar
    30    44    43   ar
    31    10     7    1
    32    15    16    1
    33    15    14    1
    34    39    40    1
    35    39     1    1
    36     4     3    1
    37     4     6   am
    38     2     1    1
    39     2     3    1
    40     9     7    1
    41    40    41   ar
    42    13     1    1
    43    13    12    1
    44     7     6    1
    45     7     8    1
    46    11     3    1
    47    11    12    1
    48    11    14    1
    49    43    42   ar
    50    41    42   ar
