@<TRIPOS>MOLECULE
1k6v_XN2_B_1.pdb
 49 54 0 0 0
SMALL
GASTEIGER

@<TRIPOS>ATOM
      1  N1         3.1180   -5.2840   16.2850 N.3   252  XN2252     -0.2661
      2  C1         4.5860   -5.1680   15.7160 C.3   252  XN2252      0.0980
      3  C2         5.3840   -4.0130   16.3090 C.3   252  XN2252      0.1527
      4  C3         6.7110   -4.0500   15.6500 C.2   252  XN2252      0.2572
      5  O1         6.7840   -3.6980   14.4150 O.2   252  XN2252     -0.2718
      6  N2         7.7990   -4.4460   16.4110 N.am  252  XN2252     -0.2077
      7  C4         9.2450   -4.5680   16.0530 C.3   252  XN2252      0.0788
      8  C5        10.0490   -5.0680   17.2840 C.3   252  XN2252      0.0217
      9  C6         9.8370   -3.3260   15.7490 C.3   252  XN2252      0.0217
     10  C7         9.5300   -5.5060   14.9120 C.3   252  XN2252      0.0217
     11  N3         4.4720   -2.7710   16.0070 N.3   252  XN2252     -0.2619
     12  C8         3.0220   -2.7640   16.4400 C.3   252  XN2252      0.0901
     13  C9         2.4060   -4.0570   15.8710 C.3   252  XN2252      0.0899
     14  C10        5.0920   -1.5070   16.5610 C.3   252  XN2252      0.1057
     15  C11        5.0370   -0.4330   15.5530 C.3   252  XN2252      0.1684
     16  O2         5.1910    0.5900   16.5100 O.3   252  XN2252     -0.2216
     17  C12        6.1970   -0.2170   14.6540 C.3   252  XN2252      0.0438
     18  C13        6.1500    0.8690   13.5930 C.3   252  XN2252      0.0848
     19  C14        7.5870    0.8640   12.7980 C.3   252  XN2252      0.0311
     20  C15        7.5480    1.9760   11.6720 C.ar  252  XN2252     -0.0220
     21  C16        7.3350    3.4760   11.9910 C.ar  252  XN2252     -0.0043
     22  C17        7.2970    4.4600   10.8930 C.ar  252  XN2252     -0.0003
     23  C18        7.4670    3.9730    9.4580 C.ar  252  XN2252     -0.0000
     24  C19        7.6730    2.5090    9.1600 C.ar  252  XN2252     -0.0003
     25  C20        7.7110    1.5320   10.2530 C.ar  252  XN2252     -0.0043
     26  C21        4.9970    0.6110   12.5050 C.2   252  XN2252      0.2416
     27  O3         4.6510   -0.5420   12.0120 O.2   252  XN2252     -0.2733
     28  N4         4.4610    1.7520   12.1510 N.am  252  XN2252     -0.2001
     29  C22        3.4190    1.8900   11.1550 C.3   252  XN2252      0.1477
     30  C23        3.4300    3.2720   10.5340 C.3   252  XN2252      0.1802
     31  O4         3.7100    4.2880   11.4950 O.3   252  XN2252     -0.2206
     32  C24        2.1000    3.3840    9.8350 C.3   252  XN2252      0.0611
     33  C25        1.0540    2.7220   10.6700 C.ar  252  XN2252     -0.0218
     34  C26       -0.3600    2.7710   10.8350 C.ar  252  XN2252     -0.0044
     35  C27       -0.9730    1.8760   11.8430 C.ar  252  XN2252     -0.0003
     36  C28       -0.1500    0.9330   12.6790 C.ar  252  XN2252     -0.0003
     37  C29        1.2870    0.8820   12.5130 C.ar  252  XN2252     -0.0029
     38  C30        1.9540    1.7150   11.5640 C.ar  252  XN2252     -0.0040
     39  C31        2.4080   -6.4070   15.6970 C.3   252  XN2252      0.0993
     40  C32        2.9580   -7.7770   16.0440 C.ar  252  XN2252     -0.0029
     41  C33        2.7520   -8.2970   17.4260 C.ar  252  XN2252      0.0004
     42  C34        3.9750  -10.4000   16.8410 C.ar  252  XN2252      0.1764
     43  C35        4.2190   -9.9650   15.4650 C.ar  252  XN2252      0.1762
     44  C36        3.7020   -8.6230   15.0450 C.ar  252  XN2252      0.0373
     45  O5         4.5420  -11.6570   16.9900 O.3   252  XN2252     -0.4346
     46  C38        5.2090  -12.2010   15.7870 C.3   252  XN2252      0.4294
     47  O6         4.9220  -11.0170   14.9000 O.3   252  XN2252     -0.4346
     48  C37        3.2400   -9.6210   17.9060 C.ar  252  XN2252      0.0399
     49  C39        8.8100    0.8990   13.2310 C.3   252  XN2252      0.0052
@<TRIPOS>BOND
     1    24    23   ar
     2    24    25   ar
     3    23    22   ar
     4    32    30    1
     5    32    33    1
     6    25    20   ar
     7    30    29    1
     8    30    31    1
     9    33    34   ar
    10    33    38   ar
    11    34    35   ar
    12    22    21   ar
    13    29    38    1
    14    29    28    1
    15    38    37   ar
    16    20    21   ar
    17    20    19    1
    18    35    36   ar
    19    27    26    2
    20    28    26   am
    21    26    18    1
    22    37    36   ar
    23    19    49    1
    24    19    18    1
    25    18    17    1
    26     5     4    2
    27    17    15    1
    28    47    43    1
    29    47    46    1
    30    10     7    1
    31    44    43   ar
    32    44    40   ar
    33    43    42   ar
    34    15    16    1
    35    15    14    1
    36     4     3    1
    37     4     6   am
    38    39    40    1
    39    39     1    1
    40     2     1    1
    41     2     3    1
    42     9     7    1
    43    46    45    1
    44    13     1    1
    45    13    12    1
    46    11     3    1
    47    11    12    1
    48    11    14    1
    49    40    41   ar
    50     7     6    1
    51     7     8    1
    52    42    45    1
    53    42    48   ar
    54    41    48   ar
