@<TRIPOS>MOLECULE
1k6x_NAD_A_1.pdb
 44 48 0 0 0
SMALL
GASTEIGER

@<TRIPOS>ATOM
      1  PA         1.6570   67.5980   33.9360 P.3   400  NAD400      0.2189
      2  O1A        2.4690   68.3800   34.9130 O.3   400  NAD400     -0.4371
      3  O2A        2.2470   67.6840   32.5560 O.2   400  NAD400     -0.5170
      4  O5B        0.1360   68.1820   33.9580 O.3   400  NAD400     -0.3112
      5  C5B       -0.8720   67.6010   34.8020 C.3   400  NAD400      0.1813
      6  C4B       -2.1540   67.8230   34.0880 C.3   400  NAD400      0.1821
      7  O4B       -3.1650   67.2300   34.9200 O.3   400  NAD400     -0.3135
      8  C3B       -2.5540   69.3190   33.9070 C.3   400  NAD400      0.2184
      9  O3B       -2.9390   69.5710   32.5320 O.3   400  NAD400     -0.2174
     10  C2B       -3.7320   69.5260   34.8780 C.3   400  NAD400      0.2570
     11  O2B       -4.6470   70.5330   34.3840 O.3   400  NAD400     -0.2130
     12  C1B       -4.3330   68.0930   34.9830 C.3   400  NAD400      0.3186
     13  N9A       -4.7750   67.6780   36.3030 N.pl3 400  NAD400     -0.1439
     14  C8A       -4.1400   66.7530   37.0700 C.3   400  NAD400      0.3377
     15  N7A       -4.9060   66.6620   38.2550 N.2   400  NAD400     -0.2095
     16  C5A       -5.9390   67.5280   38.1290 C.2   400  NAD400      0.2526
     17  C6A       -7.0470   67.8190   39.1020 C.2   400  NAD400      0.4393
     18  N6A       -7.1380   67.1530   40.3870 N.pl3 400  NAD400      0.2180
     19  N1A       -8.0240   68.8620   38.5940 N.2   400  NAD400      0.0021
     20  C2A       -7.7800   69.4200   37.2910 C.3   400  NAD400      0.5254
     21  N3A       -6.7760   69.0610   36.5740 N.2   400  NAD400     -0.0055
     22  C4A       -5.8660   68.1290   36.9810 C.2   400  NAD400      0.3518
     23  O3         1.6760   66.0040   34.0960 O.3   400  NAD400     -0.2703
     24  PN         2.7840   64.9150   34.3030 P.3   400  NAD400      0.2189
     25  O1N        4.1500   65.5010   34.1470 O.3   400  NAD400     -0.4371
     26  O2N        2.5980   63.8080   33.3140 O.2   400  NAD400     -0.5170
     27  O5D        2.6130   64.3120   35.7590 O.3   400  NAD400     -0.3112
     28  C5D        2.6990   65.0740   36.9460 C.3   400  NAD400      0.1813
     29  C4D        3.6260   64.3160   37.9660 C.3   400  NAD400      0.1799
     30  O4D        4.9660   64.1790   37.4330 O.3   400  NAD400     -0.3327
     31  C3D        3.7840   65.0400   39.3230 C.3   400  NAD400      0.2158
     32  O3D        3.1980   64.2250   40.3650 O.3   400  NAD400     -0.2175
     33  C2D        5.3160   65.2270   39.4650 C.3   400  NAD400      0.2309
     34  O2D        5.7570   65.1400   40.8220 O.3   400  NAD400     -0.2158
     35  C1D        5.8770   64.1200   38.5420 C.3   400  NAD400      0.2263
     36  N1N        7.2590   64.4100   38.1020 N.pl3 400  NAD400     -0.2787
     37  C2N        7.5240   65.6510   37.3920 C.3   400  NAD400      0.1244
     38  C3N        8.8030   65.8890   37.0340 C.2   400  NAD400      0.0544
     39  C7N        9.1790   67.1260   36.3260 C.2   400  NAD400      0.2818
     40  O7N       10.3390   67.3270   36.0390 O.2   400  NAD400     -0.2670
     41  N7N        8.1730   68.1040   35.9760 N.am  400  NAD400     -0.0839
     42  C4N        9.8430   64.8810   37.3720 C.2   400  NAD400      0.0033
     43  C5N        9.5250   63.7480   38.0260 C.2   400  NAD400      0.0157
     44  C6N        8.1260   63.5070   38.4190 C.2   400  NAD400      0.0633
@<TRIPOS>BOND
     1     9     8    1
     2     3     1    2
     3    26    24    2
     4     8     6    1
     5     8    10    1
     6     1     4    1
     7     1    23    1
     8     1     2    1
     9     4     5    1
    10     6     5    1
    11     6     7    1
    12    23    24    1
    13    25    24    1
    14    24    27    1
    15    11    10    1
    16    10    12    1
    17     7    12    1
    18    12    13    1
    19    27    28    1
    20    41    39   am
    21    40    39    2
    22    13    22    1
    23    13    14    1
    24    39    38    1
    25    21    22    2
    26    21    20    1
    27    28    29    1
    28    22    16    1
    29    38    42    2
    30    38    37    1
    31    14    15    1
    32    20    19    1
    33    42    43    1
    34    37    36    1
    35    30    29    1
    36    30    35    1
    37    29    31    1
    38    43    44    2
    39    36    44    1
    40    36    35    1
    41    16    15    2
    42    16    17    1
    43    35    33    1
    44    19    17    2
    45    17    18    1
    46    31    33    1
    47    31    32    1
    48    33    34    1
