@<TRIPOS>MOLECULE
1k72_CBI_A_1.pdb
 23 24 0 0 0
SMALL
GASTEIGER

@<TRIPOS>ATOM
      1  C1       -11.0150    7.8650   56.5070 C.3   777  CBI777      0.2695
      2  C2       -10.7620    9.3150   56.8750 C.3   777  CBI777      0.2406
      3  C3        -9.3410    9.4610   57.3440 C.3   777  CBI777      0.2198
      4  C4        -9.1610    8.5160   58.5630 C.3   777  CBI777      0.2144
      5  C5        -9.4410    7.0930   58.1300 C.3   777  CBI777      0.1835
      6  C6        -9.2750    6.1610   59.3600 C.3   777  CBI777      0.2142
      7  O2       -10.9710   10.0410   55.6720 O.3   777  CBI777     -0.2149
      8  O3        -9.0920   10.7840   57.7570 O.3   777  CBI777     -0.2174
      9  O4        -7.8020    8.6220   59.0260 O.3   777  CBI777     -0.2176
     10  O5       -10.8320    7.0090   57.6650 O.3   777  CBI777     -0.3256
     11  O6       -10.0960    6.5340   60.4320 O.3   777  CBI777     -0.2176
     12  C1'      -15.1110    4.9130   54.8360 C.3   777  CBI777      0.3023
     13  C2'      -14.2580    4.5030   56.0530 C.3   777  CBI777      0.2433
     14  C3'      -13.7470    5.8220   56.7000 C.3   777  CBI777      0.2168
     15  C4'      -12.8820    6.4700   55.6190 C.3   777  CBI777      0.1804
     16  C5'      -13.6350    6.7760   54.3770 C.3   777  CBI777      0.1804
     17  C6'      -12.7880    7.3670   53.2960 C.3   777  CBI777      0.2141
     18  O1'      -16.1830    5.7110   55.1670 O.3   777  CBI777     -0.1869
     19  O2'      -15.1050    3.8580   57.0070 O.3   777  CBI777     -0.2148
     20  O3'      -12.9700    5.4240   57.7970 O.3   777  CBI777     -0.2175
     21  O4'      -12.3490    7.7390   56.1020 O.3   777  CBI777     -0.3257
     22  O5'      -14.2120    5.5350   53.8570 O.3   777  CBI777     -0.3237
     23  O6'      -11.7030    6.5250   53.0060 O.3   777  CBI777     -0.2176
@<TRIPOS>BOND
     1    23    17    1
     2    17    16    1
     3    22    16    1
     4    22    12    1
     5    16    15    1
     6    12    18    1
     7    12    13    1
     8    15    21    1
     9    15    14    1
    10     7     2    1
    11    13    14    1
    12    13    19    1
    13    21     1    1
    14     1     2    1
    15     1    10    1
    16    14    20    1
    17     2     3    1
    18     3     8    1
    19     3     4    1
    20    10     5    1
    21     5     4    1
    22     5     6    1
    23     4     9    1
    24     6    11    1
