@<TRIPOS>MOLECULE
1k72_GLC_A_1.pdb
 12 12 0 0 0
SMALL
GASTEIGER

@<TRIPOS>ATOM
      1  C1       -15.5850    8.0870   49.5480 C.3   615  GLC615      0.3024
      2  C2       -17.0070    8.6170   49.2930 C.3   615  GLC615      0.2434
      3  C3       -17.8800    7.4800   48.7840 C.3   615  GLC615      0.2199
      4  C4       -17.2510    6.8470   47.5410 C.3   615  GLC615      0.2144
      5  C5       -15.8220    6.4010   47.8430 C.3   615  GLC615      0.1836
      6  C6       -15.0870    5.8380   46.6360 C.3   615  GLC615      0.2142
      7  O1       -15.5940    7.1650   50.6080 O.3   615  GLC615     -0.1869
      8  O2       -17.5780    9.1770   50.4810 O.3   615  GLC615     -0.2148
      9  O3       -19.1700    7.9760   48.4680 O.3   615  GLC615     -0.2174
     10  O4       -18.0240    5.7270   47.1440 O.3   615  GLC615     -0.2176
     11  O5       -15.0630    7.5170   48.3400 O.3   615  GLC615     -0.3236
     12  O6       -15.2050    6.6820   45.4980 O.3   615  GLC615     -0.2176
@<TRIPOS>BOND
     1    12     6    1
     2     6     5    1
     3    10     4    1
     4     4     5    1
     5     4     3    1
     6     5    11    1
     7    11     1    1
     8     9     3    1
     9     3     2    1
    10     2     1    1
    11     2     8    1
    12     1     7    1
