@<TRIPOS>MOLECULE
1k74_9CR_A_1.pdb
 22 22 0 0 0
SMALL
GASTEIGER

@<TRIPOS>ATOM
      1  C1        16.1400   14.5860   41.3360 C.3   463  9CR463      0.0183
      2  C2        17.7390   14.6070   41.1920 C.3   463  9CR463      0.0044
      3  C3        18.5530   14.9670   42.5000 C.3   463  9CR463      0.0047
      4  C4        18.0470   16.2980   43.1320 C.3   463  9CR463      0.0217
      5  C5        16.4970   16.3990   43.3440 C.2   463  9CR463     -0.0479
      6  C6        15.5260   15.6070   42.5090 C.2   463  9CR463     -0.0307
      7  C7        14.0650   15.6550   42.6410 C.2   463  9CR463     -0.0052
      8  C8        13.2650   16.3270   43.5380 C.2   463  9CR463     -0.0046
      9  C9        11.8540   16.4290   43.5990 C.2   463  9CR463     -0.0219
     10  C10       11.2490   17.1040   44.6620 C.2   463  9CR463     -0.0043
     11  C11       11.9070   17.6830   45.7100 C.2   463  9CR463     -0.0006
     12  C12       11.2610   18.3050   46.7270 C.2   463  9CR463     -0.0041
     13  C13       11.8760   18.8710   47.8430 C.2   463  9CR463     -0.0153
     14  C14       10.9960   19.4540   48.7450 C.2   463  9CR463      0.0819
     15  C15       11.2920   20.1640   50.0750 C.2   463  9CR463      0.3876
     16  C16       15.7590   13.0920   41.6940 C.3   463  9CR463      0.0043
     17  C17       15.5720   14.8130   39.9500 C.3   463  9CR463      0.0043
     18  C18       16.1520   17.3830   44.4560 C.3   463  9CR463      0.0260
     19  C19       10.9210   15.8210   42.5600 C.3   463  9CR463      0.0310
     20  C20       13.4390   18.8510   48.0780 C.3   463  9CR463      0.0312
     21  O1        10.4720   20.9770   50.5160 O.co2 463  9CR463     -0.2406
     22  O2        12.3420   19.9170   50.6930 O.co2 463  9CR463     -0.2406
@<TRIPOS>BOND
     1    17     1    1
     2     2     1    1
     3     2     3    1
     4     1    16    1
     5     1     6    1
     6     3     4    1
     7     6     7    1
     8     6     5    2
     9    19     9    1
    10     7     8    2
    11     4     5    1
    12     5    18    1
    13     8     9    1
    14     9    10    2
    15    10    11    1
    16    11    12    2
    17    12    13    1
    18    13    20    1
    19    13    14    2
    20    14    15    1
    21    15    21   ar
    22    15    22   ar
