@<TRIPOS>MOLECULE
1k74_544_D_1.pdb
 38 41 0 0 0
SMALL
GASTEIGER

@<TRIPOS>ATOM
      1  N         13.8080   18.8420   13.1020 N.pl3 478  544478     -0.2317
      2  CA        14.5880   20.0790   13.5200 C.3   478  544478      0.1989
      3  CB        13.6120   21.2520   13.9040 C.3   478  544478      0.0595
      4  CG        12.5520   21.5230   12.8220 C.ar  478  544478     -0.0197
      5  CD1       11.2030   21.0490   13.0120 C.ar  478  544478     -0.0011
      6  CD2       12.8940   22.2380   11.6280 C.ar  478  544478     -0.0011
      7  CE1       10.2210   21.2890   12.0120 C.ar  478  544478      0.0366
      8  CE2       11.9220   22.4690   10.6530 C.ar  478  544478      0.0366
      9  CZ        10.5530   21.9960   10.8260 C.ar  478  544478      0.1385
     10  OH         9.4930   22.1760    9.8960 O.3   478  544478     -0.4750
     11  C1A       14.2340   17.5730   12.5590 C.2   478  544478      0.0471
     12  C1F       13.2430   16.6480   12.2570 C.2   478  544478      0.0537
     13  C1B       15.6850   17.1920   12.2920 C.3   478  544478      0.0489
     14  C1H       10.7580   15.7490   12.0520 C.ar  478  544478      0.0390
     15  C1I        9.4570   16.1300   11.5410 C.ar  478  544478      0.0032
     16  C1J        8.5140   15.1500   11.1500 C.ar  478  544478      0.0001
     17  C1K        8.8460   13.7720   11.2590 C.ar  478  544478      0.0000
     18  C1L       10.1290   13.3750   11.7540 C.ar  478  544478      0.0001
     19  C1M       11.0770   14.3550   12.1470 C.ar  478  544478      0.0032
     20  C1G       11.6840   16.7840   12.4410 C.2   478  544478      0.1966
     21  O1G       11.2330   17.8270   12.9510 O.2   478  544478     -0.2865
     22  O3F        8.4500   19.1640    6.5920 O.2   478  544478     -0.4486
     23  C3G        9.2060   19.7800    5.6050 C.2   478  544478      0.2771
     24  N3H        9.3400   21.1640    5.8780 N.2   478  544478     -0.3728
     25  C3C        8.6550   21.3640    7.0750 C.2   478  544478      0.1336
     26  C3D        8.1090   20.1160    7.5100 C.3   478  544478      0.2161
     27  C3E        7.2690   19.8030    8.7640 C.3   478  544478      0.0549
     28  C3I        9.7190   19.1060    4.4870 C.ar  478  544478      0.0660
     29  C3N       10.4990   19.7720    3.4700 C.ar  478  544478      0.0058
     30  C3M       11.0110   19.0490    2.3630 C.ar  478  544478      0.0002
     31  C3L       10.7620   17.6630    2.2440 C.ar  478  544478      0.0000
     32  C3K       10.0030   16.9880    3.2360 C.ar  478  544478      0.0002
     33  C3J        9.4850   17.7030    4.3490 C.ar  478  544478      0.0058
     34  C3A        9.6990   23.0300    8.7320 C.3   478  544478      0.2126
     35  C3B        8.5550   22.7630    7.7470 C.3   478  544478      0.1055
     36  O2        16.6900   20.6420   14.4420 O.co2 478  544478     -0.2437
     37  O1        15.6170   18.9840   15.3970 O.co2 478  544478     -0.2437
     38  C         15.7040   19.8850   14.5270 C.2   478  544478      0.3844
@<TRIPOS>BOND
     1    31    30   ar
     2    31    32   ar
     3    30    29   ar
     4    32    33   ar
     5    29    28   ar
     6    33    28   ar
     7    28    23    1
     8    23    24    2
     9    23    22    1
    10    24    25    2
    11    22    26    1
    12    25    26    1
    13    25    35    1
    14    26    27    1
    15    35    34    1
    16    34    10    1
    17    10     9    1
    18     8     9   ar
    19     8     6   ar
    20     9     7   ar
    21    16    17   ar
    22    16    15   ar
    23    17    18   ar
    24    15    14   ar
    25     6     4   ar
    26    18    19   ar
    27     7     5   ar
    28    14    19   ar
    29    14    20    1
    30    12    20    1
    31    12    11    2
    32    13    11    1
    33    20    21    2
    34    11     1    1
    35     4     5   ar
    36     4     3    1
    37     1     2    1
    38     2     3    1
    39     2    38    1
    40    36    38   ar
    41    38    37   ar
