@<TRIPOS>MOLECULE
1k7d_GRO_B_1.pdb
 11 11 0 0 0
SMALL
GASTEIGER

@<TRIPOS>ATOM
      1  O2         2.1200    2.5060    0.4430 O.co2 601  GRO601     -0.2453
      2  C1         1.2910    1.5800   -0.2560 C.2   601  GRO601      0.3683
      3  O1         1.0740    1.7380   -1.6340 O.co2 601  GRO601     -0.2453
      4  C2         0.9480    0.2620    0.4230 C.3   601  GRO601      0.1256
      5  C3        -0.3310    0.4120    1.2660 C.3   601  GRO601      0.0166
      6  C1'        2.0820   -0.1610    1.2580 C.ar  601  GRO601     -0.0118
      7  C6'        2.8280   -1.2770    0.8940 C.ar  601  GRO601     -0.0037
      8  C5'        3.8910   -1.7080    1.6720 C.ar  601  GRO601     -0.0003
      9  C4'        4.1810   -1.0470    2.8450 C.ar  601  GRO601     -0.0000
     10  C3'        3.4220    0.0530    3.2360 C.ar  601  GRO601     -0.0003
     11  C2'        2.3890    0.5100    2.4360 C.ar  601  GRO601     -0.0037
@<TRIPOS>BOND
     1     3     2   ar
     2     2     4    1
     3     2     1   ar
     4     4     6    1
     5     4     5    1
     6     7     6   ar
     7     7     8   ar
     8     6    11   ar
     9     8     9   ar
    10    11    10   ar
    11     9    10   ar
