@<TRIPOS>MOLECULE
1k7e_IAG_A_1.pdb
 17 18 0 0 0
SMALL
GASTEIGER

@<TRIPOS>ATOM
      1  O3        49.4140   29.5250   11.1820 O.co2 401  IAG401     -0.2437
      2  C12       48.2180   29.0230   11.2100 C.2   401  IAG401      0.3865
      3  O2        47.4310   29.3280   10.2450 O.co2 401  IAG401     -0.2437
      4  C11       47.6370   28.1530   12.2900 C.3   401  IAG401      0.2284
      5  N2        48.5140   27.9430   13.3910 N.am  401  IAG401     -0.1929
      6  C10       47.9500   27.4150   14.4670 C.2   401  IAG401      0.2464
      7  O1        46.7960   26.7980   14.6250 O.2   401  IAG401     -0.2730
      8  C9        49.0260   27.6640   15.4500 C.3   401  IAG401      0.1147
      9  C2        50.2880   26.8490   15.1930 C.2   401  IAG401      0.0073
     10  C1        51.5240   27.4030   15.2790 C.2   401  IAG401      0.0950
     11  N1        52.4570   26.3960   14.9880 N.2   401  IAG401     -0.2442
     12  C7        50.4120   25.4840   14.9980 C.2   401  IAG401      0.0117
     13  C8        51.7850   25.2200   14.8520 C.2   401  IAG401      0.0804
     14  C6        52.2270   23.9360   14.6680 C.2   401  IAG401      0.0148
     15  C5        51.3140   22.8810   14.6360 C.2   401  IAG401     -0.0199
     16  C4        49.9820   23.1440   14.8230 C.3   401  IAG401      0.0521
     17  C3        49.5250   24.4560   15.0160 C.2   401  IAG401     -0.0202
@<TRIPOS>BOND
     1     3     2   ar
     2     1     2   ar
     3     2     4    1
     4     4     5    1
     5     5     6   am
     6     6     7    2
     7     6     8    1
     8    15    14    2
     9    15    16    1
    10    14    13    1
    11    16    17    1
    12    13    11    2
    13    13    12    1
    14    11    10    1
    15    12    17    2
    16    12     9    1
    17     9    10    2
    18     9     8    1
