@<TRIPOS>MOLECULE
1k7e_PLP_B_1.pdb
 15 15 0 0 0
SMALL
GASTEIGER

@<TRIPOS>ATOM
      1  N1        84.3450   13.7750   12.1190 N.ar  402  PLP402     -0.2452
      2  C2        84.2840   14.1900   10.8300 C.ar  402  PLP402      0.0978
      3  C2A       85.4720   14.0520    9.9340 C.3   402  PLP402      0.0555
      4  C3        83.1390   14.6870   10.3110 C.ar  402  PLP402      0.2049
      5  O3        83.0910   14.9920    9.0130 O.3   402  PLP402     -0.2857
      6  C4        82.0600   14.7360   11.0700 C.ar  402  PLP402      0.0182
      7  C4A       80.7800   15.3020   10.3980 C.3   402  PLP402      0.0342
      8  C5        82.0540   14.4090   12.4200 C.ar  402  PLP402      0.0261
      9  C6        83.2170   13.9080   12.9080 C.ar  402  PLP402      0.0965
     10  C5A       80.8300   14.6730   13.3980 C.3   402  PLP402      0.1815
     11  O4P       79.6270   14.0790   13.1880 O.3   402  PLP402     -0.2653
     12  P         79.5220   12.6520   13.8060 P.3   402  PLP402      0.5329
     13  O1P       78.2050   12.2070   13.5610 O.3   402  PLP402     -0.1145
     14  O2P       79.5420   13.1390   15.2200 O.3   402  PLP402     -0.1145
     15  O3P       80.5360   11.5800   13.4920 O.2   402  PLP402     -0.2224
@<TRIPOS>BOND
     1     5     4    1
     2     3     2    1
     3     4     2   ar
     4     4     6   ar
     5     7     6    1
     6     2     1   ar
     7     6     8   ar
     8     1     9   ar
     9     8     9   ar
    10     8    10    1
    11    11    10    1
    12    11    12    1
    13    15    12    2
    14    13    12    1
    15    12    14    1
