@<TRIPOS>MOLECULE
1k7f_PLP_B_1.pdb
 15 15 0 0 0
SMALL
GASTEIGER

@<TRIPOS>ATOM
      1  N1        85.0070   13.7650   12.1730 N.ar  402  PLP402     -0.2452
      2  C2        84.9250   14.1040   10.9040 C.ar  402  PLP402      0.0978
      3  C2A       86.1980   14.0520   10.0770 C.3   402  PLP402      0.0555
      4  C3        83.7460   14.5260   10.3700 C.ar  402  PLP402      0.2049
      5  O3        83.7040   14.7100    9.0860 O.3   402  PLP402     -0.2857
      6  C4        82.5850   14.6000   11.1350 C.ar  402  PLP402      0.0182
      7  C4A       81.2640   14.8650   10.5450 C.3   402  PLP402      0.0342
      8  C5        82.7200   14.2590   12.4770 C.ar  402  PLP402      0.0261
      9  C6        83.9280   13.8420   13.0740 C.ar  402  PLP402      0.0965
     10  C5A       81.6720   14.3030   13.5320 C.3   402  PLP402      0.1815
     11  O4P       80.4570   13.7660   13.3450 O.3   402  PLP402     -0.2653
     12  P         80.0910   12.4410   13.9990 P.3   402  PLP402      0.5329
     13  O1P       78.6580   12.0920   13.6370 O.2   402  PLP402     -0.2224
     14  O2P       80.2790   12.4160   15.4810 O.3   402  PLP402     -0.1145
     15  O3P       81.0380   11.3010   13.6490 O.3   402  PLP402     -0.1145
@<TRIPOS>BOND
     1     5     4    1
     2     3     2    1
     3     4     2   ar
     4     4     6   ar
     5     7     6    1
     6     2     1   ar
     7     6     8   ar
     8     1     9   ar
     9     8     9   ar
    10     8    10    1
    11    11    10    1
    12    11    12    1
    13    13    12    2
    14    15    12    1
    15    12    14    1
