@<TRIPOS>MOLECULE
1k7f_IAV_A_1.pdb
 20 21 0 0 0
SMALL
GASTEIGER

@<TRIPOS>ATOM
      1  O1        48.3320   25.6200   11.3230 O.2   401  IAV401     -0.2730
      2  C10       49.5930   26.0510   11.2840 C.2   401  IAV401      0.2460
      3  N2        49.8280   27.4030   11.3150 N.am  401  IAV401     -0.1953
      4  C11       48.5470   28.0210   11.7010 C.3   401  IAV401      0.1977
      5  C12       48.4510   29.0930   10.6500 C.2   401  IAV401      0.3842
      6  O2        47.6160   30.1480   10.8490 O.co2 401  IAV401     -0.2437
      7  O3        49.1280   28.9440    9.4490 O.co2 401  IAV401     -0.2437
      8  C13       48.5590   28.7770   12.9980 C.3   401  IAV401      0.0311
      9  C14       49.7270   29.7800   13.0410 C.3   401  IAV401      0.0023
     10  C15       48.7540   27.8910   14.2020 C.3   401  IAV401      0.0023
     11  C9        50.6680   24.9910   11.2860 C.3   401  IAV401      0.1108
     12  C2        51.5260   24.8510   12.5160 C.2   401  IAV401     -0.0095
     13  C1        52.8500   25.1750   12.5120 C.3   401  IAV401      0.1481
     14  N1        53.2820   24.8910   13.7770 N.2   401  IAV401     -0.2659
     15  C8        52.2580   24.5030   14.5300 C.ar  401  IAV401      0.0758
     16  C6        52.2230   24.1830   15.8810 C.ar  401  IAV401      0.0187
     17  C7        51.1030   24.5210   13.7420 C.ar  401  IAV401      0.0117
     18  C3        49.8750   24.1390   14.2220 C.ar  401  IAV401      0.0009
     19  C4        49.8340   23.7740   15.5800 C.ar  401  IAV401      0.0001
     20  C5        50.9740   23.8180   16.4340 C.ar  401  IAV401      0.0015
@<TRIPOS>BOND
     1     7     5   ar
     2     5     6   ar
     3     5     4    1
     4     2    11    1
     5     2     3   am
     6     2     1    2
     7    11    12    1
     8     3     4    1
     9     4     8    1
    10    13    12    1
    11    13    14    1
    12    12    17    2
    13     8     9    1
    14     8    10    1
    15    17    18   ar
    16    17    15   ar
    17    14    15    2
    18    18    19   ar
    19    15    16   ar
    20    19    20   ar
    21    16    20   ar
