@<TRIPOS>MOLECULE
1k7l_544_A_1.pdb
 38 41 0 0 0
SMALL
GASTEIGER

@<TRIPOS>ATOM
      1  N        -20.0030  -13.6120   -1.9140 N.2   469  544469     -0.2686
      2  CA       -19.6200  -12.4640   -0.9740 C.3   469  544469      0.2092
      3  CB       -19.5310  -11.0570   -1.6980 C.3   469  544469      0.0622
      4  CG       -18.7020  -11.1200   -2.9960 C.ar  469  544469     -0.0195
      5  CD1      -19.3650  -11.3180   -4.2620 C.ar  469  544469     -0.0011
      6  CD2      -17.2860  -10.9860   -2.9470 C.ar  469  544469     -0.0011
      7  CE1      -18.6110  -11.3820   -5.4580 C.ar  469  544469      0.0366
      8  CE2      -16.5370  -11.0480   -4.1230 C.ar  469  544469      0.0366
      9  CZ       -17.1890  -11.2500   -5.4180 C.ar  469  544469      0.1385
     10  OH       -16.5310  -11.3270   -6.6570 O.3   469  544469     -0.4750
     11  C1A      -19.9730  -14.9840   -1.7440 C.2   469  544469      0.0402
     12  C1F      -20.3510  -15.7500   -2.8230 C.3   469  544469      0.1099
     13  C1B      -19.5260  -15.7020   -0.4520 C.3   469  544469      0.0473
     14  C1H      -21.1270  -16.2130   -5.3210 C.ar  469  544469      0.0351
     15  C1I      -21.4670  -15.6880   -6.6250 C.ar  469  544469      0.0029
     16  C1J      -21.7310  -16.5590   -7.7200 C.ar  469  544469      0.0001
     17  C1K      -21.6570  -17.9640   -7.5310 C.ar  469  544469      0.0000
     18  C1L      -21.3240  -18.5030   -6.2540 C.ar  469  544469      0.0001
     19  C1M      -21.0600  -17.6410   -5.1550 C.ar  469  544469      0.0029
     20  C1G      -20.8540  -15.2890   -4.2480 C.2   469  544469      0.1786
     21  O1G      -21.0410  -14.0790   -4.4500 O.2   469  544469     -0.2909
     22  O3F      -15.5480  -15.4250   -8.8330 O.2   469  544469     -0.4486
     23  C3G      -14.1670  -15.4630   -8.6260 C.2   469  544469      0.2771
     24  N3H      -13.6830  -14.1770   -8.3420 N.2   469  544469     -0.3728
     25  C3C      -14.8000  -13.3560   -8.3900 C.2   469  544469      0.1336
     26  C3D      -15.9500  -14.1450   -8.6950 C.3   469  544469      0.2161
     27  C3E      -17.4200  -13.6920   -8.8580 C.3   469  544469      0.0549
     28  C3I      -13.3750  -16.6320   -8.6980 C.ar  469  544469      0.0660
     29  C3N      -11.9300  -16.6070   -8.4790 C.ar  469  544469      0.0058
     30  C3M      -11.1600  -17.7980   -8.5680 C.ar  469  544469      0.0002
     31  C3L      -11.7830  -19.0260   -8.8690 C.ar  469  544469      0.0000
     32  C3K      -13.1900  -19.0780   -9.0850 C.ar  469  544469      0.0002
     33  C3J      -13.9860  -17.8890   -9.0010 C.ar  469  544469      0.0058
     34  C3A      -15.0780  -11.4430   -6.7040 C.3   469  544469      0.2126
     35  C3B      -14.6980  -11.8190   -8.1390 C.3   469  544469      0.1055
     36  O2       -19.1070  -12.1830    1.3180 O.co2 469  544469     -0.2435
     37  O1       -21.1600  -12.7460    0.8070 O.co2 469  544469     -0.2435
     38  C        -19.9970  -12.4660    0.4840 C.2   469  544469      0.3869
@<TRIPOS>BOND
     1    32    33   ar
     2    32    31   ar
     3    33    28   ar
     4    31    30   ar
     5    27    26    1
     6    22    26    1
     7    22    23    1
     8    28    23    1
     9    28    29   ar
    10    26    25    1
    11    23    24    2
    12    30    29   ar
    13    25    24    2
    14    25    35    1
    15    35    34    1
    16    16    17   ar
    17    16    15   ar
    18    17    18   ar
    19    34    10    1
    20    10     9    1
    21    15    14   ar
    22    18    19   ar
    23     7     9   ar
    24     7     5   ar
    25     9     8   ar
    26    14    19   ar
    27    14    20    1
    28    21    20    2
    29     5     4   ar
    30    20    12    1
    31     8     6   ar
    32     4     6   ar
    33     4     3    1
    34    12    11    1
    35     1    11    2
    36     1     2    1
    37    11    13    1
    38     3     2    1
    39     2    38    1
    40    38    37   ar
    41    38    36   ar
