@<TRIPOS>MOLECULE
1k7s_ALB_N_1.pdb
 41 45 0 0 0
SMALL
GASTEIGER

@<TRIPOS>ATOM
      1  C1        22.1820    7.5890   30.9320 C.3   500  ALB500      0.0000
      2  C2        26.9510    5.0230   33.7240 C.1   500  ALB500      0.0000
      3  C3        26.6260    8.7690   29.2760 C.3   500  ALB500      0.0000
      4  C4        28.5830    3.6010   31.3780 C.1   500  ALB500      0.0000
      5  C5        24.5160    4.8170   27.7850 C.3   500  ALB500      0.0000
      6  C6        24.6710    4.2240   34.0690 C.3   500  ALB500      0.0000
      7  C7        28.0350    5.5340   32.7620 C.3   500  ALB500      0.0000
      8  C8        28.5220    2.9460   30.0010 C.3   500  ALB500      0.0000
      9  C9        23.4140    5.0460   33.7660 C.3   500  ALB500      0.0000
     10  C10       27.8680    7.0430   32.4990 C.3   500  ALB500      0.0000
     11  C11       27.1570    3.1480   29.3290 C.3   500  ALB500      0.0000
     12  C12       23.5360    6.4800   34.2360 C.3   500  ALB500      0.0000
     13  C13       28.9840    7.6750   31.6430 C.3   500  ALB500      0.0000
     14  C14       25.9970    2.3690   29.9270 C.3   500  ALB500      0.0000
     15  C15       22.7130    7.4700   33.4120 C.3   500  ALB500      0.0000
     16  C16       28.7170    7.5990   30.1200 C.3   500  ALB500      0.0000
     17  C17       24.6720    2.7160   29.2420 C.3   500  ALB500      0.0000
     18  C18       27.1240   10.1290   28.7540 C.3   500  ALB500      0.0000
     19  C19       20.6630    7.9180   30.9640 C.3   500  ALB500      0.0000
     20  C20       24.6260    4.0670   26.4290 C.3   500  ALB500      0.0000
     21  C21       24.4020    2.7280   33.8910 C.2   500  ALB500      0.0000
     22  C22       25.3120    0.5460   33.3980 C.3   500  ALB500      0.0000
     23  C24       26.5740   -0.0580   32.8590 C.2   500  ALB500      0.0000
     24 FE         24.6370    6.8680   29.7060 Fe    500  ALB500      0.0000
     25  N1        25.7770    4.6740   33.2070 N.2   500  ALB500      0.0000
     26  N2        28.0180    4.8030   31.4920 N.2   500  ALB500      0.0000
     27  N3        23.0010    7.3860   31.9700 N.4   500  ALB500      0.0000
     28  N4        27.2920    7.7390   29.7760 N.4   500  ALB500      0.0000
     29  N5        24.5580    4.1590   28.9530 N.4   500  ALB500      0.0000
     30  N6        25.4490    1.9700   33.5800 N.am  500  ALB500      0.0000
     31  N12       28.7940    1.5180   30.1470 N.3   500  ALB500      0.0000
     32  O1        22.6720    7.4530   29.7650 O.3   500  ALB500      0.0000
     33  O2        27.1810    4.9370   34.9250 O.2   500  ALB500      0.0000
     34  O3        25.3600    8.6340   29.0940 O.3   500  ALB500      0.0000
     35  O4        29.1390    3.0390   32.3250 O.2   500  ALB500      0.0000
     36  O5        24.4480    6.0990   27.8360 O.3   500  ALB500      0.0000
     37  O6        24.3110    7.0460   31.6830 O.3   500  ALB500      0.0000
     38  O7        26.5520    6.5880   30.0140 O.3   500  ALB500      0.0000
     39  O8        24.4680    4.9060   30.0850 O.3   500  ALB500      0.0000
     40  O9        23.2750    2.2780   34.0390 O.2   500  ALB500      0.0000
     41  O11       27.4800    0.6110   32.4050 O.2   500  ALB500      0.0000
@<TRIPOS>BOND
     1    20     5    1
     2     5    36    1
     3     5    29    1
     4    36    24    1
     5    18     3    1
     6    29    17    1
     7    29    39    1
     8    34     3    1
     9    34    24    1
    10    17    14    1
    11     3    28    1
    12    11    14    1
    13    11     8    1
    14    24    32    1
    15    24    38    1
    16    24    39    1
    17    24    37    1
    18    32     1    1
    19    28    38    1
    20    28    16    1
    21     8    31    1
    22     8     4    1
    23    16    13    1
    24     1    19    1
    25     1    27    1
    26     4    26    2
    27     4    35    2
    28    26     7    1
    29    13    10    1
    30    37    27    1
    31    27    15    1
    32    41    23    2
    33    10     7    1
    34     7     2    1
    35    23    22    1
    36    25     2    2
    37    25     6    1
    38    22    30    1
    39    15    12    1
    40    30    21   am
    41     2    33    2
    42     9     6    1
    43     9    12    1
    44    21    40    2
    45    21     6    1
