@<TRIPOS>MOLECULE
1k7t_NAG_A_1.pdb
 14 14 0 0 0
SMALL
GASTEIGER

@<TRIPOS>ATOM
      1  C1         3.7550   51.5640   22.3950 C.3   187  NAG187      0.1665
      2  C2         3.5770   51.0120   20.9870 C.3   187  NAG187      0.1576
      3  C3         4.7770   50.1060   20.6680 C.3   187  NAG187      0.2069
      4  C4         6.1060   50.8410   20.9360 C.3   187  NAG187      0.2134
      5  C5         6.1150   51.5630   22.3000 C.3   187  NAG187      0.1809
      6  C6         7.3200   52.4770   22.5150 C.3   187  NAG187      0.2141
      7  C7         1.3180   50.7650   20.1450 C.2   187  NAG187      0.2420
      8  C8         0.0370   49.9350   20.1120 C.3   187  NAG187      0.0964
      9  N2         2.3270   50.2780   20.8810 N.am  187  NAG187     -0.2019
     10  O3         4.7340   49.7090   19.3010 O.3   187  NAG187     -0.2184
     11  O4         7.1820   49.9140   20.8870 O.3   187  NAG187     -0.2176
     12  O5         4.9200   52.3710   22.4560 O.3   187  NAG187     -0.3489
     13  O6         6.9260   53.8090   22.8460 O.3   187  NAG187     -0.2176
     14  O7         1.4130   51.8080   19.4750 O.2   187  NAG187     -0.2733
@<TRIPOS>BOND
     1    10     3    1
     2    14     7    2
     3     8     7    1
     4     7     9   am
     5     3     4    1
     6     3     2    1
     7     9     2    1
     8    11     4    1
     9     4     5    1
    10     2     1    1
    11     5    12    1
    12     5     6    1
    13     1    12    1
    14     6    13    1
