@<TRIPOS>MOLECULE
1k7u_NAG_A_1.pdb
 14 14 0 0 0
SMALL
GASTEIGER

@<TRIPOS>ATOM
      1  C1         3.4420   52.1910   22.3270 C.3   187  NAG187      0.1665
      2  C2         3.3170   51.6270   20.9300 C.3   187  NAG187      0.1576
      3  C3         4.4380   50.6300   20.6990 C.3   187  NAG187      0.2069
      4  C4         5.7870   51.2690   20.9770 C.3   187  NAG187      0.2134
      5  C5         5.8060   51.8800   22.3760 C.3   187  NAG187      0.1809
      6  C6         7.1120   52.6170   22.6710 C.3   187  NAG187      0.2141
      7  C7         1.0550   51.4100   20.1280 C.2   187  NAG187      0.2420
      8  C8        -0.1970   50.5460   20.1540 C.3   187  NAG187      0.0964
      9  N2         2.0620   50.9290   20.8370 N.am  187  NAG187     -0.2019
     10  O3         4.3970   50.1610   19.3620 O.3   187  NAG187     -0.2184
     11  O4         6.7840   50.2690   20.8930 O.3   187  NAG187     -0.2176
     12  O5         4.7120   52.8180   22.5090 O.3   187  NAG187     -0.3489
     13  O6         7.3480   52.7230   24.0690 O.3   187  NAG187     -0.2176
     14  O7         1.1090   52.4700   19.5040 O.2   187  NAG187     -0.2733
@<TRIPOS>BOND
     1    10     3    1
     2    14     7    2
     3     7     8    1
     4     7     9   am
     5     3     2    1
     6     3     4    1
     7     9     2    1
     8    11     4    1
     9     2     1    1
    10     4     5    1
    11     1    12    1
    12     5    12    1
    13     5     6    1
    14     6    13    1
