@<TRIPOS>MOLECULE
1k7v_BGC_B_1.pdb
 12 12 0 0 0
SMALL
GASTEIGER

@<TRIPOS>ATOM
      1  C2         0.0410  -43.7740  -20.3380 C.3   189  BGC189      0.2434
      2  C3        -0.0730  -42.4300  -21.0570 C.3   189  BGC189      0.2199
      3  C4         1.2910  -41.7100  -20.9030 C.3   189  BGC189      0.2144
      4  C5         2.4980  -42.6280  -21.3510 C.3   189  BGC189      0.1836
      5  C6         3.8590  -42.1930  -20.7750 C.3   189  BGC189      0.2142
      6  C1         1.0530  -44.5830  -21.1510 C.3   189  BGC189      0.3024
      7  O1         1.0770  -45.9140  -20.7370 O.3   189  BGC189     -0.1869
      8  O2        -1.2130  -44.4340  -20.2170 O.3   189  BGC189     -0.2148
      9  O3        -1.1340  -41.6720  -20.4960 O.3   189  BGC189     -0.2174
     10  O4         1.2920  -40.4830  -21.6890 O.3   189  BGC189     -0.2176
     11  O5         2.3550  -44.0280  -20.9430 O.3   189  BGC189     -0.3236
     12  O6         3.8340  -41.9850  -19.3550 O.3   189  BGC189     -0.2176
@<TRIPOS>BOND
     1    10     3    1
     2     4    11    1
     3     4     3    1
     4     4     5    1
     5     6    11    1
     6     6     7    1
     7     6     1    1
     8     2     3    1
     9     2     9    1
    10     2     1    1
    11     5    12    1
    12     1     8    1
