@<TRIPOS>MOLECULE
1k7v_NAG_A_1.pdb
 14 14 0 0 0
SMALL
GASTEIGER

@<TRIPOS>ATOM
      1  C1        20.1250  -52.3540   10.7950 C.3   187  NAG187      0.1665
      2  C2        18.8730  -51.7190   10.1780 C.3   187  NAG187      0.1576
      3  C3        18.1580  -50.8070   11.1620 C.3   187  NAG187      0.2069
      4  C4        17.8900  -51.5710   12.4500 C.3   187  NAG187      0.2134
      5  C5        19.1700  -52.1860   13.0070 C.3   187  NAG187      0.1809
      6  C6        18.8730  -53.0160   14.2610 C.3   187  NAG187      0.2141
      7  C7        18.6710  -51.3220    7.8230 C.2   187  NAG187      0.2420
      8  C8        19.0860  -50.4820    6.6250 C.3   187  NAG187      0.0964
      9  N2        19.2060  -50.9780    8.9860 N.am  187  NAG187     -0.2019
     10  O3        16.9290  -50.3780   10.5890 O.3   187  NAG187     -0.2184
     11  O4        17.3400  -50.7040   13.4130 O.3   187  NAG187     -0.2176
     12  O5        19.7730  -53.0580   12.0100 O.3   187  NAG187     -0.3489
     13  O6        19.9360  -53.9080   14.5740 O.3   187  NAG187     -0.2176
     14  O7        17.8630  -52.2460    7.7090 O.2   187  NAG187     -0.2733
@<TRIPOS>BOND
     1     8     7    1
     2    14     7    2
     3     7     9   am
     4     9     2    1
     5     2     1    1
     6     2     3    1
     7    10     3    1
     8     1    12    1
     9     3     4    1
    10    12     5    1
    11     4     5    1
    12     4    11    1
    13     5     6    1
    14     6    13    1
