@<TRIPOS>MOLECULE
1k7w_AS1_A_1.pdb
 20 19 0 0 0
SMALL
GASTEIGER

@<TRIPOS>ATOM
      1  O51        6.8000    6.9980   44.8990 O.co2 1004  AS11004    -0.2441
      2  O52        6.4420    9.1190   45.2230 O.co2 1004  AS11004    -0.2441
      3  C5         6.0770    7.9210   45.2570 C.2   1004  AS11004     0.3819
      4  C4         4.7100    7.4510   45.7450 C.3   1004  AS11004     0.1948
      5  N4         4.3790    6.1200   45.3610 N.3   1004  AS11004    -0.1208
      6  C3         4.6280    7.5230   47.2820 C.3   1004  AS11004     0.0385
      7  C2         4.3350    8.9860   47.5960 C.3   1004  AS11004     0.0690
      8  C1         2.9720    9.6840   47.4640 C.2   1004  AS11004     0.1663
      9  N2         2.6580   11.0450   47.7620 N.pl3 1004  AS11004    -0.0652
     10  C          1.3550   11.6180   47.6260 C.cat 1004  AS11004     0.5000
     11  N3         0.2780   10.7540   47.1540 N.pl3 1004  AS11004     0.1321
     12  N1         0.8800   12.9710   47.8890 N.pl3 1004  AS11004    -0.0806
     13  CA        -0.2490   13.9690   47.7680 C.3   1004  AS11004     0.2904
     14  CG        -1.6970   13.4920   47.6000 C.2   1004  AS11004     0.4042
     15  OG2       -2.3810   13.7870   46.5220 O.co2 1004  AS11004    -0.2418
     16  OG1       -2.2200   12.8100   48.5060 O.co2 1004  AS11004    -0.2418
     17  CB        -0.1340   15.5070   47.7880 C.3   1004  AS11004     0.1548
     18  CD         0.5570   15.8700   49.1110 C.3   1004  AS11004     0.4301
     19  OD1        0.0920   16.9510   49.6850 O.2   1004  AS11004    -0.2669
     20  OD2        1.7280   15.8990   48.6610 O.2   1004  AS11004    -0.2669
@<TRIPOS>BOND
     1     1     3   ar
     2     2     3   ar
     3     3     4    1
     4     5     4    1
     5     4     6    1
     6    15    14   ar
     7    11    10    2
     8     6     7    1
     9     8     7    1
    10     8     9    2
    11    14    13    1
    12    14    16   ar
    13    10     9    1
    14    10    12    1
    15    13    17    1
    16    13    12    1
    17    17    18    1
    18    20    18    1
    19    18    19    1
