@<TRIPOS>MOLECULE
1k7x_PLP_B_1.pdb
 15 15 0 0 0
SMALL
GASTEIGER

@<TRIPOS>ATOM
      1  N1        85.1240   13.7360   11.8720 N.ar  400  PLP400     -0.2452
      2  C2        84.9880   14.2130   10.6210 C.ar  400  PLP400      0.0978
      3  C2A       86.2430   14.0620    9.6600 C.3   400  PLP400      0.0555
      4  C3        83.7740   14.7970   10.2370 C.ar  400  PLP400      0.2049
      5  O3        83.6690   15.2140    8.9280 O.3   400  PLP400     -0.2857
      6  C4        82.7190   14.8760   11.1470 C.ar  400  PLP400      0.0182
      7  C4A       81.4580   15.4830   10.7850 C.3   400  PLP400      0.0342
      8  C5        82.8740   14.4040   12.4350 C.ar  400  PLP400      0.0261
      9  C6        84.0510   13.8600   12.6830 C.ar  400  PLP400      0.0965
     10  C5A       81.6130   14.6240   13.4100 C.3   400  PLP400      0.1815
     11  O4P       80.3080   13.8700   13.1940 O.3   400  PLP400     -0.2653
     12  P         80.1170   12.5110   13.9120 P.3   400  PLP400      0.5329
     13  O1P       78.7520   12.2190   13.5700 O.3   400  PLP400     -0.1145
     14  O2P       80.3190   12.7080   15.3820 O.3   400  PLP400     -0.1145
     15  O3P       81.1130   11.5020   13.4250 O.2   400  PLP400     -0.2224
@<TRIPOS>BOND
     1     5     4    1
     2     3     2    1
     3     4     2   ar
     4     4     6   ar
     5     2     1   ar
     6     7     6    1
     7     6     8   ar
     8     1     9   ar
     9     8     9   ar
    10     8    10    1
    11    11    10    1
    12    11    12    1
    13    15    12    2
    14    13    12    1
    15    12    14    1
