@<TRIPOS>MOLECULE
1k8c_NAP_A_1.pdb
 48 52 0 0 0
SMALL
GASTEIGER

@<TRIPOS>ATOM
      1  PA        27.6570   23.4960   69.0140 P.3   1350  NAP1350     0.2189
      2  O1A       27.4940   23.8820   67.6650 O.2   1350  NAP1350    -0.5170
      3  O2A       28.9600   23.4300   69.7740 O.3   1350  NAP1350    -0.4371
      4  O5B       26.9760   22.0590   69.2850 O.3   1350  NAP1350    -0.3112
      5  C5B       27.3450   21.0300   68.3910 C.3   1350  NAP1350     0.1813
      6  C4B       26.5910   19.7310   68.8130 C.3   1350  NAP1350     0.1820
      7  O4B       27.1580   18.8960   67.7540 O.3   1350  NAP1350    -0.3136
      8  C3B       27.1160   19.1150   70.1180 C.3   1350  NAP1350     0.2157
      9  O3B       25.9560   18.5480   70.7050 O.3   1350  NAP1350    -0.2175
     10  C2B       28.1130   18.0380   69.7500 C.3   1350  NAP1350     0.2314
     11  O2B       27.9050   16.7720   70.3710 O.3   1350  NAP1350    -0.2630
     12  C1B       28.0420   17.9020   68.1890 C.3   1350  NAP1350     0.3158
     13  N9A       29.3470   18.1790   67.6000 N.pl3 1350  NAP1350    -0.1439
     14  C8A       30.3620   19.0230   67.9980 C.3   1350  NAP1350     0.3377
     15  N7A       31.4160   19.0250   67.2050 N.2   1350  NAP1350    -0.2095
     16  C5A       31.0660   18.1190   66.2170 C.2   1350  NAP1350     0.2526
     17  C6A       31.7880   17.6950   65.0860 C.2   1350  NAP1350     0.4393
     18  N6A       33.0160   18.0950   64.7090 N.pl3 1350  NAP1350     0.2180
     19  N1A       31.1650   16.7480   64.2520 N.2   1350  NAP1350     0.0021
     20  C2A       29.8840   16.2570   64.5410 C.3   1350  NAP1350     0.5254
     21  N3A       29.1490   16.6600   65.6510 N.2   1350  NAP1350    -0.0055
     22  C4A       29.7820   17.5920   66.4610 C.2   1350  NAP1350     0.3518
     23  O3        26.6920   24.3780   69.8500 O.3   1350  NAP1350    -0.2703
     24  PN        26.4860   24.5690   71.3840 P.3   1350  NAP1350     0.2189
     25  O1N       27.6210   24.0270   72.1550 O.3   1350  NAP1350    -0.4371
     26  O2N       25.1400   24.0000   71.6640 O.2   1350  NAP1350    -0.5170
     27  O5D       26.5360   26.1370   71.4460 O.3   1350  NAP1350    -0.3112
     28  C5D       27.7160   26.8050   70.8960 C.3   1350  NAP1350     0.1813
     29  C4D       28.4390   27.5300   72.0100 C.3   1350  NAP1350     0.1799
     30  O4D       28.1860   28.9550   71.8690 O.3   1350  NAP1350    -0.3327
     31  C3D       28.0340   27.1960   73.5070 C.3   1350  NAP1350     0.2158
     32  O3D       28.8180   26.1740   74.1320 O.3   1350  NAP1350    -0.2175
     33  C2D       28.1110   28.5500   74.2100 C.3   1350  NAP1350     0.2309
     34  O2D       29.3830   28.8290   74.7590 O.3   1350  NAP1350    -0.2158
     35  C1D       27.7670   29.5380   73.1520 C.3   1350  NAP1350     0.2263
     36  N1N       26.3110   29.9610   73.0800 N.pl3 1350  NAP1350    -0.2787
     37  C2N       25.9510   31.2970   73.2980 C.3   1350  NAP1350     0.1244
     38  C3N       24.5980   31.6370   73.2640 C.2   1350  NAP1350     0.0544
     39  C7N       24.2140   33.0860   73.5110 C.2   1350  NAP1350     0.2818
     40  O7N       23.0370   33.3290   73.4920 O.2   1350  NAP1350    -0.2670
     41  N7N       25.1260   34.0070   73.7380 N.am  1350  NAP1350    -0.0839
     42  C4N       23.5470   30.6440   73.0100 C.2   1350  NAP1350     0.0033
     43  C5N       23.9480   29.3100   72.7850 C.2   1350  NAP1350     0.0157
     44  C6N       25.3240   28.9390   72.8160 C.2   1350  NAP1350     0.0633
     45  P2B       29.1270   15.8440   70.9580 P.3   1350  NAP1350     0.5328
     46  O1X       30.1870   15.7440   69.8370 O.2   1350  NAP1350    -0.2224
     47  O2X       29.5650   16.6520   72.1390 O.3   1350  NAP1350    -0.1145
     48  O3X       28.5240   14.4860   71.2690 O.3   1350  NAP1350    -0.1145
@<TRIPOS>BOND
     1    19    20    1
     2    19    17    2
     3    20    21    1
     4    18    17    1
     5    17    16    1
     6    21    22    2
     7    16    22    1
     8    16    15    2
     9    22    13    1
    10    15    14    1
    11    13    14    1
    12    13    12    1
    13     2     1    2
    14     7    12    1
    15     7     6    1
    16    12    10    1
    17     5     6    1
    18     5     4    1
    19     6     8    1
    20     1     4    1
    21     1     3    1
    22     1    23    1
    23    10     8    1
    24    10    11    1
    25    46    45    2
    26    23    24    1
    27     8     9    1
    28    11    45    1
    29    28    27    1
    30    28    29    1
    31    45    48    1
    32    45    47    1
    33    24    27    1
    34    24    26    2
    35    24    25    1
    36    30    29    1
    37    30    35    1
    38    29    31    1
    39    43    44    2
    40    43    42    1
    41    44    36    1
    42    42    38    2
    43    36    35    1
    44    36    37    1
    45    35    33    1
    46    38    37    1
    47    38    39    1
    48    40    39    2
    49    31    32    1
    50    31    33    1
    51    39    41   am
    52    33    34    1
