@<TRIPOS>MOLECULE
1k8q_BOG_A_1.pdb
 20 20 0 0 0
SMALL
GASTEIGER

@<TRIPOS>ATOM
      1  C1        27.0330   85.1870   33.5270 C.3   1006  BOG1006     0.2695
      2  O1        26.0690   84.2280   33.0950 O.3   1006  BOG1006    -0.3286
      3  C2        26.8470   85.5150   35.0180 C.3   1006  BOG1006     0.2406
      4  O2        25.5320   85.9950   35.2660 O.3   1006  BOG1006    -0.2149
      5  C3        27.8630   86.5780   35.4370 C.3   1006  BOG1006     0.2198
      6  O3        27.7880   86.7660   36.8430 O.3   1006  BOG1006    -0.2174
      7  C4        29.2990   86.1760   35.0440 C.3   1006  BOG1006     0.2144
      8  O4        30.1780   87.2780   35.2400 O.3   1006  BOG1006    -0.2176
      9  C5        29.3800   85.7350   33.5780 C.3   1006  BOG1006     0.1835
     10  O5        28.3830   84.7260   33.3030 O.3   1006  BOG1006    -0.3256
     11  C6        30.7750   85.1720   33.2830 C.3   1006  BOG1006     0.2142
     12  O6        30.9290   83.9010   33.9060 O.3   1006  BOG1006    -0.2176
     13  C1'       26.0430   84.0910   31.6760 C.3   1006  BOG1006     0.1449
     14  C2'       26.7290   82.7890   31.2450 C.3   1006  BOG1006     0.0322
     15  C3'       26.7920   82.7180   29.7170 C.3   1006  BOG1006     0.0026
     16  C4'       27.0560   81.2900   29.2320 C.3   1006  BOG1006     0.0001
     17  C5'       27.0800   81.2130   27.6950 C.3   1006  BOG1006     0.0000
     18  C6'       25.7200   81.5820   27.0800 C.3   1006  BOG1006     0.0000
     19  C7'       25.6410   81.2080   25.5980 C.3   1006  BOG1006     0.0000
     20  C8'       26.4050   82.2040   24.7310 C.3   1006  BOG1006     0.0000
@<TRIPOS>BOND
     1    20    19    1
     2    19    18    1
     3    18    17    1
     4    17    16    1
     5    16    15    1
     6    15    14    1
     7    14    13    1
     8    13     2    1
     9     2     1    1
    10    11     9    1
    11    11    12    1
    12    10     1    1
    13    10     9    1
    14     1     3    1
    15     9     7    1
    16     3     4    1
    17     3     5    1
    18     7     8    1
    19     7     5    1
    20     5     6    1
