@<TRIPOS>MOLECULE
1k8q_C11_A_1.pdb
 18 17 0 0 0
SMALL
GASTEIGER

@<TRIPOS>ATOM
      1  C1        31.4480   81.1770   23.2190 C.3   2001  C112001     0.0809
      2  C2        30.6540   80.6960   24.4260 C.3   2001  C112001     0.0095
      3  C3        30.4810   81.8410   25.4340 C.3   2001  C112001     0.0005
      4  C4        30.9170   81.3790   26.8270 C.3   2001  C112001     0.0000
      5  C5        31.4110   82.5740   27.6400 C.3   2001  C112001     0.0000
      6  C6        32.7510   82.2330   28.2920 C.3   2001  C112001     0.0000
      7  C7        33.5130   83.5170   28.6330 C.3   2001  C112001     0.0000
      8  C8        35.0140   83.3150   28.4050 C.3   2001  C112001     0.0000
      9  C9        35.4540   84.1550   27.2110 C.3   2001  C112001     0.0000
     10  C10       36.6430   85.0260   27.5880 C.3   2001  C112001     0.0000
     11  C11       37.2470   85.6420   26.3270 C.3   2001  C112001     0.0000
     12  P         32.0270   80.1670   22.1010 P.3   2001  C112001     0.2200
     13  O1P       31.7490   78.6410   22.4980 O.3   2001  C112001    -0.1774
     14  O2P       33.6230   80.4210   21.8780 O.3   2001  C112001    -0.3173
     15  CY1       34.6110   80.0400   22.8330 C.3   2001  C112001     0.1486
     16  CY2       35.7930   80.9610   22.6090 C.3   2001  C112001     0.0325
     17  CY3       36.0930   81.7120   23.9090 C.3   2001  C112001     0.0026
     18  CY4       37.5810   82.0580   23.9870 C.3   2001  C112001     0.0001
@<TRIPOS>BOND
     1    14    12    1
     2    14    15    1
     3    12    13    1
     4    12     1    1
     5    16    15    1
     6    16    17    1
     7     1     2    1
     8    17    18    1
     9     2     3    1
    10     3     4    1
    11    11    10    1
    12     4     5    1
    13     9    10    1
    14     9     8    1
    15     5     6    1
    16     6     7    1
    17     8     7    1
