@<TRIPOS>MOLECULE
1k8r_GNP_A_1.pdb
 32 34 0 0 0
SMALL
GASTEIGER

@<TRIPOS>ATOM
      1  PG        54.0580   44.2930    7.2570 P.3   167  GNP167      0.4884
      2  O1G       54.9520   44.5220    8.3540 O.3   167  GNP167     -0.1240
      3  O2G       52.6900   44.5060    7.6830 O.3   167  GNP167     -0.1240
      4  O3G       54.1860   42.7870    7.0330 O.2   167  GNP167     -0.2331
      5  N3B       54.4340   45.0460    5.8780 N.3   167  GNP167     -0.0163
      6  PB        53.4070   45.1240    4.6000 P.3   167  GNP167      0.4669
      7  O1B       53.6020   44.1020    3.5890 O.2   167  GNP167     -0.2351
      8  O2B       52.0170   45.2680    4.9730 O.3   167  GNP167     -0.1253
      9  O3A       53.7550   46.4980    3.8640 O.3   167  GNP167     -0.2360
     10  PA        52.8840   47.8460    3.7560 P.3   167  GNP167      0.2220
     11  O1A       51.6970   47.5980    2.9440 O.2   167  GNP167     -0.5170
     12  O2A       52.7110   48.4330    5.1040 O.3   167  GNP167     -0.4370
     13  O5'       53.8980   48.7180    2.8940 O.3   167  GNP167     -0.3111
     14  C5'       55.0710   49.2480    3.5380 C.3   167  GNP167      0.1813
     15  C4'       55.4500   50.5960    2.9270 C.3   167  GNP167      0.1799
     16  O4'       55.6230   50.4470    1.5240 O.3   167  GNP167     -0.3326
     17  C3'       54.3990   51.6910    3.1500 C.3   167  GNP167      0.2158
     18  O3'       55.0360   52.9310    3.4170 O.3   167  GNP167     -0.2175
     19  C2'       53.6850   51.7550    1.7980 C.3   167  GNP167      0.2310
     20  O2'       53.2450   53.0760    1.4870 O.3   167  GNP167     -0.2158
     21  C1'       54.7820   51.3410    0.8190 C.3   167  GNP167      0.2293
     22  N9        54.1990   50.6430   -0.2970 N.pl3 167  GNP167     -0.2354
     23  C8        53.4020   49.5210   -0.2780 C.3   167  GNP167      0.2246
     24  N7        52.7910   49.2890   -1.3750 N.2   167  GNP167     -0.2322
     25  C5        53.4610   50.1270   -2.2950 C.2   167  GNP167      0.2182
     26  C6        53.3650   50.2490   -3.7410 C.1   167  GNP167      0.2372
     27  O6        52.6370   49.6450   -4.5080 O.2   167  GNP167     -0.2069
     28  N1        54.2350   51.1900   -4.2710 N.2   167  GNP167     -0.2485
     29  C2        55.1020   51.9720   -3.5730 C.1   167  GNP167      0.2531
     30  N2        55.8770   52.8320   -4.2540 N.pl3 167  GNP167     -0.0226
     31  N3        55.2080   51.8940   -2.1930 N.2   167  GNP167     -0.3074
     32  C4        54.3490   50.9570   -1.6240 C.2   167  GNP167      0.2300
@<TRIPOS>BOND
     1    27    26    2
     2    28    26    2
     3    28    29    2
     4    30    29    1
     5    26    25    1
     6    29    31    2
     7    25    32    1
     8    25    24    2
     9    31    32    2
    10    32    22    1
    11    24    23    1
    12    22    23    1
    13    22    21    1
    14    21    16    1
    15    21    19    1
    16    20    19    1
    17    16    15    1
    18    19    17    1
    19    13    14    1
    20    13    10    1
    21    15    17    1
    22    15    14    1
    23    11    10    2
    24    17    18    1
    25     7     6    2
    26    10     9    1
    27    10    12    1
    28     9     6    1
    29     6     8    1
    30     6     5    1
    31     5     1    1
    32     4     1    2
    33     1     3    1
    34     1     2    1
