@<TRIPOS>MOLECULE
1k8x_PLP_B_1.pdb
 15 15 0 0 0
SMALL
GASTEIGER

@<TRIPOS>ATOM
      1  N1        84.2880   13.2280   11.9250 N.ar  500  PLP500     -0.2452
      2  C2        84.2100   13.6400   10.6300 C.ar  500  PLP500      0.0978
      3  C2A       85.4060   13.5890    9.7660 C.3   500  PLP500      0.0555
      4  C3        83.0500   14.1820   10.1560 C.ar  500  PLP500      0.2049
      5  O3        82.9780   14.5840    8.8690 O.3   500  PLP500     -0.2857
      6  C4        81.9620   14.3280   10.9810 C.ar  500  PLP500      0.0182
      7  C4A       80.6110   14.8650   10.3760 C.3   500  PLP500      0.0342
      8  C5        82.0520   13.9330   12.3030 C.ar  500  PLP500      0.0261
      9  C6        83.2110   13.3770   12.7580 C.ar  500  PLP500      0.0965
     10  C5A       80.8380   14.1870   13.3450 C.3   500  PLP500      0.1815
     11  O4P       79.6800   13.3760   13.1410 O.3   500  PLP500     -0.2653
     12  P         79.3030   12.0350   13.8720 P.3   500  PLP500      0.5329
     13  O1P       77.9570   11.7800   13.3850 O.2   500  PLP500     -0.2224
     14  O2P       79.4270   12.3520   15.3240 O.3   500  PLP500     -0.1145
     15  O3P       80.3080   11.0670   13.4310 O.3   500  PLP500     -0.1145
@<TRIPOS>BOND
     1     5     4    1
     2     3     2    1
     3     4     2   ar
     4     4     6   ar
     5     7     6    1
     6     2     1   ar
     7     6     8   ar
     8     1     9   ar
     9     8     9   ar
    10     8    10    1
    11    11    10    1
    12    11    12    1
    13    13    12    2
    14    15    12    1
    15    12    14    1
