@<TRIPOS>MOLECULE
1k8y_13P_A_1.pdb
 10 9 0 0 0
SMALL
GASTEIGER

@<TRIPOS>ATOM
      1  P         48.2230   29.4310    9.9790 P.3   701  13P701      0.5327
      2  O1P       48.4130   28.8380    8.5390 O.2   701  13P701     -0.2224
      3  O2P       49.5490   30.1930   10.5380 O.3   701  13P701     -0.1145
      4  O3P       46.8430   30.2210   10.1050 O.3   701  13P701     -0.1145
      5  O1        47.9900   28.1490   10.8830 O.3   701  13P701     -0.2674
      6  C1        47.6480   28.4530   12.2570 C.3   701  13P701      0.1892
      7  C2        49.0000   28.2490   13.0990 C.3   701  13P701      0.2147
      8  O2        49.5450   29.5510   13.0520 O.3   701  13P701     -0.2176
      9  C3        48.8550   28.2440   14.6940 C.3   701  13P701      0.2174
     10  O3        47.8710   27.1270   14.9170 O.3   701  13P701     -0.2175
@<TRIPOS>BOND
     1     2     1    2
     2     1     4    1
     3     1     3    1
     4     1     5    1
     5     5     6    1
     6     6     7    1
     7     8     7    1
     8     7     9    1
     9     9    10    1
