@<TRIPOS>MOLECULE
1k8y_PLP_B_1.pdb
 15 15 0 0 0
SMALL
GASTEIGER

@<TRIPOS>ATOM
      1  N1        84.6670   13.7350   11.8350 N.ar  702  PLP702     -0.2452
      2  C2        84.5320   14.2110   10.5930 C.ar  702  PLP702      0.0978
      3  C2A       85.8070   14.1020    9.8260 C.3   702  PLP702      0.0555
      4  C3        83.4220   14.8180   10.2480 C.ar  702  PLP702      0.2049
      5  O3        83.3480   15.2740    8.9320 O.3   702  PLP702     -0.2857
      6  C4        82.3560   14.8910   11.0350 C.ar  702  PLP702      0.0182
      7  C4A       81.0920   15.5480   10.6120 C.3   702  PLP702      0.0342
      8  C5        82.4390   14.4500   12.3660 C.ar  702  PLP702      0.0261
      9  C6        83.5710   13.8470   12.7060 C.ar  702  PLP702      0.0965
     10  C5A       81.3030   14.5200   13.4430 C.3   702  PLP702      0.1815
     11  O4P       80.0820   13.7640   13.1800 O.3   702  PLP702     -0.2653
     12  P         79.7750   12.4760   13.8900 P.3   702  PLP702      0.5329
     13  O1P       78.3860   12.1440   13.4560 O.3   702  PLP702     -0.1145
     14  O2P       79.8790   12.6580   15.3650 O.3   702  PLP702     -0.1145
     15  O3P       80.7040   11.4130   13.4220 O.2   702  PLP702     -0.2224
@<TRIPOS>BOND
     1     5     4    1
     2     3     2    1
     3     4     2   ar
     4     4     6   ar
     5     2     1   ar
     6     7     6    1
     7     6     8   ar
     8     1     9   ar
     9     8     9   ar
    10     8    10    1
    11    11    10    1
    12    11    12    1
    13    15    12    2
    14    13    12    1
    15    12    14    1
