@<TRIPOS>MOLECULE
1k8z_IAG_A_1.pdb
 17 18 0 0 0
SMALL
GASTEIGER

@<TRIPOS>ATOM
      1  O3        50.0300   29.5290   11.6490 O.co2 501  IAG501     -0.2437
      2  C12       48.7340   29.3130   11.4720 C.2   501  IAG501      0.3865
      3  O2        47.8570   29.7490   10.5600 O.co2 501  IAG501     -0.2437
      4  C11       48.1870   28.4070   12.5100 C.3   501  IAG501      0.2284
      5  N2        49.3660   28.2190   13.4140 N.am  501  IAG501     -0.1929
      6  C10       48.9150   27.8790   14.6220 C.2   501  IAG501      0.2461
      7  O1        47.7090   27.4450   14.8970 O.2   501  IAG501     -0.2730
      8  C9        49.9480   28.0940   15.6620 C.3   501  IAG501      0.1108
      9  C2        51.1610   27.3490   15.3810 C.2   501  IAG501     -0.0095
     10  C1        52.3650   28.0760   15.3530 C.3   501  IAG501      0.1481
     11  N1        53.1170   26.9740   15.0810 N.2   501  IAG501     -0.2659
     12  C7        51.2740   26.0200   15.2260 C.ar  501  IAG501      0.0117
     13  C8        52.6480   25.7240   14.9820 C.ar  501  IAG501      0.0758
     14  C6        52.9940   24.3470   14.8200 C.ar  501  IAG501      0.0187
     15  C5        52.0910   23.3260   14.8450 C.ar  501  IAG501      0.0015
     16  C4        50.7720   23.7160   15.0680 C.ar  501  IAG501      0.0001
     17  C3        50.3790   25.0140   15.2520 C.ar  501  IAG501      0.0009
@<TRIPOS>BOND
     1     3     2   ar
     2     2     1   ar
     3     2     4    1
     4     4     5    1
     5     5     6   am
     6     6     7    2
     7     6     8    1
     8    14    15   ar
     9    14    13   ar
    10    15    16   ar
    11    13    11    2
    12    13    12   ar
    13    16    17   ar
    14    11    10    1
    15    12    17   ar
    16    12     9    2
    17    10     9    1
    18     9     8    1
