@<TRIPOS>MOLECULE
1k8z_PLP_B_1.pdb
 15 15 0 0 0
SMALL
GASTEIGER

@<TRIPOS>ATOM
      1  N1        85.2740   13.5950   11.9490 N.ar  502  PLP502     -0.2452
      2  C2        85.1540   14.0670   10.6540 C.ar  502  PLP502      0.0978
      3  C2A       86.4560   13.8850    9.7510 C.3   502  PLP502      0.0555
      4  C3        84.0390   14.6810   10.2120 C.ar  502  PLP502      0.2049
      5  O3        84.0340   15.0750    8.8580 O.3   502  PLP502     -0.2857
      6  C4        82.9590   14.8040   11.0140 C.ar  502  PLP502      0.0182
      7  C4A       81.6740   15.4650   10.6170 C.3   502  PLP502      0.0342
      8  C5        83.0620   14.3670   12.3880 C.ar  502  PLP502      0.0261
      9  C6        84.1910   13.7730   12.7730 C.ar  502  PLP502      0.0965
     10  C5A       81.8150   14.5140   13.3980 C.3   502  PLP502      0.1815
     11  O4P       80.5170   13.6540   13.3520 O.3   502  PLP502     -0.2653
     12  P         80.3750   12.4180   13.9490 P.3   502  PLP502      0.5329
     13  O1P       78.8980   12.1680   13.4960 O.2   502  PLP502     -0.2224
     14  O2P       80.3560   12.7960   15.4260 O.3   502  PLP502     -0.1145
     15  O3P       81.1360   11.3070   13.6600 O.3   502  PLP502     -0.1145
@<TRIPOS>BOND
     1     5     4    1
     2     3     2    1
     3     4     2   ar
     4     4     6   ar
     5     7     6    1
     6     2     1   ar
     7     6     8   ar
     8     1     9   ar
     9     8     9   ar
    10     8    10    1
    11    11    10    1
    12    11    12    1
    13    13    12    2
    14    15    12    1
    15    12    14    1
