@<TRIPOS>MOLECULE
1k90_3AT_A_1.pdb
 30 32 0 0 0
SMALL
GASTEIGER

@<TRIPOS>ATOM
      1  PG        31.0120   72.7860   44.3710 P.3   902  3AT902      0.5373
      2  O1G       31.6590   74.1230   44.4050 O.3   902  3AT902     -0.1143
      3  O2G       29.7400   72.7460   43.7110 O.2   902  3AT902     -0.2221
      4  O3G       31.1620   71.9890   45.6050 O.3   902  3AT902     -0.1143
      5  PB        33.4320   71.4350   43.2860 P.3   902  3AT902      0.2277
      6  O1B       34.0490   71.7380   41.9910 O.2   902  3AT902     -0.5168
      7  O2B       34.1100   71.8760   44.4920 O.3   902  3AT902     -0.4368
      8  O3B       31.8760   71.9870   43.2610 O.3   902  3AT902     -0.2258
      9  PA        33.7440   68.6740   43.9510 P.3   902  3AT902      0.2189
     10  O1A       34.9300   69.0930   44.6890 O.3   902  3AT902     -0.4371
     11  O2A       32.7050   67.8870   44.6550 O.2   902  3AT902     -0.5170
     12  O3A       33.1540   69.9260   43.2800 O.3   902  3AT902     -0.2700
     13  O5'       34.2070   67.9120   42.7080 O.3   902  3AT902     -0.3113
     14  C5'       33.3050   67.2040   41.8540 C.3   902  3AT902      0.1787
     15  C4'       33.6340   65.7150   41.9560 C.3   902  3AT902      0.1520
     16  O4'       34.2440   65.2430   40.7080 O.3   902  3AT902     -0.3163
     17  C3'       34.6200   65.2870   43.0320 C.3   902  3AT902      0.0722
     18  C2'       35.1300   63.9780   42.4840 C.3   902  3AT902      0.2270
     19  O2'       34.2810   62.8480   42.7560 O.3   902  3AT902     -0.2158
     20  C1'       35.1530   64.1610   40.9640 C.3   902  3AT902      0.3159
     21  N9        36.4980   64.4810   40.4500 N.pl3 902  3AT902     -0.1439
     22  C8        36.9840   65.6460   39.9480 C.3   902  3AT902      0.3377
     23  N7        38.2230   65.6010   39.5460 N.2   902  3AT902     -0.2095
     24  C5        38.5790   64.3020   39.8040 C.2   902  3AT902      0.2526
     25  C6        39.7980   63.5650   39.6010 C.2   902  3AT902      0.4393
     26  N6        40.8780   64.1340   39.0600 N.pl3 902  3AT902      0.2180
     27  N1        39.8340   62.2520   39.9770 N.2   902  3AT902      0.0021
     28  C2        38.7400   61.6990   40.5110 C.3   902  3AT902      0.5254
     29  N3        37.5370   62.2820   40.7450 N.2   902  3AT902     -0.0055
     30  C4        37.5340   63.6010   40.3590 C.2   902  3AT902      0.3518
@<TRIPOS>BOND
     1    26    25    1
     2    23    24    2
     3    23    22    1
     4    25    24    1
     5    25    27    2
     6    24    30    1
     7    22    21    1
     8    27    28    1
     9    30    21    1
    10    30    29    2
    11    21    20    1
    12    28    29    1
    13    16    20    1
    14    16    15    1
    15    20    18    1
    16    14    15    1
    17    14    13    1
    18    15    17    1
    19     6     5    2
    20    18    19    1
    21    18    17    1
    22    13     9    1
    23     8     5    1
    24     8     1    1
    25    12     5    1
    26    12     9    1
    27     5     7    1
    28     3     1    2
    29     9    11    2
    30     9    10    1
    31     1     2    1
    32     1     4    1
