@<TRIPOS>MOLECULE
1k97_CIR_A_1.pdb
 12 11 0 0 0
SMALL
GASTEIGER

@<TRIPOS>ATOM
      1  C1        34.4910   16.2040   46.0500 C.2   502  CIR502      0.3819
      2  O1        34.9150   15.2650   45.3260 O.co2 502  CIR502     -0.2441
      3  O2        33.5300   16.1040   46.8330 O.co2 502  CIR502     -0.2441
      4  C2        35.1960   17.5560   45.9550 C.3   502  CIR502      0.1944
      5  N2        36.5340   17.3730   45.3160 N.3   502  CIR502     -0.1208
      6  C3        34.3410   18.5270   45.1200 C.3   502  CIR502      0.0324
      7  C4        34.1030   18.0560   43.6700 C.3   502  CIR502      0.0256
      8  C5        33.1760   19.0050   42.8930 C.3   502  CIR502      0.1169
      9  N6        33.7160   20.3610   42.7130 N.am  502  CIR502     -0.1859
     10  C7        34.0810   20.8660   41.5320 C.2   502  CIR502      0.3589
     11  O7        34.2670   20.1240   40.5680 O.2   502  CIR502     -0.2474
     12  N8        34.2320   22.1940   41.4370 N.am  502  CIR502     -0.0679
@<TRIPOS>BOND
     1    11    10    2
     2    12    10   am
     3    10     9   am
     4     9     8    1
     5     8     7    1
     6     7     6    1
     7     6     4    1
     8     5     4    1
     9     2     1   ar
    10     4     1    1
    11     1     3   ar
