@<TRIPOS>MOLECULE
1k9e_GCV_A_1.pdb
 14 14 0 0 0
SMALL
GASTEIGER

@<TRIPOS>ATOM
      1  C7        26.1300   38.5390  152.7420 C.3   701  GCV701      0.1742
      2  C1        22.7650   34.3600  153.2480 C.3   701  GCV701      0.3028
      3  C2        24.2650   34.1710  153.5080 C.3   701  GCV701      0.2434
      4  C3        24.7760   35.6640  153.8690 C.3   701  GCV701      0.2172
      5  C4        24.6040   36.8000  152.9510 C.3   701  GCV701      0.1864
      6  C5        23.2890   36.5250  152.3840 C.3   701  GCV701      0.2497
      7  C6        22.8070   37.5340  151.4500 C.2   701  GCV701      0.3940
      8  O1        22.0050   34.5540  154.3920 O.3   701  GCV701     -0.1869
      9  O2        24.5050   33.1580  154.5060 O.3   701  GCV701     -0.2148
     10  O3        26.1390   35.2790  154.1610 O.3   701  GCV701     -0.2175
     11  O4        25.1100   37.9720  153.5890 O.3   701  GCV701     -0.3478
     12  O5        22.3720   35.3960  152.3170 O.3   701  GCV701     -0.3149
     13  O6A       22.6900   38.7920  152.0040 O.co2 701  GCV701     -0.2429
     14  O6B       22.5540   37.0740  150.1980 O.co2 701  GCV701     -0.2429
@<TRIPOS>BOND
     1    14     7   ar
     2     7    13   ar
     3     7     6    1
     4    12     6    1
     5    12     2    1
     6     6     5    1
     7     1    11    1
     8     5    11    1
     9     5     4    1
    10     2     3    1
    11     2     8    1
    12     3     4    1
    13     3     9    1
    14     4    10    1
