@<TRIPOS>MOLECULE
1k9f_GCV_A_1.pdb
 13 13 0 0 0
SMALL
GASTEIGER

@<TRIPOS>ATOM
      1  C7        26.2910   38.4480  152.4790 C.3   701  GCV701      0.1742
      2  C1        22.4920   34.5930  153.7610 C.3   701  GCV701      0.1783
      3  C2        23.9950   34.2360  153.7510 C.3   701  GCV701      0.2140
      4  C3        24.7280   35.6520  153.8930 C.3   701  GCV701      0.2145
      5  C4        24.4770   36.7300  152.9530 C.3   701  GCV701      0.1862
      6  C5        23.0060   36.5950  152.6800 C.3   701  GCV701      0.2479
      7  C6        22.4460   37.6170  151.7810 C.2   701  GCV701      0.3939
      8  O2        24.2290   33.0080  154.4280 O.3   701  GCV701     -0.2176
      9  O3        26.0790   35.1380  153.9360 O.3   701  GCV701     -0.2176
     10  O4        24.9700   38.0830  152.9430 O.3   701  GCV701     -0.3478
     11  O5        21.9590   35.6010  152.9180 O.3   701  GCV701     -0.3404
     12  O6A       22.4510   38.8840  152.2960 O.co2 701  GCV701     -0.2429
     13  O6B       22.0450   37.1280  150.5760 O.co2 701  GCV701     -0.2429
@<TRIPOS>BOND
     1    13     7   ar
     2     7    12   ar
     3     7     6    1
     4     1    10    1
     5     6    11    1
     6     6     5    1
     7    11     2    1
     8    10     5    1
     9     5     4    1
    10     3     2    1
    11     3     4    1
    12     3     8    1
    13     4     9    1
