@<TRIPOS>MOLECULE
1k9f_XYP_A_2.pdb
 10 10 0 0 0
SMALL
GASTEIGER

@<TRIPOS>ATOM
      1  O4A       25.3360   36.9580  161.3290 O.3   703  XYP703     -0.1869
      2  C1B       25.1530   36.3170  160.1150 C.3   703  XYP703      0.3024
      3  C2B       25.4250   34.8130  160.2730 C.3   703  XYP703      0.2434
      4  C3B       25.1000   34.0700  158.9750 C.3   703  XYP703      0.2199
      5  C4B       23.6880   34.4230  158.5250 C.3   703  XYP703      0.2143
      6  C5B       23.5180   35.9370  158.4210 C.3   703  XYP703      0.1804
      7  O2B       26.7900   34.6100  160.6050 O.3   703  XYP703     -0.2148
      8  O3B       25.1890   32.6680  159.1920 O.3   703  XYP703     -0.2174
      9  O4B       23.4010   33.8170  157.2540 O.3   703  XYP703     -0.2176
     10  O5B       23.8000   36.5440  159.6960 O.3   703  XYP703     -0.3237
@<TRIPOS>BOND
     1     9     5    1
     2     6     5    1
     3     6    10    1
     4     5     4    1
     5     4     8    1
     6     4     3    1
     7    10     2    1
     8     2     3    1
     9     2     1    1
    10     3     7    1
