@<TRIPOS>MOLECULE
1k9i_MAN_A_1.pdb
 11 11 0 0 0
SMALL
GASTEIGER

@<TRIPOS>ATOM
      1  C1        26.4560   -0.9470   -1.7510 C.3     2  MAN2        0.1777
      2  C2        25.3360   -1.2670   -2.7420 C.3     2  MAN2        0.2141
      3  C3        24.4800   -2.3920   -2.1670 C.3     2  MAN2        0.2173
      4  C4        25.3510   -3.6190   -1.8930 C.3     2  MAN2        0.2142
      5  C5        26.5630   -3.2630   -1.0100 C.3     2  MAN2        0.1810
      6  C6        27.5680   -4.3930   -1.0000 C.3     2  MAN2        0.2141
      7  O2        25.8960   -1.6710   -4.0120 O.3     2  MAN2       -0.2176
      8  O3        23.4620   -2.7220   -3.0880 O.3     2  MAN2       -0.2175
      9  O4        24.5780   -4.6160   -1.2490 O.3     2  MAN2       -0.2176
     10  O5        27.2610   -2.1070   -1.5290 O.3     2  MAN2       -0.3481
     11  O6        28.1330   -4.5700    0.2870 O.3     2  MAN2       -0.2176
@<TRIPOS>BOND
     1     7     2    1
     2     8     3    1
     3     2     3    1
     4     2     1    1
     5     3     4    1
     6     4     9    1
     7     4     5    1
     8     1    10    1
     9    10     5    1
    10     5     6    1
    11     6    11    1
