@<TRIPOS>MOLECULE
1k9j_MAN_A_1.pdb
 11 11 0 0 0
SMALL
GASTEIGER

@<TRIPOS>ATOM
      1  C1        18.3950   14.5500   32.6940 C.3     2  MAN2        0.1777
      2  C2        18.4510   14.8850   34.1850 C.3     2  MAN2        0.2141
      3  C3        17.0770   15.3830   34.6340 C.3     2  MAN2        0.2173
      4  C4        16.7030   16.6190   33.8200 C.3     2  MAN2        0.2142
      5  C5        16.7470   16.2950   32.3190 C.3     2  MAN2        0.1810
      6  C6        16.5720   17.5310   31.4640 C.3     2  MAN2        0.2141
      7  O2        19.4180   15.9290   34.3900 O.3     2  MAN2       -0.2176
      8  O3        17.1130   15.7070   36.0130 O.3     2  MAN2       -0.2175
      9  O4        15.4030   17.0700   34.1850 O.3     2  MAN2       -0.2176
     10  O5        18.0260   15.7170   31.9550 O.3     2  MAN2       -0.3481
     11  O6        16.5040   17.1930   30.0880 O.3     2  MAN2       -0.2176
@<TRIPOS>BOND
     1    11     6    1
     2     6     5    1
     3    10     5    1
     4    10     1    1
     5     5     4    1
     6     1     2    1
     7     4     9    1
     8     4     3    1
     9     2     7    1
    10     2     3    1
    11     3     8    1
