@<TRIPOS>MOLECULE
1k9s_FM2_A_1.pdb
 20 22 0 0 0
SMALL
GASTEIGER

@<TRIPOS>ATOM
      1  N1       144.5390   70.2480   64.7450 N.pl3 9901  FM29901    -0.1598
      2  C2       143.7350   69.6980   63.7190 C.3   9901  FM29901     0.3358
      3  N3       143.6510   68.3540   63.5120 N.2   9901  FM29901    -0.2208
      4  C4       144.4160   67.6010   64.4170 C.2   9901  FM29901     0.1247
      5  C5       145.2260   68.0640   65.4770 C.2   9901  FM29901     0.2077
      6  C6       145.3290   69.4840   65.6940 C.2   9901  FM29901     0.3986
      7  N6       146.0140   70.0600   66.5760 N.2   9901  FM29901     0.1951
      8  N7       145.8110   67.0050   66.1390 N.2   9901  FM29901    -0.1389
      9  N8       145.3830   65.9490   65.5000 N.2   9901  FM29901    -0.1480
     10  C9       144.5380   66.2150   64.4360 C.2   9901  FM29901     0.1291
     11  C1'      144.0250   65.0110   63.6230 C.3   9901  FM29901     0.1910
     12  C2'      143.1050   65.3250   62.4020 C.3   9901  FM29901     0.2173
     13  O2'      141.8420   64.7020   62.5740 O.3   9901  FM29901    -0.2173
     14  C3'      143.9290   64.7870   61.1740 C.3   9901  FM29901     0.2144
     15  O3'      143.4490   63.5310   60.6600 O.3   9901  FM29901    -0.2176
     16  C4'      145.3520   64.6560   61.6690 C.3   9901  FM29901     0.1814
     17  O4'      145.1990   64.3580   63.0970 O.3   9901  FM29901    -0.3446
     18  C5'      146.1880   65.9620   61.4280 C.3   9901  FM29901     0.2141
     19  O5'      147.3460   66.0020   62.2670 O.3   9901  FM29901    -0.2176
     20  C11      144.6170   71.6780   64.7690 C.3   9901  FM29901     0.2553
@<TRIPOS>BOND
     1    15    14    1
     2    14    16    1
     3    14    12    1
     4    18    16    1
     5    18    19    1
     6    16    17    1
     7    12    13    1
     8    12    11    1
     9    17    11    1
    10     3     2    1
    11     3     4    2
    12    11    10    1
    13     2     1    1
    14     4    10    1
    15     4     5    1
    16    10     9    2
    17     1    20    1
    18     1     6    1
    19     5     6    1
    20     5     8    2
    21     9     8    1
    22     6     7    2
