@<TRIPOS>MOLECULE
1k9s_FM1_D_1.pdb
 20 22 0 0 0
SMALL
GASTEIGER

@<TRIPOS>ATOM
      1  N1       135.8920   62.5160   40.6430 N.2   9907  FM19907    -0.0316
      2  C2       136.5830   63.1130   41.7170 C.3   9907  FM19907     0.3921
      3  N3       137.9220   62.9300   41.9030 N.2   9907  FM19907    -0.2155
      4  C4       138.5010   62.1100   40.9390 C.2   9907  FM19907     0.1249
      5  C5       137.8860   61.4710   39.8330 C.2   9907  FM19907     0.2063
      6  C6       136.4790   61.6650   39.6310 C.2   9907  FM19907     0.3795
      7  N6       135.7850   61.1640   38.6990 N.pl3 9907  FM19907    -0.0254
      8  N7       138.8220   60.7250   39.1040 N.2   9907  FM19907    -0.1389
      9  N8       139.9450   60.9140   39.7640 N.2   9907  FM19907    -0.1480
     10  C9       139.8360   61.7420   40.8840 C.2   9907  FM19907     0.1291
     11  C1'      141.1000   62.0050   41.6930 C.3   9907  FM19907     0.1910
     12  C2'      140.9570   62.9740   42.8920 C.3   9907  FM19907     0.2173
     13  O2'      141.8300   64.0480   42.6730 O.3   9907  FM19907    -0.2173
     14  C3'      141.2850   62.1440   44.1710 C.3   9907  FM19907     0.2144
     15  O3'      142.5790   62.4510   44.7470 O.3   9907  FM19907    -0.2176
     16  C4'      141.1700   60.7150   43.7280 C.3   9907  FM19907     0.1814
     17  O4'      141.4720   60.7330   42.2690 O.3   9907  FM19907    -0.3446
     18  C5'      139.7440   60.1530   44.0200 C.3   9907  FM19907     0.2141
     19  O5'      139.6550   58.7930   43.6340 O.3   9907  FM19907    -0.2176
     20  C66      134.3860   61.4610   38.6790 C.3   9907  FM19907     0.3062
@<TRIPOS>BOND
     1    20     7    1
     2     7     6    1
     3     8     9    1
     4     8     5    2
     5     6     5    1
     6     6     1    2
     7     9    10    2
     8     5     4    1
     9     1     2    1
    10    10     4    1
    11    10    11    1
    12     4     3    2
    13    11    17    1
    14    11    12    1
    15     2     3    1
    16    17    16    1
    17    13    12    1
    18    12    14    1
    19    19    18    1
    20    16    18    1
    21    16    14    1
    22    14    15    1
