@<TRIPOS>MOLECULE
1k9y_AMP_A_1.pdb
 23 25 0 0 0
SMALL
GASTEIGER

@<TRIPOS>ATOM
      1  P         14.8050   10.9150  -25.9320 P.3   501  AMP501      0.5327
      2  O1P       13.5200   10.1840  -25.8260 O.3   501  AMP501     -0.1145
      3  O2P       15.3470   10.7670  -27.3520 O.2   501  AMP501     -0.2224
      4  O3P       15.8480   10.4660  -24.9250 O.3   501  AMP501     -0.1145
      5  O5'       14.5830   12.4710  -25.6760 O.3   501  AMP501     -0.2675
      6  C5'       13.2940   13.0200  -25.7590 C.3   501  AMP501      0.1860
      7  C4'       13.4660   14.5260  -25.8710 C.3   501  AMP501      0.1823
      8  O4'       14.3480   14.9370  -26.8980 O.3   501  AMP501     -0.3135
      9  C3'       12.1790   15.2300  -26.2080 C.3   501  AMP501      0.2184
     10  O3'       11.4610   15.1990  -25.0240 O.3   501  AMP501     -0.2174
     11  C2'       12.6620   16.5800  -26.7470 C.3   501  AMP501      0.2570
     12  O2'       12.5820   17.6390  -25.8280 O.3   501  AMP501     -0.2130
     13  C1'       14.1530   16.3200  -26.9450 C.3   501  AMP501      0.3186
     14  N9        14.6870   16.8830  -28.1800 N.pl3 501  AMP501     -0.1439
     15  C8        14.0090   17.3080  -29.2990 C.3   501  AMP501      0.3377
     16  N7        14.9330   17.7530  -30.1840 N.2   501  AMP501     -0.2095
     17  C5        16.1610   17.6020  -29.6240 C.2   501  AMP501      0.2526
     18  C6        17.4240   17.9020  -30.0850 C.2   501  AMP501      0.4393
     19  N6        17.5520   18.4410  -31.2950 N.pl3 501  AMP501      0.2180
     20  N1        18.5180   17.6280  -29.2860 N.2   501  AMP501      0.0021
     21  C2        18.3530   17.0690  -28.0240 C.3   501  AMP501      0.5254
     22  N3        17.0910   16.7580  -27.5600 N.2   501  AMP501     -0.0055
     23  C4        16.0220   17.0510  -28.3610 C.2   501  AMP501      0.3518
@<TRIPOS>BOND
     1    19    18    1
     2    16    17    2
     3    16    15    1
     4    18    17    1
     5    18    20    2
     6    17    23    1
     7    15    14    1
     8    20    21    1
     9    23    14    1
    10    23    22    2
    11    14    13    1
    12    21    22    1
    13     3     1    2
    14    13     8    1
    15    13    11    1
    16     8     7    1
    17    11     9    1
    18    11    12    1
    19     9     7    1
    20     9    10    1
    21     1     2    1
    22     1     5    1
    23     1     4    1
    24     7     6    1
    25     6     5    1
