@<TRIPOS>MOLECULE
1ka0_AMP_A_1.pdb
 23 25 0 0 0
SMALL
GASTEIGER

@<TRIPOS>ATOM
      1  P         14.7690   10.9960  -25.8030 P.3   401  AMP401      0.5327
      2  O1P       13.5580   10.1550  -25.6880 O.3   401  AMP401     -0.1145
      3  O2P       15.3510   10.9110  -27.1930 O.2   401  AMP401     -0.2224
      4  O3P       15.8700   10.5910  -24.7800 O.3   401  AMP401     -0.1145
      5  O5'       14.4470   12.5590  -25.4620 O.3   401  AMP401     -0.2675
      6  C5'       13.2130   13.1970  -25.7300 C.3   401  AMP401      0.1860
      7  C4'       13.4700   14.7080  -25.6950 C.3   401  AMP401      0.1823
      8  O4'       14.3700   15.0180  -26.7740 O.3   401  AMP401     -0.3135
      9  C3'       12.2470   15.5750  -25.9350 C.3   401  AMP401      0.2184
     10  O3'       11.3800   15.6950  -24.8150 O.3   401  AMP401     -0.2174
     11  C2'       12.8800   16.8350  -26.5300 C.3   401  AMP401      0.2570
     12  O2'       12.7470   17.9320  -25.6340 O.3   401  AMP401     -0.2130
     13  C1'       14.3200   16.4120  -26.7280 C.3   401  AMP401      0.3186
     14  N9        14.9260   16.9680  -27.9690 N.pl3 401  AMP401     -0.1439
     15  C8        14.2840   17.4380  -29.0780 C.3   401  AMP401      0.3377
     16  N7        15.2090   17.8520  -29.9730 N.2   401  AMP401     -0.2095
     17  C5        16.4130   17.6400  -29.4320 C.2   401  AMP401      0.2526
     18  C6        17.6920   17.8820  -29.8920 C.2   401  AMP401      0.4393
     19  N6        17.9560   18.4270  -31.1000 N.pl3 401  AMP401      0.2180
     20  N1        18.7370   17.5560  -29.0850 N.2   401  AMP401      0.0021
     21  C2        18.5260   16.9820  -27.8650 C.3   401  AMP401      0.5254
     22  N3        17.2660   16.7300  -27.3700 N.2   401  AMP401     -0.0055
     23  C4        16.2550   17.0830  -28.1640 C.2   401  AMP401      0.3518
@<TRIPOS>BOND
     1    19    18    1
     2    16    17    2
     3    16    15    1
     4    18    17    1
     5    18    20    2
     6    17    23    1
     7    20    21    1
     8    15    14    1
     9    23    14    1
    10    23    22    2
    11    14    13    1
    12    21    22    1
    13     3     1    2
    14     8    13    1
    15     8     7    1
    16    13    11    1
    17    11     9    1
    18    11    12    1
    19     9     7    1
    20     9    10    1
    21     1     2    1
    22     1     5    1
    23     1     4    1
    24     6     7    1
    25     6     5    1
