@<TRIPOS>MOLECULE
1ka1_A3P_A_1.pdb
 27 29 0 0 0
SMALL
GASTEIGER

@<TRIPOS>ATOM
      1  P1         9.6600   14.8690  -25.8930 P.3   601  A3P601      0.5327
      2  O1P        9.2070   15.5120  -24.6730 O.3   601  A3P601     -0.1145
      3  O2P        8.8160   13.8380  -26.4550 O.3   601  A3P601     -0.1145
      4  O3P       10.1840   15.8250  -27.0380 O.2   601  A3P601     -0.2224
      5  P2        14.8830   10.8780  -26.0260 P.3   601  A3P601      0.5327
      6  O4P       15.9030   10.5420  -24.9960 O.3   601  A3P601     -0.1145
      7  O5P       15.4250   10.7230  -27.4540 O.2   601  A3P601     -0.2224
      8  O6P       13.4910   10.3110  -25.8410 O.3   601  A3P601     -0.1145
      9  O5'       14.6860   12.4710  -25.9570 O.3   601  A3P601     -0.2675
     10  C5'       14.1600   13.2830  -24.8220 C.3   601  A3P601      0.1859
     11  C4'       13.6600   14.6360  -25.3960 C.3   601  A3P601      0.1796
     12  O4'       14.3760   14.9180  -26.6760 O.3   601  A3P601     -0.3136
     13  C3'       12.2280   14.5450  -25.9080 C.3   601  A3P601      0.1928
     14  O3'       11.0300   14.2370  -25.2510 O.3   601  A3P601     -0.2673
     15  C2'       12.5010   16.0180  -26.7690 C.3   601  A3P601      0.2543
     16  O2'       12.1830   17.2550  -26.0250 O.3   601  A3P601     -0.2131
     17  C1'       13.9700   16.1860  -27.0240 C.3   601  A3P601      0.3185
     18  N9        14.5400   16.7210  -28.3180 N.pl3 601  A3P601     -0.1439
     19  C8        13.9230   17.1340  -29.5100 C.3   601  A3P601      0.3377
     20  N7        14.8690   17.5680  -30.3530 N.2   601  A3P601     -0.2095
     21  C5        16.0880   17.4550  -29.7710 C.2   601  A3P601      0.2526
     22  C6        17.4160   17.7650  -30.1840 C.2   601  A3P601      0.4393
     23  N6        17.6540   18.2690  -31.4060 N.pl3 601  A3P601      0.2180
     24  N1        18.4350   17.5300  -29.3410 N.2   601  A3P601      0.0021
     25  C2        18.1860   17.0080  -28.0790 C.3   601  A3P601      0.5254
     26  N3        16.9460   16.7170  -27.6900 N.2   601  A3P601     -0.0055
     27  C4        15.8910   16.9290  -28.4840 C.2   601  A3P601      0.3518
@<TRIPOS>BOND
     1    23    22    1
     2    20    21    2
     3    20    19    1
     4    22    21    1
     5    22    24    2
     6    21    27    1
     7    19    18    1
     8    24    25    1
     9    27    18    1
    10    27    26    2
    11    18    17    1
    12    25    26    1
    13     7     5    2
    14     4     1    2
    15    17    15    1
    16    17    12    1
    17    15    16    1
    18    15    13    1
    19    12    11    1
    20     3     1    1
    21     5     9    1
    22     5     8    1
    23     5     6    1
    24     9    10    1
    25    13    11    1
    26    13    14    1
    27     1    14    1
    28     1     2    1
    29    11    10    1
