@<TRIPOS>MOLECULE
1kae_NAD_A_1.pdb
 44 48 0 0 0
SMALL
GASTEIGER

@<TRIPOS>ATOM
      1  PA        27.6700  105.2170   64.9180 P.3   1201  NAD1201     0.2189
      2  O1A       26.9450  103.9370   64.8980 O.3   1201  NAD1201    -0.4371
      3  O2A       27.2930  106.1290   63.8050 O.2   1201  NAD1201    -0.5170
      4  O5B       29.2280  104.9160   64.7480 O.3   1201  NAD1201    -0.3112
      5  C5B       29.9470  104.2700   65.7240 C.3   1201  NAD1201     0.1813
      6  C4B       30.9900  103.5010   64.9270 C.3   1201  NAD1201     0.1821
      7  O4B       31.9230  104.4080   64.2610 O.3   1201  NAD1201    -0.3135
      8  C3B       31.8800  102.6380   65.7930 C.3   1201  NAD1201     0.2184
      9  O3B       31.2380  101.3790   66.1390 O.3   1201  NAD1201    -0.2174
     10  C2B       33.1160  102.5170   64.9170 C.3   1201  NAD1201     0.2570
     11  O2B       33.0190  101.3660   64.0830 O.3   1201  NAD1201    -0.2130
     12  C1B       33.1580  103.8280   64.0920 C.3   1201  NAD1201     0.3186
     13  N9A       34.1560  104.7600   64.5940 N.pl3 1201  NAD1201    -0.1439
     14  C8A       34.1950  105.3530   65.8270 C.3   1201  NAD1201     0.3377
     15  N7A       35.2420  106.1640   65.9950 N.2   1201  NAD1201    -0.2095
     16  C5A       35.9020  106.0710   64.7820 C.2   1201  NAD1201     0.2526
     17  C6A       37.0970  106.6880   64.3050 C.2   1201  NAD1201     0.4393
     18  N6A       37.8410  107.5360   65.0220 N.pl3 1201  NAD1201     0.2180
     19  N1A       37.5070  106.3850   63.0190 N.2   1201  NAD1201     0.0021
     20  C2A       36.7450  105.5110   62.2760 C.3   1201  NAD1201     0.5254
     21  N3A       35.6260  104.8990   62.6500 N.2   1201  NAD1201    -0.0055
     22  C4A       35.2510  105.2130   63.9080 C.2   1201  NAD1201     0.3518
     23  O3        27.4100  105.8890   66.3690 O.3   1201  NAD1201    -0.2703
     24  PN        27.9630  107.3110   66.9870 P.3   1201  NAD1201     0.2189
     25  O1N       29.4020  107.6020   66.7400 O.2   1201  NAD1201    -0.5170
     26  O2N       27.5790  107.3340   68.4390 O.3   1201  NAD1201    -0.4371
     27  O5D       27.0830  108.2720   66.0350 O.3   1201  NAD1201    -0.3112
     28  C5D       25.6850  108.5700   66.4340 C.3   1201  NAD1201     0.1813
     29  C4D       25.0960  109.5300   65.4240 C.3   1201  NAD1201     0.1799
     30  O4D       23.6470  109.5580   65.5150 O.3   1201  NAD1201    -0.3327
     31  C3D       25.5360  110.9890   65.5840 C.3   1201  NAD1201     0.2158
     32  O3D       26.4800  111.3480   64.5500 O.3   1201  NAD1201    -0.2175
     33  C2D       24.2450  111.7750   65.4090 C.3   1201  NAD1201     0.2309
     34  O2D       24.4080  112.9400   64.5690 O.3   1201  NAD1201    -0.2158
     35  C1D       23.2910  110.7350   64.8200 C.3   1201  NAD1201     0.2263
     36  N1N       21.8510  111.1010   64.9740 N.pl3 1201  NAD1201    -0.2787
     37  C2N       20.8060  110.2710   64.4510 C.3   1201  NAD1201     0.1244
     38  C3N       19.3650  110.6570   64.5980 C.2   1201  NAD1201     0.0544
     39  C7N       18.3130  109.7460   64.0270 C.2   1201  NAD1201     0.2818
     40  O7N       17.1570  110.1760   64.2060 O.2   1201  NAD1201    -0.2670
     41  N7N       18.5550  108.5700   63.3800 N.am  1201  NAD1201    -0.0839
     42  C4N       19.0300  111.9290   65.2910 C.2   1201  NAD1201     0.0033
     43  C5N       20.1940  112.7390   65.8100 C.2   1201  NAD1201     0.0157
     44  C6N       21.4510  112.3240   65.6380 C.2   1201  NAD1201     0.0633
@<TRIPOS>BOND
     1    20    21    1
     2    20    19    1
     3    21    22    2
     4    19    17    2
     5    41    39   am
     6     3     1    2
     7    22    13    1
     8    22    16    1
     9    39    40    2
    10    39    38    1
    11    11    10    1
    12    12     7    1
    13    12    13    1
    14    12    10    1
    15     7     6    1
    16    17    16    1
    17    17    18    1
    18    37    38    1
    19    37    36    1
    20    32    31    1
    21    34    33    1
    22    13    14    1
    23    38    42    2
    24     4     1    1
    25     4     5    1
    26    16    15    2
    27    35    36    1
    28    35    33    1
    29    35    30    1
    30     2     1    1
    31    10     8    1
    32     1    23    1
    33     6     5    1
    34     6     8    1
    35    36    44    1
    36    42    43    1
    37    33    31    1
    38    29    30    1
    39    29    31    1
    40    29    28    1
    41    44    43    2
    42     8     9    1
    43    14    15    1
    44    27    28    1
    45    27    24    1
    46    23    24    1
    47    25    24    2
    48    24    26    1
