@<TRIPOS>MOLECULE
1kae_HSO_A_1.pdb
 10 10 0 0 0
SMALL
GASTEIGER

@<TRIPOS>ATOM
      1  N         13.6590  113.3380   65.5980 N.3   1001  HSO1001    -0.1297
      2  CA        14.4550  112.2520   64.9950 C.3   1001  HSO1001     0.1303
      3  CB        13.8390  110.8890   65.3160 C.3   1001  HSO1001     0.0651
      4  CG        14.0180  110.4290   66.7330 C.2   1001  HSO1001     0.0646
      5  ND1       13.6950  111.2150   67.8250 N.2   1001  HSO1001    -0.2310
      6  CD2       14.3870  109.2190   67.2280 C.3   1001  HSO1001     0.1682
      7  CE1       13.8530  110.4980   68.9340 C.2   1001  HSO1001     0.1939
      8  NE2       14.2750  109.2850   68.5980 N.2   1001  HSO1001    -0.2440
      9  C         14.5350  112.4420   63.4650 C.3   1001  HSO1001     0.2013
     10  O         13.2100  112.5080   62.8840 O.3   1001  HSO1001    -0.2188
@<TRIPOS>BOND
     1    10     9    1
     2     9     2    1
     3     2     3    1
     4     2     1    1
     5     3     4    1
     6     4     6    1
     7     4     5    2
     8     6     8    1
     9     5     7    1
    10     8     7    2
