@<TRIPOS>MOLECULE
1kah_HIS_A_1.pdb
 11 11 0 0 0
SMALL
GASTEIGER

@<TRIPOS>ATOM
      1  N         13.7920  114.9160   65.9410 N.3   502  HIS502     -0.1204
      2  CA        14.6710  113.9380   65.2310 C.3   502  HIS502      0.1999
      3  C         14.8020  114.2870   63.7380 C.2   502  HIS502      0.3822
      4  O         13.7590  114.3170   63.0470 O.co2 502  HIS502     -0.2440
      5  CB        14.1040  112.5150   65.3820 C.3   502  HIS502      0.0740
      6  CG        14.0660  112.0110   66.7940 C.2   502  HIS502      0.0651
      7  ND1       13.4830  112.7150   67.8260 N.2   502  HIS502     -0.2310
      8  CD2       14.5230  110.8570   67.3370 C.3   502  HIS502      0.1683
      9  CE1       13.5840  112.0160   68.9430 C.2   502  HIS502      0.1939
     10  NE2       14.2110  110.8850   68.6750 N.2   502  HIS502     -0.2440
     11  OXT       15.9410  114.5200   63.2720 O.co2 502  HIS502     -0.2440
@<TRIPOS>BOND
     1     4     3   ar
     2    11     3   ar
     3     3     2    1
     4     2     5    1
     5     2     1    1
     6     5     6    1
     7     6     8    1
     8     6     7    2
     9     8    10    1
    10     7     9    1
    11    10     9    2
