@<TRIPOS>MOLECULE
1kak_FNP_A_1.pdb
 24 25 0 0 0
SMALL
GASTEIGER

@<TRIPOS>ATOM
      1  C1        24.3900   19.7530    2.6170 C.3   301  FNP301      0.3249
      2  C2        25.6650   24.4690   -0.9010 C.ar  301  FNP301      0.0444
      3  C3        24.9950   25.3620   -0.0790 C.ar  301  FNP301      0.0014
      4  C4        24.2770   24.9530    1.0290 C.ar  301  FNP301     -0.0001
      5  C5        24.2100   23.5910    1.3590 C.ar  301  FNP301     -0.0000
      6  C6        23.4860   23.1550    2.4800 C.ar  301  FNP301     -0.0001
      7  C7        23.4310   21.8190    2.7900 C.ar  301  FNP301      0.0014
      8  C8        24.0700   20.8850    2.0330 C.ar  301  FNP301      0.0444
      9  C9        24.8090   21.2850    0.8900 C.ar  301  FNP301      0.0014
     10  C10       24.8810   22.6450    0.5480 C.ar  301  FNP301     -0.0003
     11  C11       25.6000   23.0980   -0.5750 C.ar  301  FNP301      0.0014
     12  C12       26.0350   24.8820   -2.1030 C.3   301  FNP301      0.3249
     13  F1        24.4480   18.6470    1.6530 F     301  FNP301     -0.1920
     14  F2        25.5390   19.8510    3.2220 F     301  FNP301     -0.1920
     15  P1        23.1690   18.7770    3.6410 P.3   301  FNP301      0.1831
     16  OP1       21.9600   19.5730    3.9280 O.3   301  FNP301     -0.3533
     17  OP2       23.7820   18.3720    4.9380 O.3   301  FNP301     -0.3533
     18  OP3       22.7350   17.5330    2.9410 O.2   301  FNP301     -0.4543
     19  F3        25.0570   25.8290   -2.6910 F     301  FNP301     -0.1920
     20  F4        26.2180   23.8890   -2.9310 F     301  FNP301     -0.1920
     21  P2        27.3090   26.2060   -2.3260 P.3   301  FNP301      0.1831
     22  OP4       27.0810   27.3110   -1.3590 O.3   301  FNP301     -0.3533
     23  OP5       27.2460   26.7780   -3.6940 O.2   301  FNP301     -0.4543
     24  OP6       28.6760   25.6620   -2.1210 O.3   301  FNP301     -0.3533
@<TRIPOS>BOND
     1    23    21    2
     2    20    12    1
     3    19    12    1
     4    21    24    1
     5    21    12    1
     6    21    22    1
     7    12     2    1
     8     2    11   ar
     9     2     3   ar
    10    11    10   ar
    11     3     4   ar
    12    10     9   ar
    13    10     5   ar
    14     9     8   ar
    15     4     5   ar
    16     5     6   ar
    17    13     1    1
    18     8     1    1
    19     8     7   ar
    20     6     7   ar
    21     1    14    1
    22     1    15    1
    23    18    15    2
    24    15    16    1
    25    15    17    1
