@<TRIPOS>MOLECULE
1kao_GDP_A_1.pdb
 28 30 0 0 0
SMALL
GASTEIGER

@<TRIPOS>ATOM
      1  PB        -8.7240   -3.2530    9.2300 P.3   170  GDP170      0.5373
      2  O1B       -9.9530   -3.9790    9.5960 O.3   170  GDP170     -0.1143
      3  O2B       -8.2470   -2.3040   10.2440 O.3   170  GDP170     -0.1143
      4  O3B       -7.6000   -4.1110    8.7880 O.2   170  GDP170     -0.2221
      5  O3A       -9.1400   -2.3180    7.9690 O.3   170  GDP170     -0.2261
      6  PA        -8.7390   -2.4390    6.3780 P.3   170  GDP170      0.2231
      7  O1A       -9.3480   -3.6610    5.8360 O.2   170  GDP170     -0.5169
      8  O2A       -7.3030   -2.2000    6.2310 O.3   170  GDP170     -0.4370
      9  O5'       -9.5080   -1.1550    5.8280 O.3   170  GDP170     -0.3111
     10  C5'      -10.9420   -1.0900    5.8620 C.3   170  GDP170      0.1813
     11  C4'      -11.5150   -0.3370    4.6750 C.3   170  GDP170      0.1799
     12  O4'      -11.0620    1.0370    4.7440 O.3   170  GDP170     -0.3326
     13  C3'      -11.0900   -0.8720    3.3180 C.3   170  GDP170      0.2158
     14  O3'      -12.1810   -0.5440    2.4500 O.3   170  GDP170     -0.2175
     15  C2'       -9.8440    0.0270    3.0180 C.3   170  GDP170      0.2310
     16  O2'       -9.6420    0.2050    1.5900 O.3   170  GDP170     -0.2158
     17  C1'      -10.2820    1.3720    3.5900 C.3   170  GDP170      0.2293
     18  N9        -9.1100    2.1810    4.0160 N.pl3 170  GDP170     -0.2354
     19  C8        -8.0390    1.8360    4.8220 C.3   170  GDP170      0.2246
     20  N7        -7.1730    2.8040    5.0240 N.2   170  GDP170     -0.2322
     21  C5        -7.6940    3.8410    4.2490 C.2   170  GDP170      0.2182
     22  C6        -7.2400    5.1440    4.0360 C.1   170  GDP170      0.2372
     23  O6        -6.2150    5.6910    4.4820 O.2   170  GDP170     -0.2069
     24  N1        -8.0680    5.8680    3.2350 N.2   170  GDP170     -0.2485
     25  C2        -9.2400    5.4100    2.6910 C.1   170  GDP170      0.2531
     26  N2        -9.9260    6.2360    1.9200 N.pl3 170  GDP170     -0.0226
     27  N3        -9.6920    4.1850    2.8670 N.2   170  GDP170     -0.3074
     28  C4        -8.8970    3.4670    3.6650 C.2   170  GDP170      0.2300
@<TRIPOS>BOND
     1    16    15    1
     2    26    25    1
     3    14    13    1
     4    25    27    2
     5    25    24    2
     6    27    28    2
     7    15    13    1
     8    15    17    1
     9    24    22    2
    10    13    11    1
    11    17    18    1
    12    17    12    1
    13    28    18    1
    14    28    21    1
    15    18    19    1
    16    22    21    1
    17    22    23    2
    18    21    20    2
    19    11    12    1
    20    11    10    1
    21    19    20    1
    22     9    10    1
    23     9     6    1
    24     7     6    2
    25     8     6    1
    26     6     5    1
    27     5     1    1
    28     4     1    2
    29     1     2    1
    30     1     3    1
