@<TRIPOS>MOLECULE
1kap_III_I_1.pdb
 27 26 0 0 0
SMALL
GASTEIGER

@<TRIPOS>ATOM
      1  N        -10.9010   23.4700  -25.8330 N.3   751  GLY751     -0.1210
      2  CA       -11.3430   23.8190  -27.2180 C.3   751  GLY751      0.1956
      3  C        -11.8140   25.2590  -27.2690 C.2   751  GLY751      0.2613
      4  O        -12.7740   25.5860  -27.9790 O.2   751  GLY751     -0.2717
      5  N        -11.0860   26.1150  -26.5500 N.am  752  SER752     -0.1939
      6  CA       -11.3760   27.5400  -26.4370 C.3   752  SER752      0.2018
      7  C        -12.4760   27.7480  -25.3940 C.2   752  SER752      0.2642
      8  O        -13.6690   27.7690  -25.7050 O.2   752  SER752     -0.2714
      9  CB       -11.7660   28.1650  -27.7930 C.3   752  SER752      0.1682
     10  OG       -11.8200   29.5850  -27.7320 O.3   752  SER752     -0.3797
     11  HG       -10.9390   29.9480  -27.6260 H     752  SER752      0.2105
     12  N        -12.0670   27.7620  -24.1340 N.am  753  ASN753     -0.1957
     13  CA       -12.9990   28.0170  -23.0530 C.3   753  ASN753      0.1819
     14  C        -12.7760   29.4790  -22.7440 C.2   753  ASN753      0.2623
     15  O        -11.6400   29.8750  -22.4530 O.2   753  ASN753     -0.2715
     16  CB       -12.6590   27.1820  -21.8160 C.3   753  ASN753      0.1195
     17  CG       -13.6350   26.0600  -21.5960 C.2   753  ASN753      0.2630
     18  OD1      -14.7700   26.2860  -21.1570 O.2   753  ASN753     -0.2716
     19  ND2      -13.2090   24.8350  -21.8970 N.am  753  ASN753     -0.0877
     20  N        -13.8160   30.2900  -22.9040 N.am  754  SER754     -0.1915
     21  CA       -13.7080   31.7030  -22.5950 C.3   754  SER754      0.2268
     22  C        -13.8790   31.8210  -21.0710 C.2   754  SER754      0.3867
     23  O        -15.0060   31.6510  -20.5700 O.co2 754  SER754     -0.2437
     24  CB       -14.7750   32.5020  -23.3540 C.3   754  SER754      0.1704
     25  OG       -14.6260   32.3400  -24.7670 O.3   754  SER754     -0.3797
     26  OXT      -12.8590   31.9420  -20.3620 O.co2 754  SER754     -0.2437
     27  HG       -13.6950   32.5060  -24.9180 H     754  SER754      0.2105
@<TRIPOS>BOND
     1     4     3    2
     2     9    10    1
     3     9     6    1
     4    10    11    1
     5     3     2    1
     6     3     5   am
     7     2     1    1
     8     5     6    1
     9     6     7    1
    10     8     7    2
    11     7    12   am
    12    27    25    1
    13    25    24    1
    14    12    13    1
    15    24    21    1
    16    13    14    1
    17    13    16    1
    18    20    14   am
    19    20    21    1
    20    14    15    2
    21    21    22    1
    22    19    17   am
    23    16    17    1
    24    17    18    2
    25    22    23   ar
    26    22    26   ar
