@<TRIPOS>MOLECULE
1kav_FEP_A_1.pdb
 30 31 0 0 0
SMALL
GASTEIGER

@<TRIPOS>ATOM
      1  C1        32.5650   10.3760   90.1860 C.2   301  FEP301     -0.0000
      2  C2        33.9230   10.1120   90.0900 C.2   301  FEP301     -0.0000
      3  C3        34.6260    9.8850   91.2700 C.2   301  FEP301     -0.0000
      4  C4        34.6670   10.8420   92.2790 C.2   301  FEP301     -0.0000
      5  C5        28.4710   10.8170   86.6840 C.3   301  FEP301      0.3249
      6  C6        31.7960   10.6300   89.0710 C.ar  301  FEP301     -0.0000
      7  C7        31.4330    9.5500   88.2640 C.ar  301  FEP301     -0.0001
      8  C8        30.2870    9.5970   87.4770 C.ar  301  FEP301      0.0014
      9  C9        29.4750   10.7270   87.4810 C.ar  301  FEP301      0.0444
     10  C10       29.8460   11.8130   88.2870 C.ar  301  FEP301      0.0014
     11  C11       30.9980   11.7750   89.0810 C.ar  301  FEP301     -0.0001
     12  C12       37.6370   10.7390   96.8570 C.3   301  FEP301      0.3249
     13  C13       35.3940   10.6190   93.4500 C.ar  301  FEP301     -0.0000
     14  C14       34.8100   10.9380   94.6780 C.ar  301  FEP301     -0.0001
     15  C15       35.5840   11.0110   95.8350 C.ar  301  FEP301      0.0014
     16  C16       36.9590   10.7640   95.7790 C.ar  301  FEP301      0.0444
     17  C17       37.5560   10.4390   94.5320 C.ar  301  FEP301      0.0014
     18  C18       36.7730   10.3700   93.3800 C.ar  301  FEP301     -0.0001
     19  F1        28.0620    9.3480   86.4140 F     301  FEP301     -0.1920
     20  F2        27.6310   11.3010   87.2900 F     301  FEP301     -0.1920
     21  P1        28.4030   11.4170   84.8880 P.3   301  FEP301      0.1831
     22  OP1       28.8130   12.9460   84.8810 O.3   301  FEP301     -0.3533
     23  OP2       26.9400   11.2010   84.2660 O.3   301  FEP301     -0.3533
     24  OP3       29.4600   10.5550   84.0510 O.2   301  FEP301     -0.4543
     25  F3        37.7090    9.2310   97.1990 F     301  FEP301     -0.1920
     26  F4        38.6740   11.0880   96.5750 F     301  FEP301     -0.1920
     27  P2        37.2060   11.3690   98.6150 P.3   301  FEP301      0.1831
     28  OP4       37.1810   12.9950   98.6010 O.2   301  FEP301     -0.4543
     29  OP5       38.3370   10.8650   99.6690 O.3   301  FEP301     -0.3533
     30  OP6       35.7490   10.8080   99.0550 O.3   301  FEP301     -0.3533
@<TRIPOS>BOND
     1    24    21    2
     2    23    21    1
     3    22    21    1
     4    21     5    1
     5    19     5    1
     6     5    20    1
     7     5     9    1
     8     8     9   ar
     9     8     7   ar
    10     9    10   ar
    11     7     6   ar
    12    10    11   ar
    13     6    11   ar
    14     6     1    1
    15     2     1    2
    16     2     3    1
    17     3     4    2
    18     4    13    1
    19    18    13   ar
    20    18    17   ar
    21    13    14   ar
    22    17    16   ar
    23    14    15   ar
    24    16    15   ar
    25    16    12    1
    26    26    12    1
    27    12    25    1
    28    12    27    1
    29    28    27    2
    30    27    30    1
    31    27    29    1
