@<TRIPOS>MOLECULE
1kax_ATP_A_1.pdb
 31 33 0 0 0
SMALL
GASTEIGER

@<TRIPOS>ATOM
      1  PG        17.6080   28.0850   18.7850 P.3   486  ATP486      0.5373
      2  O1G       16.1760   27.7300   18.7280 O.3   486  ATP486     -0.1143
      3  O2G       18.0900   28.5150   20.1060 O.3   486  ATP486     -0.1143
      4  O3G       18.4840   27.1240   18.0400 O.2   486  ATP486     -0.2221
      5  PB        17.6260   29.7820   16.3760 P.3   486  ATP486      0.2277
      6  O1B       16.2190   30.1800   16.0550 O.3   486  ATP486     -0.4368
      7  O2B       18.2220   28.6600   15.6320 O.2   486  ATP486     -0.5168
      8  O3B       17.6980   29.4770   17.9840 O.3   486  ATP486     -0.2258
      9  PA        19.5510   31.7140   15.3170 P.3   486  ATP486      0.2189
     10  O1A       20.7420   30.8570   15.3630 O.3   486  ATP486     -0.4371
     11  O2A       18.9730   32.0760   13.9950 O.2   486  ATP486     -0.5170
     12  O3A       18.4650   31.0880   16.2940 O.3   486  ATP486     -0.2700
     13  O5'       19.8800   33.0130   16.1090 O.3   486  ATP486     -0.3112
     14  C5'       18.9380   34.0790   16.2600 C.3   486  ATP486      0.1813
     15  C4'       19.3640   34.9450   17.4010 C.3   486  ATP486      0.1821
     16  O4'       20.6340   35.5210   17.0220 O.3   486  ATP486     -0.3135
     17  C3'       18.4260   36.0990   17.7040 C.3   486  ATP486      0.2184
     18  O3'       18.3610   36.1960   19.1330 O.3   486  ATP486     -0.2174
     19  C2'       19.1570   37.2620   17.0830 C.3   486  ATP486      0.2570
     20  O2'       18.9170   38.4790   17.7700 O.3   486  ATP486     -0.2130
     21  C1'       20.6310   36.9100   17.3150 C.3   486  ATP486      0.3186
     22  N9        21.5550   37.5970   16.3800 N.pl3 486  ATP486     -0.1439
     23  C8        21.5510   37.5920   15.0110 C.3   486  ATP486      0.3377
     24  N7        22.5030   38.2840   14.4610 N.2   486  ATP486     -0.2095
     25  C5        23.1870   38.7830   15.5570 C.2   486  ATP486      0.2526
     26  C6        24.3050   39.6260   15.6590 C.2   486  ATP486      0.4393
     27  N6        24.8960   40.1130   14.5800 N.pl3 486  ATP486      0.2180
     28  N1        24.7330   39.9640   16.8770 N.2   486  ATP486      0.0021
     29  C2        24.0950   39.4950   17.9340 C.3   486  ATP486      0.5254
     30  N3        23.0340   38.6950   17.9870 N.2   486  ATP486     -0.0055
     31  C4        22.6220   38.3740   16.7290 C.2   486  ATP486      0.3518
@<TRIPOS>BOND
     1    11     9    2
     2    24    23    1
     3    24    25    2
     4    27    26    1
     5    23    22    1
     6     9    10    1
     7     9    13    1
     8     9    12    1
     9    25    26    1
    10    25    31    1
    11     7     5    2
    12    26    28    2
    13     6     5    1
    14    13    14    1
    15    14    15    1
    16    12     5    1
    17     5     8    1
    18    22    31    1
    19    22    21    1
    20    31    30    2
    21    28    29    1
    22    16    21    1
    23    16    15    1
    24    19    21    1
    25    19    17    1
    26    19    20    1
    27    15    17    1
    28    17    18    1
    29    29    30    1
    30     8     1    1
    31     4     1    2
    32     2     1    1
    33     1     3    1
