@<TRIPOS>MOLECULE
1kay_ATP_A_1.pdb
 31 33 0 0 0
SMALL
GASTEIGER

@<TRIPOS>ATOM
      1  PG        17.2810   28.2050   19.0760 P.3   486  ATP486      0.5373
      2  O1G       16.8380   26.8880   18.6010 O.2   486  ATP486     -0.2221
      3  O2G       16.1650   29.1360   19.3530 O.3   486  ATP486     -0.1143
      4  O3G       18.3040   28.2380   20.1440 O.3   486  ATP486     -0.1143
      5  PB        17.5820   29.1950   16.3720 P.3   486  ATP486      0.2277
      6  O1B       16.1400   29.2910   16.1540 O.3   486  ATP486     -0.4368
      7  O2B       18.3580   28.1580   15.6450 O.2   486  ATP486     -0.5168
      8  O3B       17.9280   29.0190   17.8810 O.3   486  ATP486     -0.2258
      9  PA        19.4500   31.2490   15.4120 P.3   486  ATP486      0.2189
     10  O1A       20.6510   30.4020   15.5560 O.3   486  ATP486     -0.4371
     11  O2A       19.0950   31.8290   14.0800 O.2   486  ATP486     -0.5170
     12  O3A       18.1900   30.6280   16.1370 O.3   486  ATP486     -0.2700
     13  O5'       19.7040   32.4840   16.3540 O.3   486  ATP486     -0.3112
     14  C5'       18.7620   33.5230   16.5790 C.3   486  ATP486      0.1813
     15  C4'       19.3300   34.5050   17.5900 C.3   486  ATP486      0.1821
     16  O4'       20.5320   35.0750   17.0520 O.3   486  ATP486     -0.3135
     17  C3'       18.3390   35.6710   17.8860 C.3   486  ATP486      0.2184
     18  O3'       18.3130   35.8630   19.3080 O.3   486  ATP486     -0.2174
     19  C2'       19.0290   36.7940   17.1980 C.3   486  ATP486      0.2570
     20  O2'       18.7040   38.0120   17.8420 O.3   486  ATP486     -0.2130
     21  C1'       20.5030   36.4480   17.3680 C.3   486  ATP486      0.3186
     22  N9        21.3800   37.1130   16.3990 N.pl3 486  ATP486     -0.1439
     23  C8        21.3400   37.0830   15.0230 C.3   486  ATP486      0.3377
     24  N7        22.2710   37.7890   14.4530 N.2   486  ATP486     -0.2095
     25  C5        22.9780   38.3260   15.5190 C.2   486  ATP486      0.2526
     26  C6        24.0930   39.1680   15.5870 C.2   486  ATP486      0.4393
     27  N6        24.6540   39.7120   14.5030 N.pl3 486  ATP486      0.2180
     28  N1        24.5470   39.4840   16.8190 N.2   486  ATP486      0.0021
     29  C2        23.9330   39.0120   17.8890 C.3   486  ATP486      0.5254
     30  N3        22.8780   38.2300   17.9630 N.2   486  ATP486     -0.0055
     31  C4        22.4420   37.9170   16.7140 C.2   486  ATP486      0.3518
@<TRIPOS>BOND
     1    11     9    2
     2    24    23    1
     3    24    25    2
     4    27    26    1
     5    23    22    1
     6     9    10    1
     7     9    12    1
     8     9    13    1
     9    25    26    1
    10    25    31    1
    11    26    28    2
    12     7     5    2
    13    12     5    1
    14     6     5    1
    15    13    14    1
    16     5     8    1
    17    22    31    1
    18    22    21    1
    19    14    15    1
    20    31    30    2
    21    28    29    1
    22    16    21    1
    23    16    15    1
    24    19    21    1
    25    19    20    1
    26    19    17    1
    27    15    17    1
    28     8     1    1
    29    17    18    1
    30    29    30    1
    31     2     1    2
    32     1     3    1
    33     1     4    1
