@<TRIPOS>MOLECULE
1kaz_ATP_A_1.pdb
 31 33 0 0 0
SMALL
GASTEIGER

@<TRIPOS>ATOM
      1  PG        17.6950   27.5220   18.8290 P.3   486  ATP486      0.5373
      2  O1G       18.1490   28.0470   20.1450 O.3   486  ATP486     -0.1143
      3  O2G       18.6390   26.5070   18.1860 O.2   486  ATP486     -0.2221
      4  O3G       16.2910   27.1700   18.7030 O.3   486  ATP486     -0.1143
      5  PB        17.5890   28.9920   16.3530 P.3   486  ATP486      0.2277
      6  O1B       18.3020   27.9100   15.6470 O.2   486  ATP486     -0.5168
      7  O2B       16.1330   29.1480   16.1600 O.3   486  ATP486     -0.4368
      8  O3B       17.8080   28.8290   17.9230 O.3   486  ATP486     -0.2258
      9  PA        19.4900   30.9380   15.3120 P.3   486  ATP486      0.2189
     10  O1A       20.7130   30.0980   15.4250 O.3   486  ATP486     -0.4371
     11  O2A       19.0000   31.4100   14.0130 O.2   486  ATP486     -0.5170
     12  O3A       18.3190   30.3680   16.2070 O.3   486  ATP486     -0.2700
     13  O5'       19.7740   32.2170   16.1990 O.3   486  ATP486     -0.3112
     14  C5'       18.8320   33.2770   16.3550 C.3   486  ATP486      0.1813
     15  C4'       19.3200   34.1540   17.4660 C.3   486  ATP486      0.1821
     16  O4'       20.5620   34.7130   17.0170 O.3   486  ATP486     -0.3135
     17  C3'       18.3490   35.2960   17.8170 C.3   486  ATP486      0.2184
     18  O3'       18.3610   35.4850   19.2420 O.3   486  ATP486     -0.2174
     19  C2'       19.0280   36.4430   17.0940 C.3   486  ATP486      0.2570
     20  O2'       18.7170   37.6920   17.7290 O.3   486  ATP486     -0.2130
     21  C1'       20.5060   36.1060   17.2680 C.3   486  ATP486      0.3186
     22  N9        21.3440   36.7750   16.2770 N.pl3 486  ATP486     -0.1439
     23  C8        21.2890   36.7460   14.8930 C.3   486  ATP486      0.3377
     24  N7        22.2040   37.4980   14.3300 N.2   486  ATP486     -0.2095
     25  C5        22.8980   38.0510   15.4140 C.2   486  ATP486      0.2526
     26  C6        23.9860   38.9340   15.5030 C.2   486  ATP486      0.4393
     27  N6        24.5150   39.4750   14.4140 N.pl3 486  ATP486      0.2180
     28  N1        24.4550   39.2840   16.7210 N.2   486  ATP486      0.0021
     29  C2        23.8520   38.7760   17.7950 C.3   486  ATP486      0.5254
     30  N3        22.8160   37.9430   17.8530 N.2   486  ATP486     -0.0055
     31  C4        22.3800   37.6140   16.6030 C.2   486  ATP486      0.3518
@<TRIPOS>BOND
     1    11     9    2
     2    24    23    1
     3    24    25    2
     4    27    26    1
     5    23    22    1
     6     9    10    1
     7     9    13    1
     8     9    12    1
     9    25    26    1
    10    25    31    1
    11    26    28    2
    12     6     5    2
    13     7     5    1
    14    13    14    1
    15    12     5    1
    16    22    31    1
    17    22    21    1
    18     5     8    1
    19    14    15    1
    20    31    30    2
    21    28    29    1
    22    16    21    1
    23    16    15    1
    24    19    21    1
    25    19    20    1
    26    19    17    1
    27    15    17    1
    28    29    30    1
    29    17    18    1
    30     8     1    1
    31     3     1    2
    32     4     1    1
    33     1     2    1
