@<TRIPOS>MOLECULE
1kb0_PQQ_A_1.pdb
 24 26 0 0 0
SMALL
GASTEIGER

@<TRIPOS>ATOM
      1  N1        16.3240   57.9170   21.5360 N.2   1800  PQQ1800    -0.3986
      2  C2        15.0900   58.5490   21.3870 C.2   1800  PQQ1800     0.2104
      3  C2X       14.4420   59.0310   22.5590 C.2   1800  PQQ1800     0.4168
      4  O2A       14.7520   58.5550   23.7000 O.co2 1800  PQQ1800    -0.2377
      5  O2B       13.4320   59.7370   22.4350 O.co2 1800  PQQ1800    -0.2377
      6  C3        14.7320   58.6270   20.0770 C.2   1800  PQQ1800     0.0444
      7  C3A       15.8200   58.0300   19.3180 C.2   1800  PQQ1800     0.0711
      8  C1A       16.7920   57.6380   20.2830 C.2   1800  PQQ1800     0.1232
      9  C4        16.0160   57.8320   17.9700 C.2   1800  PQQ1800     0.2387
     10  O4        15.0630   58.1680   17.0630 O.2   1800  PQQ1800    -0.2830
     11  C5        17.2280   57.2840   17.5160 C.2   1800  PQQ1800     0.2601
     12  O5        17.4640   57.0590   16.2210 O.2   1800  PQQ1800    -0.2807
     13  C6A       18.2810   56.9240   18.4890 C.2   1800  PQQ1800     0.1617
     14  N6        19.3960   56.4520   17.8770 N.2   1800  PQQ1800    -0.3954
     15  C7        20.4030   56.0570   18.7070 C.2   1800  PQQ1800     0.2103
     16  C7X       21.5380   55.5790   18.0000 C.2   1800  PQQ1800     0.4168
     17  O7A       21.5850   55.6800   16.7400 O.co2 1800  PQQ1800    -0.2377
     18  O7B       22.4970   54.9630   18.6410 O.co2 1800  PQQ1800    -0.2377
     19  C8        20.2960   56.1120   20.0620 C.2   1800  PQQ1800     0.0420
     20  C9        19.1490   56.5960   20.7180 C.2   1800  PQQ1800     0.0734
     21  C9X       19.1660   56.5630   22.1760 C.2   1800  PQQ1800     0.3847
     22  O9A       20.1300   55.9100   22.7110 O.co2 1800  PQQ1800    -0.2409
     23  O9B       18.2740   56.9750   22.9410 O.co2 1800  PQQ1800    -0.2409
     24  C9A       18.0390   57.0700   19.8940 C.3   1800  PQQ1800     0.1366
@<TRIPOS>BOND
     1    12    11    1
     2    17    16   ar
     3    10     9    1
     4    11     9    2
     5    11    13    1
     6    14    13    2
     7    14    15    2
     8     9     7    1
     9    16    18   ar
    10    16    15    1
    11    13    24    1
    12    15    19    1
    13     7     6    2
    14     7     8    1
    15    24     8    1
    16    24    20    1
    17    19    20    2
    18     6     2    1
    19     8     1    2
    20    20    21    1
    21     2     1    2
    22     2     3    1
    23    21    22   ar
    24    21    23   ar
    25     5     3   ar
    26     3     4   ar
