@<TRIPOS>MOLECULE
1kb0_HEC_A_1.pdb
 43 50 0 0 0
SMALL
GASTEIGER

@<TRIPOS>ATOM
      1 FE         22.0540   75.6100   24.7530 Fe    802  HEC802      0.0000
      2  CHA       20.6890   76.7220   27.7070 C.2   802  HEC802      0.0000
      3  CHB       22.2640   78.8110   23.6510 C.2   802  HEC802      0.0000
      4  CHC       23.5760   74.4820   21.9310 C.2   802  HEC802      0.0000
      5  CHD       21.4650   72.3920   25.7240 C.2   802  HEC802      0.0000
      6  NA        21.6880   77.3970   25.5480 N.ar  802  HEC802      0.0000
      7  C1A       21.0990   77.6800   26.7730 C.ar  802  HEC802      0.0000
      8  C2A       20.9690   79.0550   26.9500 C.ar  802  HEC802      0.0000
      9  C3A       21.3920   79.6720   25.7870 C.ar  802  HEC802      0.0000
     10  C4A       21.8150   78.6430   24.9340 C.ar  802  HEC802      0.0000
     11  CMA       21.3680   81.1480   25.4440 C.3   802  HEC802      0.0000
     12  CAA       20.5140   79.7290   28.2360 C.3   802  HEC802      0.0000
     13  CBA       21.7260   79.7710   29.1160 C.3   802  HEC802      0.0000
     14  CGA       21.4700   79.9720   30.5650 C.2   802  HEC802      0.0000
     15  O1A       20.2890   80.0170   30.9960 O.co2 802  HEC802      0.0000
     16  O2A       22.5170   80.0700   31.2640 O.co2 802  HEC802      0.0000
     17  NB        22.8040   76.4730   23.1140 N.2   802  HEC802      0.0000
     18  C1B       22.7480   77.8290   22.7990 C.2   802  HEC802      0.0000
     19  C2B       23.2820   78.0470   21.5320 C.2   802  HEC802      0.0000
     20  C3B       23.7780   76.8090   21.0740 C.2   802  HEC802      0.0000
     21  C4B       23.4030   75.8680   22.0330 C.2   802  HEC802      0.0000
     22  CMB       23.3060   79.3820   20.7960 C.3   802  HEC802      0.0000
     23  CAB       24.5230   76.5170   19.8110 C.3   802  HEC802      0.0000
     24  CBB       25.8410   77.3280   19.7630 C.3   802  HEC802      0.0000
     25  NC        22.4230   73.8210   23.9430 N.ar  802  HEC802      0.0000
     26  C1C       23.0920   73.5210   22.8080 C.ar  802  HEC802      0.0000
     27  C2C       23.1490   72.1320   22.5390 C.ar  802  HEC802      0.0000
     28  C3C       22.4790   71.5660   23.6320 C.ar  802  HEC802      0.0000
     29  C4C       22.0780   72.5680   24.4930 C.ar  802  HEC802      0.0000
     30  CMC       23.7640   71.4360   21.3160 C.3   802  HEC802      0.0000
     31  CAC       21.9940   70.1200   23.7500 C.3   802  HEC802      0.0000
     32  CBC       23.1720   69.1000   23.8580 C.3   802  HEC802      0.0000
     33  ND        21.2450   74.7590   26.3920 N.2   802  HEC802      0.0000
     34  C1D       21.0780   73.3930   26.6130 C.2   802  HEC802      0.0000
     35  C2D       20.5110   73.1690   27.8850 C.2   802  HEC802      0.0000
     36  C3D       20.3770   74.4010   28.4650 C.2   802  HEC802      0.0000
     37  C4D       20.7710   75.3440   27.5260 C.2   802  HEC802      0.0000
     38  CMD       20.1510   71.7900   28.5150 C.3   802  HEC802      0.0000
     39  CAD       19.8280   74.7070   29.8420 C.3   802  HEC802      0.0000
     40  CBD       18.3150   74.8520   29.8530 C.3   802  HEC802      0.0000
     41  CGD       17.8190   75.2280   31.2410 C.2   802  HEC802      0.0000
     42  O1D       17.6440   76.4440   31.5220 O.co2 802  HEC802      0.0000
     43  O2D       17.6570   74.3110   32.0520 O.co2 802  HEC802      0.0000
@<TRIPOS>BOND
     1    24    23    1
     2    23    20    1
     3    22    19    1
     4    20    19    2
     5    20    21    1
     6    30    27    1
     7    19    18    1
     8     4    21    2
     9     4    26    1
    10    21    17    1
    11    27    26   ar
    12    27    28   ar
    13    18    17    2
    14    18     3    1
    15    26    25   ar
    16    17     1    1
    17    28    31    1
    18    28    29   ar
    19     3    10    2
    20    31    32    1
    21    25    29   ar
    22    25     1    1
    23    29     5    1
    24     1     6    1
    25     1    33    1
    26    10     6   ar
    27    10     9   ar
    28    11     9    1
    29     6     7   ar
    30     5    34    2
    31     9     8   ar
    32    33    34    1
    33    33    37    2
    34    34    35    1
    35     7     8   ar
    36     7     2    2
    37     8    12    1
    38    37     2    1
    39    37    36    1
    40    35    36    2
    41    35    38    1
    42    12    13    1
    43    36    39    1
    44    13    14    1
    45    39    40    1
    46    40    41    1
    47    14    15   ar
    48    14    16   ar
    49    41    42   ar
    50    41    43   ar
