@<TRIPOS>MOLECULE
1kb9_SMA_C_1.pdb
 37 38 0 0 0
SMALL
GASTEIGER

@<TRIPOS>ATOM
      1  C2       -17.2820   37.7320  -17.8260 C.ar  505  SMA505      0.1220
      2  C3       -17.4880   37.1730  -19.0470 C.ar  505  SMA505      0.0475
      3  C3M      -17.4680   38.0150  -20.3140 C.3   505  SMA505      0.0373
      4  C4       -17.7460   35.7590  -19.1980 C.ar  505  SMA505      0.2002
      5  C4A      -17.7710   34.9710  -17.9320 C.ar  505  SMA505      0.1105
      6  C5       -18.0340   33.5340  -17.8860 C.ar  505  SMA505      0.1479
      7  C5M      -19.3320   31.9700  -19.0460 C.3   505  SMA505      0.2525
      8  C6       -18.0350   32.8600  -16.6780 C.ar  505  SMA505      0.0774
      9  C7       -17.7700   33.5600  -15.4630 C.ar  505  SMA505      0.1835
     10  C7M      -18.3890   31.6420  -14.2180 C.3   505  SMA505      0.2526
     11  C8       -17.5200   34.9480  -15.4460 C.ar  505  SMA505      0.2636
     12  C8A      -17.5130   35.6620  -16.6480 C.ar  505  SMA505      0.1925
     13  C9       -17.0420   39.2030  -17.6470 C.3   505  SMA505      0.0644
     14  C10      -15.7270   39.5070  -17.0750 C.3   505  SMA505      0.0104
     15  C11      -15.4310   40.9860  -16.8170 C.3   505  SMA505      0.0277
     16  C12      -14.1130   41.3330  -17.5410 C.3   505  SMA505      0.1175
     17  C13      -12.8790   40.7050  -16.7020 C.3   505  SMA505      0.0544
     18  C14      -11.6410   41.6360  -16.6150 C.3   505  SMA505      0.1176
     19  C15      -10.3310   40.8740  -16.7870 C.3   505  SMA505      0.0296
     20  C16       -9.1260   41.2480  -16.2870 C.3   505  SMA505      0.0028
     21  C17       -8.2300   40.4570  -15.4320 C.3   505  SMA505      0.0044
     22  C18       -7.5990   39.3250  -15.8230 C.3   505  SMA505      0.0217
     23  C19       -6.2550   38.9030  -15.4300 C.2   505  SMA505     -0.0482
     24  C20       -5.5700   39.3230  -14.3360 C.2   505  SMA505     -0.0342
     25  C21       -4.1750   38.8480  -13.9770 C.3   505  SMA505      0.0300
     26  C22      -16.6000   41.8810  -17.2280 C.3   505  SMA505      0.0025
     27  C23      -14.2670   43.0040  -19.0430 C.3   505  SMA505      0.1740
     28  C24      -13.2750   40.3360  -15.2800 C.3   505  SMA505      0.0050
     29  C25      -10.8870   43.6200  -15.6630 C.3   505  SMA505      0.1740
     30  C26       -5.7550   37.8980  -16.4490 C.3   505  SMA505      0.0260
     31  O1       -17.2860   37.0090  -16.6540 O.2   505  SMA505     -0.4544
     32  O4       -17.9380   35.2460  -20.3130 O.2   505  SMA505     -0.2866
     33  O5       -18.2910   32.8690  -19.0780 O.3   505  SMA505     -0.4711
     34  O7       -17.7620   32.8740  -14.2410 O.3   505  SMA505     -0.4680
     35  O8       -17.2800   35.5650  -14.2820 O.3   505  SMA505     -0.2800
     36  O12      -14.0130   42.6760  -17.7470 O.3   505  SMA505     -0.3535
     37  O14      -11.8620   42.9890  -16.3770 O.3   505  SMA505     -0.3535
@<TRIPOS>BOND
     1     3     2    1
     2    32     4    2
     3     4     2   ar
     4     4     5   ar
     5    33     7    1
     6    33     6    1
     7     2     1   ar
     8    27    36    1
     9     5     6   ar
    10     5    12   ar
    11     6     8   ar
    12     1    13    1
    13     1    31   ar
    14    36    16    1
    15    13    14    1
    16    16    15    1
    17    16    17    1
    18    26    15    1
    19    14    15    1
    20    19    18    1
    21    19    20    1
    22    17    18    1
    23    17    28    1
    24     8     9   ar
    25    31    12   ar
    26    12    11   ar
    27    18    37    1
    28    30    23    1
    29    37    29    1
    30    20    21    1
    31    22    21    1
    32    22    23    1
    33     9    11   ar
    34     9    34    1
    35    11    35    1
    36    23    24    2
    37    24    25    1
    38    34    10    1
