@<TRIPOS>MOLECULE
1kb9_PEF_C_1.pdb
 45 44 0 0 0
SMALL
GASTEIGER

@<TRIPOS>ATOM
      1  C2       -33.1070   60.8440   -8.0040 C.3   510  PEF510      0.2420
      2  C1       -34.0020   62.0750   -7.7470 C.3   510  PEF510      0.1964
      3  N        -34.8240   68.1150   -5.8700 N.3   510  PEF510     -0.1286
      4  C3       -31.5710   61.0800   -8.0230 C.3   510  PEF510      0.2543
      5  C4       -35.6940   65.8870   -6.3370 C.3   510  PEF510      0.1696
      6  C5       -35.0200   66.7780   -5.2880 C.3   510  PEF510      0.1417
      7  C10      -34.5600   59.2330   -7.3630 C.2   510  PEF510      0.3171
      8  C11      -34.9220   58.1580   -6.3870 C.3   510  PEF510      0.1096
      9  C12      -34.3650   56.8020   -6.8370 C.3   510  PEF510      0.0116
     10  C13      -35.2840   56.2230   -7.9130 C.3   510  PEF510      0.0006
     11  C14      -35.2190   54.6920   -7.8950 C.3   510  PEF510      0.0000
     12  C15      -34.1810   54.1790   -8.8920 C.3   510  PEF510      0.0000
     13  C16      -34.1870   52.6610   -8.8100 C.3   510  PEF510      0.0000
     14  C17      -33.1770   52.0390   -9.7710 C.3   510  PEF510      0.0000
     15  C18      -32.5530   50.8330   -9.0500 C.3   510  PEF510      0.0000
     16  C19      -32.7800   49.5130   -9.7940 C.3   510  PEF510      0.0000
     17  C20      -32.9280   48.4400   -8.7200 C.3   510  PEF510      0.0000
     18  C21      -32.0700   47.2300   -9.1320 C.3   510  PEF510      0.0000
     19  C22      -32.7230   45.9460   -8.5710 C.3   510  PEF510      0.0000
     20  C23      -32.2260   44.6840   -9.3040 C.3   510  PEF510      0.0000
     21  C30      -29.7000   59.6580   -8.3630 C.2   510  PEF510      0.3171
     22  C31      -29.2890   58.2430   -8.6270 C.3   510  PEF510      0.1096
     23  C32      -30.3320   57.4570   -9.4070 C.3   510  PEF510      0.0116
     24  C33      -30.5210   56.0750   -8.7910 C.3   510  PEF510      0.0006
     25  C34      -29.3510   55.1560   -9.1080 C.3   510  PEF510      0.0000
     26  C35      -29.6990   53.7100   -8.7630 C.3   510  PEF510      0.0000
     27  C36      -28.5320   52.7570   -9.0690 C.3   510  PEF510      0.0000
     28  C37      -29.0580   51.3640   -9.4390 C.3   510  PEF510      0.0000
     29  C38      -28.5170   50.8480  -10.7960 C.3   510  PEF510      0.0000
     30  C39      -27.5650   51.8350  -11.4770 C.3   510  PEF510      0.0000
     31  C40      -27.0810   51.2600  -12.8000 C.3   510  PEF510      0.0000
     32  C41      -25.5750   51.2060  -12.8600 C.3   510  PEF510      0.0000
     33  C42      -25.0750   52.5390  -13.3410 C.3   510  PEF510      0.0000
     34  C43      -24.4330   52.3630  -14.6870 C.3   510  PEF510      0.0000
     35  C44      -23.0490   52.9850  -14.7100 C.3   510  PEF510      0.0000
     36  C45      -21.9910   51.9010  -14.8130 C.3   510  PEF510      0.0000
     37  O4       -35.2710   59.4730   -8.3160 O.2   510  PEF510     -0.2501
     38  O5       -28.9020   60.5170   -8.2510 O.2   510  PEF510     -0.2501
     39  O2       -33.3730   59.8520   -7.0250 O.3   510  PEF510     -0.4457
     40  O3       -31.0430   59.7710   -8.2800 O.3   510  PEF510     -0.4444
     41  O1P      -32.7330   65.4660   -6.4920 O.3   510  PEF510     -0.4373
     42  O2P      -33.9690   64.9820   -8.6470 O.2   510  PEF510     -0.5172
     43  O3P      -33.2360   63.0750   -7.1760 O.3   510  PEF510     -0.3100
     44  O4P      -35.1140   64.6060   -6.3850 O.3   510  PEF510     -0.3125
     45  P        -33.7690   64.5490   -7.1840 P.3   510  PEF510      0.2141
@<TRIPOS>BOND
     1    36    35    1
     2    35    34    1
     3    34    33    1
     4    33    32    1
     5    32    31    1
     6    31    30    1
     7    30    29    1
     8    29    28    1
     9    16    15    1
    10    16    17    1
    11    14    15    1
    12    14    13    1
    13    28    27    1
    14    23    24    1
    15    23    22    1
    16    20    19    1
    17    18    17    1
    18    18    19    1
    19    25    24    1
    20    25    26    1
    21    27    26    1
    22    12    13    1
    23    12    11    1
    24    42    45    2
    25    22    21    1
    26    21    40    1
    27    21    38    2
    28    37     7    2
    29    40     4    1
    30     4     1    1
    31     1     2    1
    32     1    39    1
    33    10    11    1
    34    10     9    1
    35     2    43    1
    36     7    39    1
    37     7     8    1
    38    45    43    1
    39    45    41    1
    40    45    44    1
    41     9     8    1
    42    44     5    1
    43     5     6    1
    44     3     6    1
