@<TRIPOS>MOLECULE
1kb9_HEM_C_1.pdb
 43 50 0 0 0
SMALL
GASTEIGER

@<TRIPOS>ATOM
      1  CHA      -11.6640   35.6330   -1.9900 C.2   501  HEM501      0.0000
      2  CHB      -13.0610   40.0570   -3.4180 C.2   501  HEM501      0.0000
      3  CHC       -9.2530   41.8760   -1.0550 C.2   501  HEM501      0.0000
      4  CHD       -7.8440   37.4650    0.3280 C.2   501  HEM501      0.0000
      5  C1A      -12.3360   36.6790   -2.6050 C.ar  501  HEM501      0.0000
      6  C2A      -13.5500   36.5190   -3.3620 C.ar  501  HEM501      0.0000
      7  C3A      -13.8900   37.7320   -3.8380 C.ar  501  HEM501      0.0000
      8  C4A      -12.9830   38.6810   -3.2510 C.ar  501  HEM501      0.0000
      9  CMA      -15.0530   38.0410   -4.7940 C.3   501  HEM501      0.0000
     10  CAA      -14.3080   35.2280   -3.4710 C.3   501  HEM501      0.0000
     11  CBA      -15.4200   35.1900   -2.4210 C.3   501  HEM501      0.0000
     12  CGA      -16.0730   33.8140   -2.3070 C.2   501  HEM501      0.0000
     13  O1A      -15.5920   32.9950   -1.5200 O.co2 501  HEM501      0.0000
     14  O2A      -17.0570   33.5480   -3.0010 O.co2 501  HEM501      0.0000
     15  C1B      -12.1440   40.9460   -2.8900 C.2   501  HEM501      0.0000
     16  C2B      -12.1690   42.3620   -3.0900 C.2   501  HEM501      0.0000
     17  C3B      -11.0870   42.8640   -2.4410 C.2   501  HEM501      0.0000
     18  C4B      -10.4010   41.7540   -1.8280 C.2   501  HEM501      0.0000
     19  CMB      -13.2610   43.0710   -3.9350 C.3   501  HEM501      0.0000
     20  CAB      -10.5760   44.1530   -2.3050 C.3   501  HEM501      0.0000
     21  CBB      -11.2600   45.3450   -2.5670 C.3   501  HEM501      0.0000
     22  C1C       -8.5350   40.8480   -0.4660 C.ar  501  HEM501      0.0000
     23  C2C       -7.2600   41.0040    0.1970 C.ar  501  HEM501      0.0000
     24  C3C       -6.8900   39.7770    0.6210 C.ar  501  HEM501      0.0000
     25  C4C       -7.8730   38.8400    0.1290 C.ar  501  HEM501      0.0000
     26  CMC       -6.3350   42.2680    0.4220 C.3   501  HEM501      0.0000
     27  CAC       -5.7680   39.5800    1.4300 C.3   501  HEM501      0.0000
     28  CBC       -5.0320   38.3820    1.2640 C.3   501  HEM501      0.0000
     29  C1D       -8.8110   36.5770   -0.1330 C.2   501  HEM501      0.0000
     30  C2D       -8.8360   35.1700    0.1530 C.2   501  HEM501      0.0000
     31  C3D       -9.8920   34.6500   -0.5090 C.2   501  HEM501      0.0000
     32  C4D      -10.5450   35.7450   -1.1830 C.2   501  HEM501      0.0000
     33  CMD       -7.8620   34.5200    1.1360 C.3   501  HEM501      0.0000
     34  CAD      -10.3670   33.1990   -0.4340 C.3   501  HEM501      0.0000
     35  CBD      -11.3920   32.9750    0.6890 C.3   501  HEM501      0.0000
     36  CGD      -12.8100   33.2160    0.2310 C.2   501  HEM501      0.0000
     37  O1D      -13.2450   32.5240   -0.7050 O.co2 501  HEM501      0.0000
     38  O2D      -13.5010   34.0930    0.7820 O.co2 501  HEM501      0.0000
     39  NA       -12.0060   38.0230   -2.5290 N.ar  501  HEM501      0.0000
     40  NB       -11.0470   40.5800   -2.1380 N.2   501  HEM501      0.0000
     41  NC        -8.8790   39.5080   -0.5380 N.ar  501  HEM501      0.0000
     42  ND        -9.9170   36.9290   -0.8790 N.2   501  HEM501      0.0000
     43 FE        -10.4770   38.7640   -1.5120 Fe    501  HEM501      0.0000
@<TRIPOS>BOND
     1     9     7    1
     2    19    16    1
     3     7     6   ar
     4     7     8   ar
     5    10     6    1
     6    10    11    1
     7     2     8    2
     8     2    15    1
     9     6     5   ar
    10     8    39   ar
    11    16    15    1
    12    16    17    2
    13    14    12   ar
    14    15    40    2
    15     5    39   ar
    16     5     1    2
    17    21    20    1
    18    39    43    1
    19    17    20    1
    20    17    18    1
    21    11    12    1
    22    12    13   ar
    23    40    18    1
    24    40    43    1
    25     1    32    1
    26    18     3    2
    27    43    42    1
    28    43    41    1
    29    32    42    2
    30    32    31    1
    31     3    22    1
    32    42    29    1
    33    37    36   ar
    34    41    22   ar
    35    41    25   ar
    36    31    34    1
    37    31    30    2
    38    22    23   ar
    39    34    35    1
    40    29    30    1
    41    29     4    2
    42    25     4    1
    43    25    24   ar
    44    30    33    1
    45    23    26    1
    46    23    24   ar
    47    36    35    1
    48    36    38   ar
    49    24    27    1
    50    28    27    1
