@<TRIPOS>MOLECULE
1kb9_UQ6_C_1.pdb
 43 43 0 0 0
SMALL
GASTEIGER

@<TRIPOS>ATOM
      1  C1       -13.9760   63.1890    2.3200 C.2   506  UQ6506      0.0198
      2  C1M      -12.5270   63.0010    2.7850 C.3   506  UQ6506      0.0343
      3  C2       -14.1820   64.2200    1.3030 C.2   506  UQ6506      0.2282
      4  O2       -13.2190   64.8770    0.8810 O.2   506  UQ6506     -0.2836
      5  C3       -15.5350   64.4730    0.7980 C.2   506  UQ6506      0.2140
      6  C4       -16.5850   63.7450    1.2720 C.2   506  UQ6506      0.2140
      7  C5       -16.3740   62.7170    2.2890 C.2   506  UQ6506      0.2285
      8  O5       -17.3300   62.0630    2.7170 O.2   506  UQ6506     -0.2835
      9  C6       -15.0370   62.4500    2.8040 C.2   506  UQ6506      0.0235
     10  O3       -15.7240   65.4700   -0.1840 O.2   506  UQ6506     -0.4652
     11  C3M      -15.2190   66.7590   -0.3520 C.3   506  UQ6506      0.2528
     12  O4       -17.8840   63.9250    0.8480 O.2   506  UQ6506     -0.4652
     13  C4M      -19.0320   64.0830    1.6540 C.3   506  UQ6506      0.2528
     14  C7       -14.8780   61.3250    3.9100 C.3   506  UQ6506      0.0548
     15  C8       -14.5930   59.9600    3.4010 C.2   506  UQ6506     -0.0298
     16  C9       -13.3480   59.3580    3.2840 C.2   506  UQ6506     -0.0475
     17  C10      -12.0570   60.1060    3.6940 C.3   506  UQ6506      0.0260
     18  C11      -13.0810   57.9280    2.7590 C.3   506  UQ6506      0.0264
     19  C12      -11.5900   57.5640    2.7610 C.3   506  UQ6506      0.0297
     20  C13      -11.1480   56.1730    2.7660 C.2   506  UQ6506     -0.0342
     21  C14       -9.9020   55.6160    2.5210 C.2   506  UQ6506     -0.0478
     22  C15       -8.6620   56.4680    2.1700 C.3   506  UQ6506      0.0260
     23  C16       -9.5720   54.1180    2.5590 C.3   506  UQ6506      0.0263
     24  C17       -8.1760   53.6420    2.1810 C.3   506  UQ6506      0.0297
     25  C18       -8.0110   52.2120    2.3960 C.2   506  UQ6506     -0.0342
     26  C19       -7.3030   51.3430    3.2180 C.2   506  UQ6506     -0.0478
     27  C20       -7.5050   49.8340    3.0240 C.3   506  UQ6506      0.0260
     28  C21       -6.3050   51.7210    4.3440 C.3   506  UQ6506      0.0263
     29  C22       -5.1240   50.7840    4.6420 C.3   506  UQ6506      0.0297
     30  C23       -5.3140   49.8750    5.7930 C.2   506  UQ6506     -0.0342
     31  C24       -4.4740   49.0230    6.5080 C.2   506  UQ6506     -0.0478
     32  C25       -2.9830   48.8160    6.2200 C.3   506  UQ6506      0.0260
     33  C26       -4.9400   48.1680    7.7010 C.3   506  UQ6506      0.0263
     34  C27       -5.3270   46.7170    7.4710 C.3   506  UQ6506      0.0297
     35  C28       -4.4880   45.8310    8.2770 C.2   506  UQ6506     -0.0342
     36  C29       -4.3810   45.5750    9.6420 C.2   506  UQ6506     -0.0478
     37  C30       -5.2270   46.2580   10.7280 C.3   506  UQ6506      0.0260
     38  C31       -3.3890   44.5680   10.2600 C.3   506  UQ6506      0.0263
     39  C32       -4.0090   43.2300   10.6750 C.3   506  UQ6506      0.0297
     40  C33       -3.0390   42.2880   11.2650 C.2   506  UQ6506     -0.0342
     41  C34       -2.7360   41.8900   12.5720 C.2   506  UQ6506     -0.0478
     42  C35       -3.4280   42.4080   13.8240 C.3   506  UQ6506      0.0260
     43  C36       -1.6610   40.8700   12.9540 C.3   506  UQ6506      0.0260
@<TRIPOS>BOND
     1    11    10    1
     2    10     5    1
     3     5     6    2
     4     5     3    1
     5    12     6    1
     6    12    13    1
     7     4     3    2
     8     6     7    1
     9     3     1    1
    10    22    21    1
    11    24    25    1
    12    24    23    1
    13     7     8    2
    14     7     9    1
    15     1     2    1
    16     1     9    2
    17    25    26    2
    18    21    23    1
    19    21    20    2
    20    18    19    1
    21    18    16    1
    22    19    20    1
    23     9    14    1
    24    27    26    1
    25    26    28    1
    26    16    15    2
    27    16    17    1
    28    15    14    1
    29    28    29    1
    30    29    30    1
    31    30    31    2
    32    32    31    1
    33    31    33    1
    34    34    33    1
    35    34    35    1
    36    35    36    2
    37    36    38    1
    38    36    37    1
    39    38    39    1
    40    39    40    1
    41    40    41    2
    42    41    43    1
    43    41    42    1
