@<TRIPOS>MOLECULE
1kb9_PIE_C_1.pdb
 49 49 0 0 0
SMALL
GASTEIGER

@<TRIPOS>ATOM
      1  P        -20.1330   38.6240   20.2230 P.3   508  PIE508      0.2142
      2  O11      -20.8120   39.4840   19.1250 O.3   508  PIE508     -0.3100
      3  O12      -20.8310   37.2190   20.2320 O.2   508  PIE508     -0.5172
      4  O13      -20.5610   39.1910   21.4860 O.3   508  PIE508     -0.4373
      5  O14      -18.8830   38.3120   20.4480 O.3   508  PIE508     -0.3111
      6  C1       -21.7340   39.0620   18.0890 C.3   508  PIE508      0.1964
      7  C2       -21.4950   40.0650   16.9090 C.3   508  PIE508      0.2420
      8  C3       -21.9380   41.4180   17.4930 C.3   508  PIE508      0.2543
      9  O31      -21.7220   42.3130   16.4540 O.3   508  PIE508     -0.4444
     10  O32      -22.4340   44.0820   17.7030 O.2   508  PIE508     -0.2501
     11  C31      -22.0130   43.5900   16.7040 C.2   508  PIE508      0.3171
     12  C32      -21.6940   44.3350   15.4460 C.3   508  PIE508      0.1096
     13  C33      -21.9450   45.8400   15.5190 C.3   508  PIE508      0.0116
     14  C34      -20.6010   46.5630   15.5400 C.3   508  PIE508      0.0006
     15  C35      -20.4870   47.5370   14.3860 C.3   508  PIE508      0.0000
     16  C36      -19.1400   48.2270   14.4490 C.3   508  PIE508      0.0000
     17  C37      -18.9940   49.0640   15.7150 C.3   508  PIE508      0.0000
     18  C38      -17.8990   49.8390   15.2600 C.3   508  PIE508      0.0000
     19  C39      -16.7550   49.3750   14.2940 C.3   508  PIE508      0.0000
     20  C40      -15.4730   48.8910   15.0140 C.3   508  PIE508      0.0000
     21  C41      -14.2510   48.9810   14.0870 C.3   508  PIE508      0.0000
     22  C42      -12.9720   49.3340   14.8600 C.3   508  PIE508      0.0000
     23  O21      -20.1080   40.2570   16.6070 O.3   508  PIE508     -0.4457
     24  O22      -20.1410   39.2810   14.6050 O.2   508  PIE508     -0.2501
     25  C21      -19.8560   40.1670   15.2960 C.2   508  PIE508      0.3171
     26  C22      -19.1240   41.3720   14.7840 C.3   508  PIE508      0.1096
     27  C23      -18.5160   41.2200   13.3750 C.3   508  PIE508      0.0116
     28  C24      -19.6050   41.1790   12.3020 C.3   508  PIE508      0.0006
     29  C25      -20.0510   42.5670   11.8600 C.3   508  PIE508      0.0000
     30  C26      -21.1460   42.4460   10.7780 C.3   508  PIE508      0.0000
     31  C27      -21.5810   43.8520   10.3380 C.3   508  PIE508      0.0000
     32  C28      -20.7240   44.4100    9.1720 C.3   508  PIE508      0.0000
     33  C29      -19.5850   45.2950    9.7480 C.3   508  PIE508      0.0000
     34  C47      -18.1780   44.6400    9.6780 C.3   508  PIE508      0.0000
     35  C48      -17.1570   45.6340   10.2840 C.3   508  PIE508      0.0000
     36  C49      -15.7310   45.0350   10.2420 C.3   508  PIE508      0.0000
     37  C50      -14.7240   46.2080   10.1500 C.3   508  PIE508      0.0000
     38  C51      -13.2590   45.7370   10.1010 C.3   508  PIE508      0.0000
     39  C1'      -15.4730   36.2600   20.7520 C.3   508  PIE508      0.2174
     40  C2'      -15.9800   34.9680   20.1300 C.3   508  PIE508      0.2175
     41  C3'      -16.9340   35.2640   18.9280 C.3   508  PIE508      0.2174
     42  C4'      -18.1630   36.1090   19.3680 C.3   508  PIE508      0.2147
     43  C5'      -17.7100   37.5120   20.0140 C.3   508  PIE508      0.1874
     44  C6'      -16.7370   37.0990   21.2600 C.3   508  PIE508      0.2147
     45  O1'      -14.6270   35.9300   21.8680 O.3   508  PIE508     -0.2175
     46  O2'      -14.8830   34.1890   19.6570 O.3   508  PIE508     -0.2175
     47  O3'      -17.3800   34.0200   18.3820 O.3   508  PIE508     -0.2175
     48  O4'      -18.9020   35.3680   20.3470 O.3   508  PIE508     -0.2176
     49  O6'      -16.3140   38.3060   21.8450 O.3   508  PIE508     -0.2176
@<TRIPOS>BOND
     1    32    33    1
     2    32    31    1
     3    34    33    1
     4    34    35    1
     5    38    37    1
     6    37    36    1
     7    36    35    1
     8    31    30    1
     9    30    29    1
    10    29    28    1
    11    28    27    1
    12    27    26    1
    13    21    22    1
    14    21    20    1
    15    19    20    1
    16    19    18    1
    17    15    16    1
    18    15    14    1
    19    16    17    1
    20    24    25    2
    21    26    25    1
    22    18    17    1
    23    25    23    1
    24    12    13    1
    25    12    11    1
    26    13    14    1
    27     9    11    1
    28     9     8    1
    29    23     7    1
    30    11    10    2
    31     7     8    1
    32     7     6    1
    33     6     2    1
    34    47    41    1
    35    41    42    1
    36    41    40    1
    37     2     1    1
    38    42    43    1
    39    42    48    1
    40    46    40    1
    41    43     5    1
    42    43    44    1
    43    40    39    1
    44     1     3    2
    45     1     5    1
    46     1     4    1
    47    39    44    1
    48    39    45    1
    49    44    49    1
