@<TRIPOS>MOLECULE
1kbc_HLE_A_1.pdb
 13 12 0 0 0
SMALL
GASTEIGER

@<TRIPOS>ATOM
      1  N         32.8750   30.3950   55.4420 N.am    1  HLE1       -0.2004
      2  OH        33.0320   31.6930   55.9440 O.3     1  HLE1       -0.4026
      3  CA        34.8770   27.6100   55.3280 C.3     1  HLE1        0.1014
      4  CB        34.5700   27.7040   56.8360 C.3     1  HLE1        0.0108
      5  CG        35.6470   27.1600   57.7890 C.3     1  HLE1        0.0005
      6  CD1       36.9230   28.0200   57.7650 C.3     1  HLE1        0.0000
      7  CD2       35.0940   27.0350   59.2300 C.3     1  HLE1        0.0000
      8  C         34.8790   26.1610   54.8440 C.2     1  HLE1        0.2099
      9  O         33.8780   25.4350   54.9190 O.2     1  HLE1       -0.2882
     10  C1        33.8080   28.3840   54.4920 C.3     1  HLE1        0.2037
     11  O3        34.1000   28.2800   53.0870 O.3     1  HLE1       -0.2158
     12  C2        33.9140   29.8470   54.8350 C.2     1  HLE1        0.1179
     13  O2        34.9290   30.4790   54.5510 O.2     1  HLE1       -0.5374
@<TRIPOS>BOND
     1    11    10    1
     2    10    12    1
     3    10     3    1
     4    13    12    2
     5    12     1   am
     6     8     9    2
     7     8     3    1
     8     3     4    1
     9     1     2    1
    10     4     5    1
    11     6     5    1
    12     5     7    1
