@<TRIPOS>MOLECULE
1kbc_RIN_A_1.pdb
 15 15 0 0 0
SMALL
GASTEIGER

@<TRIPOS>ATOM
      1  N         36.0160   25.7490   54.3200 N.3     2  RIN2       -0.1149
      2  CA        36.1380   24.4220   53.7660 C.3     2  RIN2        0.1967
      3  CB        37.1010   24.5020   52.5750 C.3     2  RIN2        0.0360
      4  CG        37.5220   23.1670   51.9730 C.3     2  RIN2        0.0026
      5  CD        36.5490   22.6320   50.9900 C.3     2  RIN2        0.0001
      6  CE        37.2530   21.5250   50.1720 C.3     2  RIN2        0.0000
      7  CZ        36.9220   20.1870   50.7380 C.3     2  RIN2        0.0000
      8  C5        37.9530   19.6990   51.7150 C.3     2  RIN2        0.0000
      9  C4        37.2580   18.8880   52.7850 C.3     2  RIN2        0.0001
     10  C3        37.3080   19.6940   54.0550 C.3     2  RIN2        0.0021
     11  C2        35.9710   19.8080   54.7630 C.3     2  RIN2        0.0272
     12  C1        35.9410   21.0820   55.6500 C.3     2  RIN2        0.1376
     13  N1        35.7450   22.2680   54.8150 N.2     2  RIN2       -0.2051
     14  C         36.5480   23.3280   54.7730 C.1     2  RIN2        0.1432
     15  O         37.5570   23.4470   55.4730 O.2     2  RIN2       -0.2256
@<TRIPOS>BOND
     1     6     7    1
     2     6     5    1
     3     7     8    1
     4     5     4    1
     5     8     9    1
     6     4     3    1
     7     3     2    1
     8     9    10    1
     9     2     1    1
    10     2    14    1
    11    10    11    1
    12    11    12    1
    13    14    13    2
    14    14    15    2
    15    13    12    1
