@<TRIPOS>MOLECULE
1kbg_GAL_P_1.pdb
 11 11 0 0 0
SMALL
GASTEIGER

@<TRIPOS>ATOM
      1  C1        44.3050   66.5810  -11.3180 C.3     9  GAL9        0.3022
      2  C2        43.6310   67.5490  -10.3270 C.3     9  GAL9        0.2409
      3  C3        44.0860   68.9630  -10.6440 C.3     9  GAL9        0.1899
      4  C4        45.6020   69.0190  -10.5000 C.3     9  GAL9        0.0681
      5  C5        46.2590   68.0050  -11.4520 C.3     9  GAL9        0.1534
      6  C6        47.7720   67.9520  -11.2660 C.3     9  GAL9        0.2116
      7  O1        43.9450   65.2680  -11.0350 O.3     9  GAL9       -0.1869
      8  O2        42.2170   67.4820  -10.4470 O.3     9  GAL9       -0.2149
      9  O3        43.4690   69.8760   -9.7430 O.3     9  GAL9       -0.2201
     10  O5        45.7560   66.6770  -11.2100 O.3     9  GAL9       -0.3263
     11  O6        48.4500   68.7630  -12.2220 O.3     9  GAL9       -0.2177
@<TRIPOS>BOND
     1    11     6    1
     2     5     6    1
     3     5    10    1
     4     5     4    1
     5     1    10    1
     6     1     7    1
     7     1     2    1
     8     3     4    1
     9     3     2    1
    10     3     9    1
    11     8     2    1
