@<TRIPOS>MOLECULE
1kbg_FUC_H_1.pdb
 10 10 0 0 0
SMALL
GASTEIGER

@<TRIPOS>ATOM
      1  C1        61.4440   54.3360   18.5590 C.3   1102  FUC1102     0.1776
      2  C2        59.9500   53.9080   18.5350 C.3   1102  FUC1102     0.2141
      3  C3        59.0100   55.0450   18.9490 C.3   1102  FUC1102     0.2172
      4  C4        59.3460   56.3410   18.2180 C.3   1102  FUC1102     0.2116
      5  C5        60.8190   56.6690   18.4520 C.3   1102  FUC1102     0.1483
      6  C6        61.2610   57.9710   17.8040 C.3   1102  FUC1102     0.0349
      7  O2        59.7470   52.8060   19.4180 O.3   1102  FUC1102    -0.2176
      8  O3        57.6640   54.6820   18.6780 O.3   1102  FUC1102    -0.2175
      9  O4        59.0800   56.2150   16.8250 O.3   1102  FUC1102    -0.2177
     10  O5        61.6460   55.6070   17.9280 O.3   1102  FUC1102    -0.3508
@<TRIPOS>BOND
     1     9     4    1
     2     6     5    1
     3    10     5    1
     4    10     1    1
     5     4     5    1
     6     4     3    1
     7     2     1    1
     8     2     3    1
     9     2     7    1
    10     8     3    1
