@<TRIPOS>MOLECULE
1kbi_HEM_A_1.pdb
 43 50 0 0 0
SMALL
GASTEIGER

@<TRIPOS>ATOM
      1  CHA       68.0200   44.3900    7.8680 C.2   760  HEM760      0.0000
      2  CHB       72.9140   44.3360    8.5610 C.2   760  HEM760      0.0000
      3  CHC       72.4560   40.2070   11.1520 C.2   760  HEM760      0.0000
      4  CHD       67.6710   40.1680   10.4600 C.2   760  HEM760      0.0000
      5  C1A       69.3840   44.7420    7.8190 C.ar  760  HEM760      0.0000
      6  C2A       69.9700   45.9120    7.1490 C.ar  760  HEM760      0.0000
      7  C3A       71.3270   45.9120    7.3190 C.ar  760  HEM760      0.0000
      8  C4A       71.6070   44.7120    8.1330 C.ar  760  HEM760      0.0000
      9  CMA       72.3330   46.9300    6.7890 C.3   760  HEM760      0.0000
     10  CAA       69.2230   46.9750    6.3770 C.3   760  HEM760      0.0000
     11  CBA       68.8630   48.1530    7.2790 C.3   760  HEM760      0.0000
     12  CGA       68.0850   49.2130    6.5080 C.2   760  HEM760      0.0000
     13  O1A       68.6670   50.3010    6.2230 O.co2 760  HEM760      0.0000
     14  O2A       66.8940   48.9370    6.1620 O.co2 760  HEM760      0.0000
     15  C1B       73.2220   43.2070    9.3340 C.2   760  HEM760      0.0000
     16  C2B       74.5800   42.8430    9.7810 C.2   760  HEM760      0.0000
     17  C3B       74.4350   41.6680   10.5040 C.2   760  HEM760      0.0000
     18  C4B       73.0020   41.3300   10.5060 C.2   760  HEM760      0.0000
     19  CMB       75.8510   43.6330    9.4840 C.3   760  HEM760      0.0000
     20  CAB       75.4030   40.8710   11.1680 C.3   760  HEM760      0.0000
     21  CBB       75.7550   39.5320   10.8810 C.3   760  HEM760      0.0000
     22  C1C       71.1290   39.8250   11.2040 C.ar  760  HEM760      0.0000
     23  C2C       70.6440   38.6480   11.9200 C.ar  760  HEM760      0.0000
     24  C3C       69.2940   38.5810   11.7690 C.ar  760  HEM760      0.0000
     25  C4C       68.9570   39.7800   10.9110 C.ar  760  HEM760      0.0000
     26  CMC       71.5220   37.6590   12.7200 C.3   760  HEM760      0.0000
     27  CAC       68.4990   37.5600   12.3600 C.3   760  HEM760      0.0000
     28  CBC       67.0460   37.3890   12.3230 C.3   760  HEM760      0.0000
     29  C1D       67.3600   41.3060    9.6960 C.2   760  HEM760      0.0000
     30  C2D       65.9980   41.6320    9.2860 C.2   760  HEM760      0.0000
     31  C3D       66.1210   42.7960    8.5970 C.2   760  HEM760      0.0000
     32  C4D       67.5220   43.2170    8.5320 C.2   760  HEM760      0.0000
     33  CMD       64.6800   40.8850    9.5460 C.3   760  HEM760      0.0000
     34  CAD       64.9250   43.5120    8.0070 C.3   760  HEM760      0.0000
     35  CBD       64.3510   44.4320    9.0980 C.3   760  HEM760      0.0000
     36  CGD       63.1500   45.2420    8.6720 C.2   760  HEM760      0.0000
     37  O1D       62.0030   44.8500    9.0220 O.co2 760  HEM760      0.0000
     38  O2D       63.3560   46.2860    8.0090 O.co2 760  HEM760      0.0000
     39  NA        70.4070   43.9810    8.4340 N.ar  760  HEM760      0.0000
     40  NB        72.2520   42.2680    9.7890 N.2   760  HEM760      0.0000
     41  NC        70.1120   40.5370   10.5860 N.ar  760  HEM760      0.0000
     42  ND        68.3170   42.2610    9.2340 N.2   760  HEM760      0.0000
     43 FE         70.2840   42.2440    9.5110 Fe    760  HEM760      0.0000
@<TRIPOS>BOND
     1    14    12   ar
     2    13    12   ar
     3    10     6    1
     4    10    11    1
     5    12    11    1
     6     9     7    1
     7     6     7   ar
     8     6     5   ar
     9     7     8   ar
    10     5     1    2
    11     5    39   ar
    12     1    32    1
    13    34    31    1
    14    34    35    1
    15    38    36   ar
    16     8    39   ar
    17     8     2    2
    18    39    43    1
    19    32    31    1
    20    32    42    2
    21     2    15    1
    22    31    30    2
    23    36    37   ar
    24    36    35    1
    25    42    43    1
    26    42    29    1
    27    30    33    1
    28    30    29    1
    29    15    16    1
    30    15    40    2
    31    19    16    1
    32    43    40    1
    33    43    41    1
    34    29     4    2
    35    16    17    2
    36    40    18    1
    37     4    25    1
    38    17    18    1
    39    17    20    1
    40    18     3    2
    41    41    25   ar
    42    41    22   ar
    43    21    20    1
    44    25    24   ar
    45     3    22    1
    46    22    23   ar
    47    24    23   ar
    48    24    27    1
    49    23    26    1
    50    28    27    1
