@<TRIPOS>MOLECULE
1kbi_FMN_A_1.pdb
 31 33 0 0 0
SMALL
GASTEIGER

@<TRIPOS>ATOM
      1  N1        69.2650   56.8700    1.5170 N.2   770  FMN770     -0.2890
      2  C2        70.5570   56.6510    1.9010 C.1   770  FMN770      0.3669
      3  O2        71.4120   57.5250    1.8760 O.2   770  FMN770     -0.1744
      4  N3        70.8900   55.3410    2.3340 N.2   770  FMN770     -0.2300
      5  C4        70.0120   54.2660    2.4060 C.1   770  FMN770      0.2513
      6  O4        70.4120   53.1650    2.7940 O.2   770  FMN770     -0.2057
      7  C4A       68.6370   54.5410    1.9830 C.2   770  FMN770      0.2700
      8  N5        67.6820   53.5390    1.9950 N.2   770  FMN770     -0.3878
      9  C5A       66.3780   53.7950    1.5420 C.2   770  FMN770      0.1320
     10  C6        65.4040   52.7430    1.5250 C.2   770  FMN770      0.0250
     11  C7        64.1040   52.9950    1.0290 C.2   770  FMN770     -0.0238
     12  C7M       63.0500   51.8730    0.9850 C.3   770  FMN770      0.0308
     13  C8        63.7520   54.3140    0.5370 C.2   770  FMN770     -0.0280
     14  C8M       62.3900   54.6350   -0.0350 C.3   770  FMN770      0.0304
     15  C9        64.6880   55.3390    0.5710 C.2   770  FMN770     -0.0041
     16  C9A       66.0110   55.1290    1.0620 C.3   770  FMN770      0.1497
     17  N10       67.0240   56.1580    1.0910 N.pl3 770  FMN770     -0.2691
     18  C10       68.3180   55.9040    1.5310 C.2   770  FMN770      0.2416
     19  C1'       66.6950   57.4960    0.6210 C.3   770  FMN770      0.1294
     20  C2'       66.9140   57.6570   -0.8970 C.3   770  FMN770      0.2044
     21  O2'       68.3130   57.6520   -1.2280 O.3   770  FMN770     -0.2185
     22  C3'       66.2520   58.9630   -1.4080 C.3   770  FMN770      0.2164
     23  O3'       66.6550   60.0190   -0.5350 O.3   770  FMN770     -0.2175
     24  C4'       64.7050   58.9410   -1.5030 C.3   770  FMN770      0.2147
     25  O4'       64.2130   57.6420   -1.7910 O.3   770  FMN770     -0.2176
     26  C5'       64.1970   59.9320   -2.5230 C.3   770  FMN770      0.1892
     27  O5'       62.7380   59.9170   -2.3600 O.3   770  FMN770     -0.2674
     28  P         61.7140   59.1310   -3.2600 P.3   770  FMN770      0.5327
     29  O1P       61.6520   57.6870   -2.7300 O.3   770  FMN770     -0.1145
     30  O2P       62.1460   59.2030   -4.6710 O.2   770  FMN770     -0.2224
     31  O3P       60.3810   59.8310   -3.0880 O.3   770  FMN770     -0.1145
@<TRIPOS>BOND
     1    30    28    2
     2    28    31    1
     3    28    29    1
     4    28    27    1
     5    26    27    1
     6    26    24    1
     7    25    24    1
     8    24    22    1
     9    22    20    1
    10    22    23    1
    11    21    20    1
    12    20    19    1
    13    14    13    1
    14    13    15    2
    15    13    11    1
    16    15    16    1
    17    19    17    1
    18    12    11    1
    19    11    10    2
    20    16    17    1
    21    16     9    1
    22    17    18    1
    23     1    18    2
    24     1     2    2
    25    10     9    1
    26    18     7    1
    27     9     8    2
    28     3     2    2
    29     2     4    2
    30     7     8    2
    31     7     5    1
    32     4     5    2
    33     5     6    2
