@<TRIPOS>MOLECULE
1kbj_FMN_A_1.pdb
 31 33 0 0 0
SMALL
GASTEIGER

@<TRIPOS>ATOM
      1  N1        36.2260   25.1980   12.3500 N.2   570  FMN570     -0.2890
      2  C2        35.7490   26.4010   12.8320 C.1   570  FMN570      0.3669
      3  O2        35.5110   26.5840   14.0150 O.2   570  FMN570     -0.1744
      4  N3        35.5320   27.4550   11.8790 N.2   570  FMN570     -0.2300
      5  C4        35.7700   27.3460   10.4950 C.1   570  FMN570      0.2513
      6  O4        35.5550   28.3000    9.7350 O.2   570  FMN570     -0.2057
      7  C4A       36.2690   26.0510   10.0400 C.2   570  FMN570      0.2700
      8  N5        36.5100   25.8540    8.7260 N.2   570  FMN570     -0.3878
      9  C5A       36.9620   24.6190    8.2460 C.2   570  FMN570      0.1320
     10  C6        37.1860   24.4350    6.8480 C.2   570  FMN570      0.0250
     11  C7        37.6160   23.1890    6.3610 C.2   570  FMN570     -0.0238
     12  C7M       37.8430   22.9860    4.8690 C.3   570  FMN570      0.0308
     13  C8        37.8410   22.0830    7.2750 C.2   570  FMN570     -0.0280
     14  C8M       38.2940   20.6940    6.8140 C.3   570  FMN570      0.0304
     15  C9        37.6350   22.2730    8.6370 C.2   570  FMN570     -0.0041
     16  C9A       37.1930   23.5200    9.1650 C.3   570  FMN570      0.1497
     17  N10       36.9470   23.7620   10.5720 N.pl3 570  FMN570     -0.2691
     18  C10       36.4840   24.9850   11.0330 C.2   570  FMN570      0.2416
     19  C1'       37.1800   22.6900   11.5270 C.3   570  FMN570      0.1294
     20  C2'       35.9550   21.8090   11.7610 C.3   570  FMN570      0.2044
     21  O2'       34.9390   22.5130   12.4440 O.3   570  FMN570     -0.2185
     22  C3'       36.3500   20.5150   12.5290 C.3   570  FMN570      0.2164
     23  O3'       37.1470   20.8760   13.6520 O.3   570  FMN570     -0.2175
     24  C4'       37.0900   19.4770   11.6740 C.3   570  FMN570      0.2147
     25  O4'       36.6570   19.5170   10.2970 O.3   570  FMN570     -0.2176
     26  C5'       36.9430   18.1060   12.2650 C.3   570  FMN570      0.1892
     27  O5'       37.8990   17.2690   11.5610 O.3   570  FMN570     -0.2674
     28  P         37.5110   16.3160   10.4100 P.3   570  FMN570      0.5327
     29  O1P       37.4190   17.1330    9.1740 O.2   570  FMN570     -0.2224
     30  O2P       36.2470   15.6040   10.7580 O.3   570  FMN570     -0.1145
     31  O3P       38.6410   15.3370   10.2900 O.3   570  FMN570     -0.1145
@<TRIPOS>BOND
     1    12    11    1
     2    11    10    2
     3    11    13    1
     4    14    13    1
     5    10     9    1
     6    13    15    2
     7     9     8    2
     8     9    16    1
     9    15    16    1
    10     8     7    2
    11    16    17    1
    12    29    28    2
    13     6     5    2
    14     7     5    1
    15     7    18    1
    16    31    28    1
    17    25    24    1
    18    28    30    1
    19    28    27    1
    20     5     4    2
    21    17    18    1
    22    17    19    1
    23    18     1    2
    24    19    20    1
    25    27    26    1
    26    24    26    1
    27    24    22    1
    28    20    21    1
    29    20    22    1
    30     4     2    2
    31     1     2    2
    32    22    23    1
    33     2     3    2
