@<TRIPOS>MOLECULE
1kbn_GSH_A_1.pdb
 20 19 0 0 0
SMALL
GASTEIGER

@<TRIPOS>ATOM
      1  N1         6.7130   40.9070   45.2350 N.3   1001  GSH1001    -0.1208
      2  CA1        8.0080   40.7420   45.9570 C.3   1001  GSH1001     0.1948
      3  C1         7.8200   39.7270   47.1410 C.2   1001  GSH1001     0.3819
      4  O11        6.6910   39.2440   47.3450 O.co2 1001  GSH1001    -0.2441
      5  O12        8.7900   39.4150   47.8580 O.co2 1001  GSH1001    -0.2441
      6  CB1        8.3890   42.1310   46.4980 C.3   1001  GSH1001     0.0402
      7  CG1        9.7670   42.2410   47.1090 C.3   1001  GSH1001     0.0889
      8  CD1       10.0680   43.6180   47.6440 C.2   1001  GSH1001     0.2418
      9  OE1        9.2350   44.5460   47.5790 O.2   1001  GSH1001    -0.2733
     10  N2        11.2740   43.7420   48.1880 N.am  1001  GSH1001    -0.1968
     11  CA2       11.7790   44.9740   48.7820 C.3   1001  GSH1001     0.1843
     12  C2        13.1630   45.3220   48.2460 C.2   1001  GSH1001     0.2627
     13  O2        13.9540   44.4130   47.9560 O.2   1001  GSH1001    -0.2714
     14  CB2       11.8320   44.8010   50.3150 C.3   1001  GSH1001     0.0997
     15  SG2       10.2270   44.3530   51.0460 S.3   1001  GSH1001    -0.0797
     16  N3        13.4400   46.6380   48.1280 N.am  1001  GSH1001    -0.1917
     17  CA3       14.7190   47.1290   47.6380 C.3   1001  GSH1001     0.2285
     18  C3        14.7700   47.4140   46.1450 C.2   1001  GSH1001     0.3865
     19  O31       13.7210   47.3640   45.4620 O.co2 1001  GSH1001    -0.2437
     20  O32       15.8880   47.6840   45.6500 O.co2 1001  GSH1001    -0.2437
@<TRIPOS>BOND
     1     1     2    1
     2    19    18   ar
     3    20    18   ar
     4     2     6    1
     5     2     3    1
     6    18    17    1
     7     6     7    1
     8     7     8    1
     9     3     4   ar
    10     3     5   ar
    11     9     8    2
    12    17    16    1
    13     8    10   am
    14    13    12    2
    15    16    12   am
    16    10    11    1
    17    12    11    1
    18    11    14    1
    19    14    15    1
