@<TRIPOS>MOLECULE
1kbo_340_A_1.pdb
 23 25 0 0 0
SMALL
GASTEIGER

@<TRIPOS>ATOM
      1  C1        -0.5840   17.1000    4.2660 C.2   703  340703      0.0837
      2  C2        -0.6830   15.6270    3.9470 C.2   703  340703      0.2145
      3  C3        -1.1540   14.7230    4.8980 C.ar  703  340703      0.1022
      4  C4        -1.5560   15.1850    6.2070 C.ar  703  340703      0.0615
      5  C5        -1.4810   16.5390    6.5540 C.2   703  340703      0.2306
      6  C6        -0.9670   17.5670    5.5310 C.2   703  340703      0.1807
      7  N7        -1.3330   13.3220    4.8420 N.ar  703  340703     -0.3263
      8  C8        -1.8430   12.8870    6.0850 C.ar  703  340703      0.0372
      9  C9        -1.9530   13.9930    6.8230 C.ar  703  340703      0.0375
     10  O10       -1.8080   16.9440    7.6500 O.2   703  340703     -0.2833
     11  O11       -0.3330   15.2660    2.8270 O.2   703  340703     -0.2849
     12  C12       -1.0650   12.3730    3.7270 C.3   703  340703      0.1302
     13  C19       -2.4730   13.9400    8.2290 C.3   703  340703      0.2332
     14  O20       -3.4730   14.8250    8.7420 O.3   703  340703     -0.4706
     15  C24       -4.5840   15.7580    8.7550 C.ar  703  340703      0.1391
     16  C25       -5.8290   15.0060    8.8880 C.ar  703  340703      0.0369
     17  C26       -7.0960   15.6980    8.9320 C.ar  703  340703      0.0031
     18  C27       -7.1460   17.1440    8.8430 C.ar  703  340703      0.0002
     19  C28       -5.9250   17.8990    8.7090 C.ar  703  340703      0.0031
     20  C29       -4.6610   17.2140    8.6670 C.ar  703  340703      0.0369
     21  C37       -2.1640   11.4190    6.3980 C.3   703  340703      0.0498
     22  O44       -0.9180   18.9250    5.9570 O.2   703  340703     -0.4681
     23  C45       -0.4510   19.9570    5.0780 C.3   703  340703      0.2526
@<TRIPOS>BOND
     1    11     2    2
     2    12     7    1
     3     2     1    1
     4     2     3    1
     5     1     6    2
     6     7     3   ar
     7     7     8   ar
     8     3     4   ar
     9    23    22    1
    10     6    22    1
    11     6     5    1
    12     8    21    1
    13     8     9   ar
    14     4     5    1
    15     4     9   ar
    16     5    10    2
    17     9    13    1
    18    13    14    1
    19    20    19   ar
    20    20    15   ar
    21    19    18   ar
    22    14    15    1
    23    15    16   ar
    24    18    17   ar
    25    16    17   ar
