@<TRIPOS>MOLECULE
1kbq_936_A_1.pdb
 26 28 0 0 0
SMALL
GASTEIGER

@<TRIPOS>ATOM
      1  C1        13.6400   36.6260   19.1790 C.2   703  936703      0.0837
      2  C2        13.6130   35.1800   18.7900 C.2   703  936703      0.2145
      3  C3        13.1760   34.2440   19.6680 C.ar  703  936703      0.1022
      4  C4        12.7340   34.6090   20.9680 C.ar  703  936703      0.0615
      5  C5        12.7390   35.9140   21.3820 C.2   703  936703      0.2306
      6  C6        13.2180   36.9910   20.4390 C.2   703  936703      0.1807
      7  N7        13.0660   32.8570   19.5330 N.ar  703  936703     -0.3263
      8  C8        12.5600   32.3480   20.7240 C.ar  703  936703      0.0372
      9  C9        12.3370   33.3890   21.6300 C.ar  703  936703      0.0375
     10  O10       12.3750   36.2480   22.4820 O.2   703  936703     -0.2833
     11  O11       13.9940   34.8630   17.6690 O.2   703  936703     -0.2849
     12  C12       13.3970   31.9780   18.3850 C.3   703  936703      0.1302
     13  C19       11.7600   33.1620   23.0660 C.3   703  936703      0.2332
     14  O20       11.6170   34.3700   23.7990 O.3   703  936703     -0.4706
     15  C24       10.2890   34.8910   23.8400 C.ar  703  936703      0.1392
     16  C25       10.1000   36.1560   24.4610 C.ar  703  936703      0.0386
     17  C26        8.8340   36.7630   24.4970 C.ar  703  936703      0.0272
     18  C27        7.7300   36.1080   23.9230 C.ar  703  936703      0.1431
     19  C28        7.8940   34.8390   23.3160 C.ar  703  936703      0.0272
     20  C29        9.1700   34.2380   23.2490 C.ar  703  936703      0.0386
     21  N34        6.5140   36.7000   23.9340 N.pl3 703  936703      0.0577
     22  O35        6.2000   37.8180   23.1520 O.2   703  936703     -0.1261
     23  O36        5.4440   36.2650   24.7060 O.2   703  936703     -0.1261
     24  C37       12.3510   30.8610   20.9730 C.3   703  936703      0.0498
     25  O44       13.2060   38.3070   20.9060 O.2   703  936703     -0.4681
     26  C45       13.6560   39.3270   20.0220 C.3   703  936703      0.2526
@<TRIPOS>BOND
     1    11     2    2
     2    12     7    1
     3     2     1    1
     4     2     3    1
     5     1     6    2
     6     7     3   ar
     7     7     8   ar
     8     3     4   ar
     9    26    25    1
    10     6    25    1
    11     6     5    1
    12     8    24    1
    13     8     9   ar
    14     4     5    1
    15     4     9   ar
    16     5    10    2
    17     9    13    1
    18    13    14    1
    19    22    21    2
    20    20    19   ar
    21    20    15   ar
    22    19    18   ar
    23    14    15    1
    24    15    16   ar
    25    18    21    1
    26    18    17   ar
    27    21    23    2
    28    16    17   ar
