@<TRIPOS>MOLECULE
1kby_U10_M_1.pdb
 48 48 0 0 0
SMALL
GASTEIGER

@<TRIPOS>ATOM
      1  C1        21.0380   78.1820   19.1280 C.2   857  U10857      0.0198
      2  C2        21.8450   76.9130   19.0620 C.2   857  U10857      0.2282
      3  C3        22.0290   76.1620   17.7520 C.2   857  U10857      0.2140
      4  C4        21.3820   76.6910   16.4600 C.2   857  U10857      0.2140
      5  C5        20.5710   77.9680   16.5240 C.2   857  U10857      0.2285
      6  C6        20.3780   78.7550   17.8660 C.2   857  U10857      0.0235
      7  C1M       20.8910   78.8900   20.4920 C.3   857  U10857      0.0343
      8  C3M       24.2210   75.0740   17.8790 C.3   857  U10857      0.2528
      9  C4M       22.6800   75.4880   14.6470 C.3   857  U10857      0.2528
     10  C7        19.5540   80.0900   18.0460 C.3   857  U10857      0.0548
     11  C8        19.7300   80.8560   16.8560 C.2   857  U10857     -0.0298
     12  C9        20.3450   82.0510   16.6280 C.2   857  U10857     -0.0475
     13  C10       20.2820   82.4830   15.1700 C.3   857  U10857      0.0260
     14  C11       21.0500   82.9350   17.6380 C.3   857  U10857      0.0264
     15  C12       20.7890   84.4130   17.3600 C.3   857  U10857      0.0297
     16  C13       20.8510   85.3540   18.4610 C.2   857  U10857     -0.0342
     17  C14       19.8350   85.8470   19.2760 C.2   857  U10857     -0.0478
     18  C15       20.3380   86.8340   20.3090 C.3   857  U10857      0.0260
     19  C16       18.3590   85.4450   19.1460 C.3   857  U10857      0.0263
     20  C17       17.3870   86.1250   20.1400 C.3   857  U10857      0.0297
     21  C18       16.9510   87.4420   19.6510 C.2   857  U10857     -0.0342
     22  C19       15.9200   87.7810   18.7780 C.2   857  U10857     -0.0478
     23  C20       15.7490   89.2630   18.4680 C.3   857  U10857      0.0260
     24  C21       14.9650   86.8030   18.1100 C.3   857  U10857      0.0263
     25  C22       13.6720   87.4320   17.5880 C.3   857  U10857      0.0297
     26  C23       12.5630   86.8170   18.2860 C.2   857  U10857     -0.0342
     27  C24       11.3220   86.4600   17.7610 C.2   857  U10857     -0.0478
     28  C25       10.3370   85.8240   18.7470 C.3   857  U10857      0.0260
     29  C26       10.9260   86.6710   16.3000 C.3   857  U10857      0.0263
     30  C27        9.5340   86.2160   15.9320 C.3   857  U10857      0.0297
     31  C28        8.9200   87.2010   15.0670 C.2   857  U10857     -0.0342
     32  C29        7.5370   87.3400   14.9320 C.2   857  U10857     -0.0478
     33  C30        6.9910   88.4270   13.9830 C.3   857  U10857      0.0260
     34  C31        6.5620   86.4410   15.7100 C.3   857  U10857      0.0263
     35  C32        5.7990   85.4350   14.8460 C.3   857  U10857      0.0297
     36  C33        4.4440   85.4440   15.3760 C.2   857  U10857     -0.0342
     37  C34        3.6310   84.3300   15.6220 C.2   857  U10857     -0.0478
     38  C35        2.2540   84.6550   16.1930 C.3   857  U10857      0.0260
     39  C36        4.0280   82.8470   15.3670 C.3   857  U10857      0.0263
     40  C37        2.9700   81.9890   14.6410 C.3   857  U10857      0.0297
     41  C38        2.8890   82.4970   13.2790 C.2   857  U10857     -0.0342
     42  C39        1.7230   82.7660   12.5620 C.2   857  U10857     -0.0478
     43  C40        1.8740   83.3120   11.1470 C.3   857  U10857      0.0260
     44  C41        0.3140   82.5530   13.1120 C.3   857  U10857      0.0260
     45  O2        22.3670   76.4770   20.1040 O.2   857  U10857     -0.2836
     46  O3        22.8000   74.9780   17.7590 O.2   857  U10857     -0.4652
     47  O4        21.4920   76.0460   15.1920 O.2   857  U10857     -0.4652
     48  O5        20.0720   78.3400   15.4400 O.2   857  U10857     -0.2835
@<TRIPOS>BOND
     1    43    42    1
     2    42    44    1
     3    42    41    2
     4    41    40    1
     5    33    32    1
     6    40    39    1
     7     9    47    1
     8    35    36    1
     9    35    34    1
    10    32    31    2
    11    32    34    1
    12    31    30    1
    13    13    12    1
    14    47     4    1
    15    39    37    1
    16    36    37    2
    17    48     5    2
    18    37    38    1
    19    30    29    1
    20    29    27    1
    21     4     5    1
    22     4     3    2
    23     5     6    1
    24    12    11    2
    25    12    14    1
    26    11    10    1
    27    15    14    1
    28    15    16    1
    29    25    24    1
    30    25    26    1
    31     3    46    1
    32     3     2    1
    33    46     8    1
    34    27    26    2
    35    27    28    1
    36     6    10    1
    37     6     1    2
    38    24    22    1
    39    16    17    2
    40    23    22    1
    41    22    21    2
    42     2     1    1
    43     2    45    2
    44     1     7    1
    45    19    17    1
    46    19    20    1
    47    17    18    1
    48    21    20    1
