@<TRIPOS>MOLECULE
1kby_SPO_M_1.pdb
 42 41 0 0 0
SMALL
GASTEIGER

@<TRIPOS>ATOM
      1  CM1       43.1230   85.0010   55.5710 C.3   859  SPO859      0.1739
      2  O1        44.2240   86.0750   55.8140 O.3   859  SPO859     -0.3559
      3  C1        45.3910   86.3240   54.7720 C.3   859  SPO859      0.0930
      4  C2        46.3780   87.3170   55.3980 C.3   859  SPO859      0.0296
      5  C3        46.1690   85.0320   54.4370 C.3   859  SPO859      0.0296
      6  C4        44.8700   86.9840   53.4990 C.3   859  SPO859      0.0276
      7  C5        43.7990   87.9350   53.7010 C.3   859  SPO859      0.0067
      8  C6        43.3050   88.7390   52.5290 C.3   859  SPO859      0.0218
      9  C7        41.9710   89.1090   52.2630 C.2   859  SPO859     -0.0478
     10  C8        40.9320   88.6040   53.3210 C.3   859  SPO859      0.0260
     11  C9        41.7460   89.8600   51.1180 C.2   859  SPO859     -0.0299
     12  C10       40.3750   90.3530   50.6500 C.3   859  SPO859      0.0510
     13  C11       40.3620   91.1850   49.3680 C.2   859  SPO859     -0.0257
     14  C12       39.2040   91.5950   48.7250 C.2   859  SPO859     -0.0258
     15  C13       37.7500   91.2200   49.2740 C.3   859  SPO859      0.0307
     16  C14       39.4620   92.3720   47.5750 C.2   859  SPO859     -0.0046
     17  C15       38.3150   92.9540   46.7080 C.2   859  SPO859     -0.0007
     18  C16       38.4870   93.8640   45.4260 C.2   859  SPO859     -0.0043
     19  C17       37.2860   94.3160   44.7760 C.2   859  SPO859     -0.0222
     20  C18       35.8790   93.9300   45.2840 C.3   859  SPO859      0.0310
     21  C19       37.2860   95.1450   43.6460 C.2   859  SPO859     -0.0088
     22  C20       38.4150   95.6430   42.9860 C.2   859  SPO859     -0.0264
     23  C21       38.2800   96.7720   42.0000 C.3   859  SPO859      0.0264
     24  C22       39.5710   97.1530   41.4010 C.3   859  SPO859      0.0090
     25  C23       39.8360   97.4420   40.0600 C.3   859  SPO859      0.0224
     26  C24       38.9040   98.4840   39.3760 C.3   859  SPO859      0.0047
     27  C25       41.2140   97.7210   40.0920 C.2   859  SPO859     -0.0265
     28  C26       42.0130   98.1070   38.9200 C.2   859  SPO859     -0.0052
     29  C27       43.4660   98.3520   39.1000 C.2   859  SPO859     -0.0088
     30  C28       44.2600   98.7330   38.0180 C.2   859  SPO859     -0.0436
     31  C29       43.7540   98.9530   36.5520 C.3   859  SPO859      0.0264
     32  C30       45.7730   98.9830   38.1780 C.3   859  SPO859      0.0267
     33  C31       46.0850  100.4460   38.3890 C.3   859  SPO859      0.0297
     34  C32       47.4070  100.6610   38.8070 C.2   859  SPO859     -0.0343
     35  C33       47.9910  101.7390   39.4930 C.2   859  SPO859     -0.0482
     36  C34       47.2130  102.9800   39.9460 C.3   859  SPO859      0.0260
     37  C35       49.5230  101.8130   39.8860 C.3   859  SPO859      0.0217
     38  C36       50.5150  100.8990   39.1350 C.3   859  SPO859      0.0043
     39  C37       51.2850  101.6550   38.0670 C.3   859  SPO859      0.0003
     40  C38       51.8540  101.2300   36.8430 C.3   859  SPO859      0.0000
     41  C39       53.2050  100.4840   36.6880 C.3   859  SPO859      0.0000
     42  C40       51.1960  101.4570   35.4670 C.3   859  SPO859      0.0000
@<TRIPOS>BOND
     1    42    40    1
     2    31    30    1
     3    41    40    1
     4    40    39    1
     5    30    32    1
     6    30    29    2
     7    39    38    1
     8    32    33    1
     9    33    34    1
    10    34    35    2
    11    28    29    1
    12    28    27    2
    13    38    37    1
    14    26    25    1
    15    35    37    1
    16    35    36    1
    17    25    27    1
    18    25    24    1
    19    24    23    1
    20    23    22    1
    21    22    21    2
    22    21    19    1
    23    19    20    1
    24    19    18    2
    25    18    17    1
    26    17    16    2
    27    16    14    1
    28    14    15    1
    29    14    13    2
    30    13    12    1
    31    12    11    1
    32    11     9    2
    33     9     8    1
    34     9    10    1
    35     8     7    1
    36     6     7    1
    37     6     3    1
    38     5     3    1
    39     3     4    1
    40     3     2    1
    41     1     2    1
