@<TRIPOS>MOLECULE
1kc1_NDP_A_1.pdb
 48 52 0 0 0
SMALL
GASTEIGER

@<TRIPOS>ATOM
      1  PA         8.5690  -14.0910   15.4410 P.3   901  NDP901      0.2189
      2  O1A        9.2960  -15.0820   14.5300 O.2   901  NDP901     -0.5170
      3  O2A        7.9670  -12.9180   14.7780 O.3   901  NDP901     -0.4371
      4  O5B        9.7020  -13.6070   16.4790 O.3   901  NDP901     -0.3112
      5  C5B       10.8290  -14.2850   17.0010 C.3   901  NDP901      0.1813
      6  C4B       12.1430  -13.4800   16.8580 C.3   901  NDP901      0.1820
      7  O4B       13.3240  -14.3010   17.0000 O.3   901  NDP901     -0.3136
      8  C3B       12.3140  -12.7760   15.5140 C.3   901  NDP901      0.2157
      9  O3B       12.8910  -11.4980   15.6180 O.3   901  NDP901     -0.2175
     10  C2B       13.4030  -13.5840   14.9100 C.3   901  NDP901      0.2314
     11  O2B       13.8430  -12.9130   13.7260 O.3   901  NDP901     -0.2630
     12  C1B       14.2610  -13.6660   16.0840 C.3   901  NDP901      0.3158
     13  N9A       15.3170  -14.5220   15.7880 N.pl3 901  NDP901     -0.1439
     14  C8A       15.4120  -15.4990   14.8240 C.3   901  NDP901      0.3377
     15  N7A       16.6110  -16.0640   14.9160 N.2   901  NDP901     -0.2095
     16  C5A       17.2430  -15.4590   15.9130 C.2   901  NDP901      0.2526
     17  C6A       18.5120  -15.6560   16.4310 C.2   901  NDP901      0.4393
     18  N6A       19.4040  -16.5900   15.9460 N.pl3 901  NDP901      0.2180
     19  N1A       18.9080  -14.8680   17.5040 N.2   901  NDP901      0.0021
     20  C2A       18.0490  -13.9170   18.0110 C.3   901  NDP901      0.5254
     21  N3A       16.7870  -13.7170   17.4930 N.2   901  NDP901     -0.0055
     22  C4A       16.4290  -14.4930   16.4680 C.2   901  NDP901      0.3518
     23  O3         7.5100  -14.7990   16.3240 O.3   901  NDP901     -0.2703
     24  PN         6.5910  -14.0070   17.3460 P.3   901  NDP901      0.2189
     25  O1N        7.0770  -12.6170   17.7200 O.3   901  NDP901     -0.4371
     26  O2N        5.1530  -14.1540   16.9120 O.2   901  NDP901     -0.5170
     27  O5D        6.6290  -14.9890   18.6090 O.3   901  NDP901     -0.3112
     28  C5D        7.4000  -14.5590   19.7560 C.3   901  NDP901      0.1813
     29  C4D        7.1710  -15.2450   21.0930 C.3   901  NDP901      0.1799
     30  O4D        5.8190  -15.6530   21.1460 O.3   901  NDP901     -0.3327
     31  C3D        8.0080  -16.4930   21.3250 C.3   901  NDP901      0.2158
     32  O3D        7.9800  -17.0170   22.6120 O.3   901  NDP901     -0.2175
     33  C2D        7.1220  -17.3760   20.5960 C.3   901  NDP901      0.2309
     34  O2D        7.3630  -18.7270   20.6760 O.3   901  NDP901     -0.2158
     35  C1D        5.8470  -17.0040   21.2320 C.3   901  NDP901      0.2263
     36  N1N        4.8350  -17.6400   20.3460 N.pl3 901  NDP901     -0.2787
     37  C2N        4.5470  -17.4370   18.9140 C.3   901  NDP901      0.1244
     38  C3N        3.5830  -18.1180   18.1550 C.2   901  NDP901      0.0544
     39  C7N        3.2040  -18.0170   16.6880 C.2   901  NDP901      0.2818
     40  O7N        2.2500  -18.6830   16.2440 O.2   901  NDP901     -0.2670
     41  N7N        3.9090  -17.2640   15.7960 N.am  901  NDP901     -0.0839
     42  C4N        2.7190  -19.1880   18.8030 C.2   901  NDP901      0.0033
     43  C5N        3.0460  -19.4260   20.2710 C.2   901  NDP901      0.0157
     44  C6N        4.0130  -18.6260   20.7630 C.2   901  NDP901      0.0633
     45  P2B       13.7640  -13.4450   12.1650 P.3   901  NDP901      0.5328
     46  O1X       13.8640  -12.1860   11.3170 O.2   901  NDP901     -0.2224
     47  O2X       12.4210  -14.1500   11.9620 O.3   901  NDP901     -0.1145
     48  O3X       14.9670  -14.3740   12.0690 O.3   901  NDP901     -0.1145
@<TRIPOS>BOND
     1    46    45    2
     2    47    45    1
     3    48    45    1
     4    45    11    1
     5    11    10    1
     6     2     1    2
     7     3     1    1
     8    14    15    1
     9    14    13    1
    10    10     8    1
    11    10    12    1
    12    15    16    2
    13     1    23    1
    14     1     4    1
    15     8     9    1
    16     8     6    1
    17    13    12    1
    18    13    22    1
    19    41    39   am
    20    16    17    1
    21    16    22    1
    22    18    17    1
    23    12     7    1
    24    40    39    2
    25    23    24    1
    26    17    19    2
    27    22    21    2
    28     4     5    1
    29    39    38    1
    30     6     7    1
    31     6     5    1
    32    26    24    2
    33    24    25    1
    34    24    27    1
    35    21    20    1
    36    19    20    1
    37    38    42    2
    38    38    37    1
    39    27    28    1
    40    42    43    1
    41    37    36    1
    42    28    29    1
    43    43    44    2
    44    36    44    1
    45    36    35    1
    46    33    34    1
    47    33    35    1
    48    33    31    1
    49    29    30    1
    50    29    31    1
    51    30    35    1
    52    31    32    1
