@<TRIPOS>MOLECULE
1kc3_TRH_A_1.pdb
 35 37 0 0 0
SMALL
GASTEIGER

@<TRIPOS>ATOM
      1  O4P        3.9080  -21.2290   12.8120 O.2   601  TRH601     -0.5170
      2  P2         2.9820  -22.4110   13.1210 P.3   601  TRH601      0.2208
      3  O3P        3.7010  -23.6580   13.5990 O.3   601  TRH601     -0.4371
      4  O1         1.8540  -22.0170   14.2180 O.3   601  TRH601     -0.2857
      5  C1         2.1710  -21.9740   15.5880 C.3   601  TRH601      0.2741
      6  C2         1.0340  -21.3270   16.3520 C.3   601  TRH601      0.2409
      7  O2         0.9550  -19.9400   16.0570 O.3   601  TRH601     -0.2149
      8  C3         1.3770  -21.6060   17.8080 C.3   601  TRH601      0.2197
      9  O3         0.4470  -21.1110   18.7240 O.3   601  TRH601     -0.2174
     10  C4         2.7680  -21.0850   18.1450 C.3   601  TRH601      0.2118
     11  O4         2.9950  -21.4790   19.5190 O.3   601  TRH601     -0.2177
     12  C5         3.9170  -21.3780   17.1360 C.3   601  TRH601      0.1508
     13  O5         3.3920  -21.2600   15.8160 O.3   601  TRH601     -0.3281
     14  C6         5.1060  -20.4130   17.1080 C.3   601  TRH601      0.0350
     15  OPP        1.9750  -22.7260   11.9170 O.3   601  TRH601     -0.2703
     16  P          1.0870  -21.5640   11.2590 P.3   601  TRH601      0.2189
     17  O1P        1.9730  -21.1070   10.1050 O.2   601  TRH601     -0.5170
     18  O2P        0.5190  -20.6490   12.3210 O.3   601  TRH601     -0.4371
     19  O5'       -0.2010  -22.2780   10.6450 O.3   601  TRH601     -0.3112
     20  C5'       -1.3540  -22.6780   11.3750 C.3   601  TRH601      0.1812
     21  C4'       -2.2410  -23.5120   10.4410 C.3   601  TRH601      0.1773
     22  O4'       -2.0140  -23.2890    9.0120 O.3   601  TRH601     -0.3339
     23  C3'       -2.0710  -25.0340   10.5720 C.3   601  TRH601      0.1857
     24  O3'       -2.7070  -25.6430   11.7090 O.3   601  TRH601     -0.2203
     25  C2'       -2.6710  -25.4730    9.2480 C.3   601  TRH601      0.0874
     26  C1'       -2.8370  -24.2300    8.3450 C.3   601  TRH601      0.2090
     27  N11       -2.5910  -24.7710    6.9850 N.am  601  TRH601     -0.1794
     28  C21       -3.6620  -25.1140    6.2190 C.1   601  TRH601      0.2844
     29  O21       -4.8020  -24.9080    6.5960 O.2   601  TRH601     -0.1918
     30  N31       -3.5800  -25.6930    5.0080 N.2   601  TRH601     -0.2455
     31  C41       -2.3910  -26.0160    4.4730 C.1   601  TRH601      0.2134
     32  O41       -2.3200  -26.5490    3.3380 O.2   601  TRH601     -0.2088
     33  C51       -1.1770  -25.6940    5.2840 C.2   601  TRH601      0.0891
     34  C5A        0.1780  -26.0350    4.7430 C.3   601  TRH601      0.0462
     35  C61       -1.3460  -25.0690    6.5390 C.2   601  TRH601      0.0877
@<TRIPOS>BOND
     1    32    31    2
     2    31    30    2
     3    31    33    1
     4    34    33    1
     5    30    28    2
     6    33    35    2
     7    28    29    2
     8    28    27   am
     9    35    27    1
    10    27    26    1
    11    26    22    1
    12    26    25    1
    13    22    21    1
    14    25    23    1
    15    17    16    2
    16    21    23    1
    17    21    20    1
    18    23    24    1
    19    19    16    1
    20    19    20    1
    21    16    15    1
    22    16    18    1
    23    15     2    1
    24     1     2    2
    25     2     3    1
    26     2     4    1
    27     4     5    1
    28     5    13    1
    29     5     6    1
    30    13    12    1
    31     7     6    1
    32     6     8    1
    33    14    12    1
    34    12    10    1
    35     8    10    1
    36     8     9    1
    37    10    11    1
