@<TRIPOS>MOLECULE
1kc3_NDP_A_1.pdb
 48 52 0 0 0
SMALL
GASTEIGER

@<TRIPOS>ATOM
      1  PA         8.6140  -13.8320   15.6440 P.3   901  NDP901      0.2189
      2  O1A        9.2030  -14.9380   14.7820 O.2   901  NDP901     -0.5170
      3  O2A        7.9300  -12.7100   14.8890 O.3   901  NDP901     -0.4371
      4  O5B        9.7980  -13.2950   16.6070 O.3   901  NDP901     -0.3112
      5  C5B       10.8990  -14.0180   17.1280 C.3   901  NDP901      0.1813
      6  C4B       12.2000  -13.2350   16.9390 C.3   901  NDP901      0.1820
      7  O4B       13.3660  -14.0260   17.0900 O.3   901  NDP901     -0.3136
      8  C3B       12.3290  -12.6260   15.5540 C.3   901  NDP901      0.2157
      9  O3B       12.6690  -11.2740   15.7010 O.3   901  NDP901     -0.2175
     10  C2B       13.4420  -13.3930   14.8960 C.3   901  NDP901      0.2314
     11  O2B       13.9240  -12.6920   13.7150 O.3   901  NDP901     -0.2630
     12  C1B       14.3110  -13.5570   16.0740 C.3   901  NDP901      0.3158
     13  N9A       15.3560  -14.4970   15.8280 N.pl3 901  NDP901     -0.1439
     14  C8A       15.4540  -15.5770   14.9570 C.3   901  NDP901      0.3377
     15  N7A       16.6540  -16.1280   15.1010 N.2   901  NDP901     -0.2095
     16  C5A       17.3000  -15.4220   16.0280 C.2   901  NDP901      0.2526
     17  C6A       18.5680  -15.5650   16.5650 C.2   901  NDP901      0.4393
     18  N6A       19.5110  -16.5200   16.2070 N.pl3 901  NDP901      0.2180
     19  N1A       18.9360  -14.6390   17.5220 N.2   901  NDP901      0.0021
     20  C2A       18.1000  -13.6180   17.9680 C.3   901  NDP901      0.5254
     21  N3A       16.8440  -13.4850   17.4470 N.2   901  NDP901     -0.0055
     22  C4A       16.4900  -14.3880   16.4920 C.2   901  NDP901      0.3518
     23  O3         7.7690  -14.5730   16.7340 O.3   901  NDP901     -0.2703
     24  PN         6.6960  -13.7760   17.6030 P.3   901  NDP901      0.2189
     25  O1N        6.9990  -12.3150   17.8350 O.3   901  NDP901     -0.4371
     26  O2N        5.3120  -14.2480   17.1390 O.2   901  NDP901     -0.5170
     27  O5D        6.7410  -14.4290   19.0720 O.3   901  NDP901     -0.3112
     28  C5D        7.4830  -13.8290   20.1300 C.3   901  NDP901      0.1813
     29  C4D        7.5960  -14.6720   21.3630 C.3   901  NDP901      0.1799
     30  O4D        6.3380  -15.3190   21.5500 O.3   901  NDP901     -0.3327
     31  C3D        8.6930  -15.7660   21.3180 C.3   901  NDP901      0.2158
     32  O3D        9.1620  -16.2120   22.5530 O.3   901  NDP901     -0.2175
     33  C2D        7.9160  -16.9110   20.7930 C.3   901  NDP901      0.2309
     34  O2D        8.4040  -18.2020   21.0140 O.3   901  NDP901     -0.2158
     35  C1D        6.6180  -16.6860   21.5160 C.3   901  NDP901      0.2263
     36  N1N        5.4700  -17.3670   20.7940 N.pl3 901  NDP901     -0.2787
     37  C2N        5.0230  -17.0280   19.4600 C.3   901  NDP901      0.1244
     38  C3N        3.9930  -17.6200   18.8130 C.2   901  NDP901      0.0544
     39  C7N        3.4400  -17.3480   17.4290 C.2   901  NDP901      0.2818
     40  O7N        2.3080  -17.7410   17.0780 O.2   901  NDP901     -0.2670
     41  N7N        4.1790  -16.6270   16.5420 N.am  901  NDP901     -0.0839
     42  C4N        3.1510  -18.4640   19.7300 C.2   901  NDP901      0.0033
     43  C5N        3.7780  -19.0500   20.9530 C.2   901  NDP901      0.0157
     44  C6N        4.8010  -18.3870   21.4630 C.2   901  NDP901      0.0633
     45  P2B       14.2360  -13.1860   12.1730 P.3   901  NDP901      0.5328
     46  O1X       13.3160  -12.3490   11.2880 O.2   901  NDP901     -0.2224
     47  O2X       13.9140  -14.6580   12.0350 O.3   901  NDP901     -0.1145
     48  O3X       15.7210  -12.9200   12.0050 O.3   901  NDP901     -0.1145
@<TRIPOS>BOND
     1    46    45    2
     2    48    45    1
     3    47    45    1
     4    45    11    1
     5    11    10    1
     6     2     1    2
     7     3     1    1
     8    10     8    1
     9    10    12    1
    10    14    15    1
    11    14    13    1
    12    15    16    2
    13     8     9    1
    14     8     6    1
    15     1     4    1
    16     1    23    1
    17    13    12    1
    18    13    22    1
    19    16    22    1
    20    16    17    1
    21    12     7    1
    22    18    17    1
    23    22    21    2
    24    41    39   am
    25    17    19    2
    26     4     5    1
    27    23    24    1
    28     6     7    1
    29     6     5    1
    30    40    39    2
    31    26    24    2
    32    39    38    1
    33    21    20    1
    34    19    20    1
    35    24    25    1
    36    24    27    1
    37    38    37    1
    38    38    42    2
    39    27    28    1
    40    37    36    1
    41    42    43    1
    42    28    29    1
    43    33    34    1
    44    33    31    1
    45    33    35    1
    46    36    44    1
    47    36    35    1
    48    43    44    2
    49    31    29    1
    50    31    32    1
    51    29    30    1
    52    35    30    1
