@<TRIPOS>MOLECULE
1kc7_PPR_A_1.pdb
 10 9 0 0 0
SMALL
GASTEIGER

@<TRIPOS>ATOM
      1  C1        12.2140    8.4000    4.2270 C.2   1000  PPR1000     0.3951
      2  O1        12.8380    8.8970    3.2100 O.co2 1000  PPR1000    -0.2428
      3  O2'       10.9970    8.4700    4.3360 O.co2 1000  PPR1000    -0.2428
      4  C2        13.0990    7.7160    5.2690 C.3   1000  PPR1000     0.2612
      5  C3        14.4390    7.5000    5.2770 C.3   1000  PPR1000     0.1036
      6  O2        12.4330    7.2480    6.3020 O.3   1000  PPR1000    -0.2104
      7  P         14.5980    5.6080    4.7980 P.3   1000  PPR1000     0.1203
      8  O1P       15.9860    5.4370    4.1140 O.3   1000  PPR1000    -0.3570
      9  O2P       13.4770    5.3690    3.9050 O.2   1000  PPR1000    -0.4600
     10  O3P       14.5940    4.8220    6.0460 O.3   1000  PPR1000    -0.3570
@<TRIPOS>BOND
     1     2     1   ar
     2     9     7    2
     3     8     7    1
     4     1     3   ar
     5     1     4    1
     6     7     5    1
     7     7    10    1
     8     4     5    1
     9     4     6    1
