@<TRIPOS>MOLECULE
1kcc_GTR_A_1.pdb
 13 13 0 0 0
SMALL
GASTEIGER

@<TRIPOS>ATOM
      1  C1        17.7710   46.2260   -4.7210 C.3   1001  GTR1001     0.3028
      2  C2        18.5740   46.6410   -5.9430 C.3   1001  GTR1001     0.2435
      3  C3        19.0300   45.4710   -6.6560 C.3   1001  GTR1001     0.2204
      4  C4        19.8900   44.5330   -5.7560 C.3   1001  GTR1001     0.2229
      5  C5        19.0180   44.2430   -4.5190 C.3   1001  GTR1001     0.2530
      6  C6        19.7920   43.4260   -3.5040 C.2   1001  GTR1001     0.3941
      7  O1        17.3340   47.3380   -4.0000 O.3   1001  GTR1001    -0.1869
      8  O2        17.7430   47.4690   -6.7820 O.3   1001  GTR1001    -0.2148
      9  O3        19.8650   45.8970   -7.8150 O.3   1001  GTR1001    -0.2174
     10  O4        21.1260   45.1780   -5.4140 O.3   1001  GTR1001    -0.2171
     11  O5        18.6000   45.4580   -3.8580 O.3   1001  GTR1001    -0.3149
     12  O61       20.1560   43.8880   -2.4010 O.co2 1001  GTR1001    -0.2429
     13  O62       20.0150   42.2600   -3.8510 O.co2 1001  GTR1001    -0.2429
@<TRIPOS>BOND
     1     9     3    1
     2     8     2    1
     3     3     2    1
     4     3     4    1
     5     2     1    1
     6     4    10    1
     7     4     5    1
     8     1     7    1
     9     1    11    1
    10     5    11    1
    11     5     6    1
    12    13     6   ar
    13     6    12   ar
