@<TRIPOS>MOLECULE
1kcd_GTR_A_1.pdb
 13 13 0 0 0
SMALL
GASTEIGER

@<TRIPOS>ATOM
      1  C1        17.5270   46.1760   -4.7170 C.3   1002  GTR1002     0.3028
      2  C2        18.3760   46.6610   -5.9200 C.3   1002  GTR1002     0.2435
      3  C3        18.7860   45.5060   -6.6590 C.3   1002  GTR1002     0.2204
      4  C4        19.7030   44.5150   -5.8110 C.3   1002  GTR1002     0.2229
      5  C5        18.8540   44.2220   -4.5540 C.3   1002  GTR1002     0.2530
      6  C6        19.6660   43.3960   -3.5680 C.2   1002  GTR1002     0.3941
      7  O1        17.1860   47.2870   -3.9140 O.3   1002  GTR1002    -0.1869
      8  O2        17.5140   47.5020   -6.7490 O.3   1002  GTR1002    -0.2148
      9  O3        19.6290   45.9050   -7.8070 O.3   1002  GTR1002    -0.2174
     10  O4        20.9580   45.1710   -5.4500 O.3   1002  GTR1002    -0.2171
     11  O5        18.4510   45.4390   -3.9010 O.3   1002  GTR1002    -0.3149
     12  O61       20.0700   43.8610   -2.4800 O.co2 1002  GTR1002    -0.2429
     13  O62       19.9120   42.2250   -3.8990 O.co2 1002  GTR1002    -0.2429
@<TRIPOS>BOND
     1     9     3    1
     2     8     2    1
     3     3     2    1
     4     3     4    1
     5     2     1    1
     6     4    10    1
     7     4     5    1
     8     1     7    1
     9     1    11    1
    10     5    11    1
    11     5     6    1
    12    13     6   ar
    13     6    12   ar
