@<TRIPOS>MOLECULE
1kcd_GTK_A_1.pdb
 13 13 0 0 0
SMALL
GASTEIGER

@<TRIPOS>ATOM
      1  C1        25.5840   44.7930   -7.3410 C.3   1001  GTK1001     0.3024
      2  O1        26.3800   44.5450   -8.4930 O.3   1001  GTK1001    -0.1869
      3  C2        24.4650   45.7690   -7.5760 C.3   1001  GTK1001     0.2433
      4  O2        24.0180   46.2620   -6.2910 O.3   1001  GTK1001    -0.2148
      5  C3        23.3360   44.8430   -8.0820 C.3   1001  GTK1001     0.2174
      6  O3        23.3210   44.9290   -9.5000 O.3   1001  GTK1001    -0.2175
      7  C4        23.7910   43.4290   -7.7000 C.3   1001  GTK1001     0.1922
      8  O4        25.0240   43.5380   -7.0030 O.3   1001  GTK1001    -0.3231
      9  C5        22.7550   42.5730   -6.9770 C.3   1001  GTK1001     0.2834
     10  O5        22.7480   43.0260   -5.6320 O.3   1001  GTK1001    -0.2081
     11  C6        22.9260   41.0840   -6.9550 C.2   1001  GTK1001     0.3972
     12  O61       22.8580   40.4990   -8.1510 O.co2 1001  GTK1001    -0.2427
     13  O62       23.1430   40.4300   -5.9510 O.co2 1001  GTK1001    -0.2427
@<TRIPOS>BOND
     1     6     5    1
     2     2     1    1
     3    12    11   ar
     4     5     7    1
     5     5     3    1
     6     7     8    1
     7     7     9    1
     8     3     1    1
     9     3     4    1
    10     1     8    1
    11     9    11    1
    12     9    10    1
    13    11    13   ar
