@<TRIPOS>MOLECULE
1kce_UMP_A_1.pdb
 20 21 0 0 0
SMALL
GASTEIGER

@<TRIPOS>ATOM
      1  N1        17.5240   19.9950   31.1860 N.am  301  UMP301     -0.2018
      2  C2        18.3300   19.8740   32.3320 C.1   301  UMP301      0.2802
      3  N3        19.2220   18.8460   32.3160 N.2   301  UMP301     -0.2497
      4  C4        19.3810   17.9130   31.2980 C.1   301  UMP301      0.1941
      5  C5        18.5160   17.9630   30.0510 C.3   301  UMP301      0.1579
      6  C6        17.7980   19.3100   29.8780 C.3   301  UMP301      0.1249
      7  O2        18.3060   20.6180   33.3120 O.2   301  UMP301     -0.1922
      8  O4        20.2480   17.0470   31.4230 O.2   301  UMP301     -0.2133
      9  C1'       16.3190   20.8890   31.2020 C.3   301  UMP301      0.2048
     10  C2'       16.5320   22.3720   30.8590 C.3   301  UMP301      0.0871
     11  C3'       15.1510   22.8270   30.4240 C.3   301  UMP301      0.1857
     12  C4'       14.5920   21.6790   29.5760 C.3   301  UMP301      0.1774
     13  O3'       14.3430   22.9820   31.6230 O.3   301  UMP301     -0.2203
     14  O4'       15.1670   20.5270   30.3100 O.3   301  UMP301     -0.3342
     15  C5'       15.1940   21.6790   28.1790 C.3   301  UMP301      0.1858
     16  O5'       14.5310   22.7530   27.4960 O.3   301  UMP301     -0.2675
     17  P         15.1870   23.7790   26.5270 P.3   301  UMP301      0.5327
     18  OP1       14.1510   24.6500   25.9260 O.3   301  UMP301     -0.1145
     19  OP2       16.1260   24.5990   27.3140 O.3   301  UMP301     -0.1145
     20  OP3       15.8340   23.0640   25.4360 O.2   301  UMP301     -0.2224
@<TRIPOS>BOND
     1    20    17    2
     2    18    17    1
     3    17    19    1
     4    17    16    1
     5    16    15    1
     6    15    12    1
     7    12    14    1
     8    12    11    1
     9     6     5    1
    10     6     1    1
    11     5     4    1
    12    14     9    1
    13    11    10    1
    14    11    13    1
    15    10     9    1
    16     1     9    1
    17     1     2   am
    18     4     8    2
    19     4     3    2
    20     3     2    2
    21     2     7    2
