@<TRIPOS>MOLECULE
1kce_CB3_A_1.pdb
 35 37 0 0 0
SMALL
GASTEIGER

@<TRIPOS>ATOM
      1  N1        13.1220   18.5210   30.7120 N.2   300  CB3300     -0.3283
      2  C2        12.8180   19.3240   31.7560 C.1   300  CB3300      0.2512
      3  NA2       11.8380   20.2250   31.6640 N.pl3 300  CB3300     -0.0226
      4  N3        13.5310   19.2270   32.8900 N.2   300  CB3300     -0.2537
      5  C4        14.5350   18.3340   33.0230 C.1   300  CB3300      0.2018
      6  O4        15.2830   18.3580   34.1620 O.2   300  CB3300     -0.2127
      7  C4A       14.7980   17.3960   32.0010 C.3   300  CB3300      0.1935
      8  C5        15.7070   16.3230   32.1430 C.2   300  CB3300     -0.0044
      9  C6        15.9170   15.3710   31.1040 C.2   300  CB3300     -0.0051
     10  C7        15.2160   15.5750   29.9070 C.2   300  CB3300     -0.0005
     11  C8        14.3020   16.6360   29.7520 C.2   300  CB3300      0.0298
     12  C8A       14.0690   17.5400   30.7970 C.2   300  CB3300      0.1431
     13  C9        16.5610   14.0200   31.3210 C.3   300  CB3300      0.1182
     14  N10       16.8510   13.6160   32.7320 N.pl3 300  CB3300     -0.2924
     15  C11       13.7660   13.2410   35.5410 C.ar  300  CB3300      0.0551
     16  C12       13.4950   13.1460   34.1680 C.ar  300  CB3300      0.0058
     17  C13       14.5440   13.2640   33.2660 C.ar  300  CB3300      0.0147
     18  C14       15.8840   13.4850   33.6860 C.ar  300  CB3300      0.0488
     19  C15       16.1490   13.5940   35.0680 C.ar  300  CB3300      0.0147
     20  C16       15.0890   13.4740   35.9950 C.ar  300  CB3300      0.0058
     21  C         12.6340   13.0680   36.4530 C.2   300  CB3300      0.2652
     22  O         11.4800   12.8170   36.0840 O.2   300  CB3300     -0.2684
     23  N         12.8800   13.1690   37.7520 N.am  300  CB3300     -0.1918
     24  CA        12.3070   12.2360   38.7090 C.3   300  CB3300      0.1986
     25  CB        12.9100   10.8670   38.3930 C.3   300  CB3300      0.0451
     26  CG        11.9370    9.7010   38.4850 C.3   300  CB3300      0.1164
     27  CD        12.4990    8.4330   37.8620 C.2   300  CB3300      0.3649
     28  OE1       11.8680    7.8960   36.9230 O.co2 300  CB3300     -0.2457
     29  OE2       13.5900    7.9880   38.2880 O.co2 300  CB3300     -0.2457
     30  CT        12.8040   12.7670   40.0500 C.2   300  CB3300      0.3842
     31  O1        14.0100   13.0960   40.1600 O.co2 300  CB3300     -0.2437
     32  O2        11.9650   12.8730   40.9660 O.co2 300  CB3300     -0.2437
     33  CP1       18.2600   13.5170   33.1130 C.3   300  CB3300      0.1697
     34  CP2       18.7350   14.8030   33.6430 C.1   300  CB3300     -0.0557
     35  CP3       19.1260   15.8640   34.0490 C.1   300  CB3300     -0.0124
@<TRIPOS>BOND
     1    11    10    2
     2    11    12    1
     3    10     9    1
     4     1    12    2
     5     1     2    2
     6    12     7    1
     7     9    13    1
     8     9     8    2
     9    13    14    1
    10     3     2    1
    11     2     4    2
    12     7     8    1
    13     7     5    1
    14    14    33    1
    15    14    18    1
    16     4     5    2
    17     5     6    2
    18    33    34    1
    19    17    18   ar
    20    17    16   ar
    21    34    35    3
    22    18    19   ar
    23    16    15   ar
    24    19    20   ar
    25    15    20   ar
    26    15    21    1
    27    22    21    2
    28    21    23   am
    29    28    27   ar
    30    23    24    1
    31    27    29   ar
    32    27    26    1
    33    25    26    1
    34    25    24    1
    35    24    30    1
    36    30    31   ar
    37    30    32   ar
