@<TRIPOS>MOLECULE
1kcg_GSH_C_1.pdb
 20 19 0 0 0
SMALL
GASTEIGER

@<TRIPOS>ATOM
      1  N1         8.8580   -6.3370   51.9460 N.3   999  GSH999     -0.1208
      2  CA1       10.2620   -6.7440   52.0560 C.3   999  GSH999      0.1948
      3  C1        10.7140   -7.9950   52.8750 C.2   999  GSH999      0.3819
      4  O11       11.7180   -8.6330   52.5190 O.co2 999  GSH999     -0.2441
      5  O12       10.0570   -8.2910   53.9630 O.co2 999  GSH999     -0.2441
      6  CB1       11.3460   -5.6400   52.1840 C.3   999  GSH999      0.0402
      7  CG1       11.3630   -4.9600   50.7910 C.3   999  GSH999      0.0889
      8  CD1       12.8000   -5.0550   50.2290 C.2   999  GSH999      0.2418
      9  OE1       13.4280   -4.1320   49.6880 O.2   999  GSH999     -0.2733
     10  N2        12.8690   -6.3950   50.0800 N.am  999  GSH999     -0.1968
     11  CA2       13.6080   -7.3460   49.2430 C.3   999  GSH999      0.1843
     12  C2        12.4820   -8.2530   48.6910 C.2   999  GSH999      0.2627
     13  O2        12.2750   -9.4690   48.8470 O.2   999  GSH999     -0.2714
     14  CB2       14.9010   -7.9940   49.7800 C.3   999  GSH999      0.0997
     15  SG2       16.2180   -6.7530   49.5770 S.3   999  GSH999     -0.0797
     16  N3        11.7850   -7.2910   48.0350 N.am  999  GSH999     -0.1917
     17  CA3       10.6470   -6.8530   47.2130 C.3   999  GSH999      0.2285
     18  C3         9.7780   -7.7290   46.3310 C.2   999  GSH999      0.3865
     19  O31        8.9860   -7.0510   45.6380 O.co2 999  GSH999     -0.2437
     20  O32        9.9180   -8.9780   46.3140 O.co2 999  GSH999     -0.2437
@<TRIPOS>BOND
     1    19    18   ar
     2    20    18   ar
     3    18    17    1
     4    17    16    1
     5    16    12   am
     6    12    13    2
     7    12    11    1
     8    11    14    1
     9    11    10    1
    10    15    14    1
    11     9     8    2
    12    10     8   am
    13     8     7    1
    14     7     6    1
    15     1     2    1
    16     2     6    1
    17     2     3    1
    18     4     3   ar
    19     3     5   ar
