@<TRIPOS>MOLECULE
1kck_GLC_A_1.pdb
 12 12 0 0 0
SMALL
GASTEIGER

@<TRIPOS>ATOM
      1  C1        62.7280  104.2990   10.3640 C.3   696  GLC696      0.3024
      2  C2        62.2500  103.3660   11.4810 C.3   696  GLC696      0.2434
      3  C3        63.1450  102.1270   11.5610 C.3   696  GLC696      0.2199
      4  C4        63.2400  101.4520   10.1940 C.3   696  GLC696      0.2144
      5  C5        63.7000  102.4700    9.1460 C.3   696  GLC696      0.1836
      6  C6        63.7400  101.8840    7.7490 C.3   696  GLC696      0.2142
      7  O1        63.9930  104.7760   10.6590 O.3   696  GLC696     -0.1869
      8  O2        62.2770  104.0520   12.7220 O.3   696  GLC696     -0.2148
      9  O3        62.6080  101.2120   12.5040 O.3   696  GLC696     -0.2174
     10  O4        64.1770  100.3580   10.2600 O.3   696  GLC696     -0.2176
     11  O5        62.7910  103.5950    9.1130 O.3   696  GLC696     -0.3236
     12  O6        64.1030  102.8650    6.7910 O.3   696  GLC696     -0.2176
@<TRIPOS>BOND
     1    12     6    1
     2     6     5    1
     3    11     5    1
     4    11     1    1
     5     5     4    1
     6     4    10    1
     7     4     3    1
     8     1     7    1
     9     1     2    1
    10     2     3    1
    11     2     8    1
    12     3     9    1
