@<TRIPOS>MOLECULE
1kck_G6D_A_1.pdb
 10 10 0 0 0
SMALL
GASTEIGER

@<TRIPOS>ATOM
      1  C1        49.7170   89.2500   46.2510 C.3   693  G6D693      0.3021
      2  O2        51.3190   87.6070   45.5020 O.3   693  G6D693     -0.2149
      3  C2        49.9740   87.7670   45.9380 C.3   693  G6D693      0.2409
      4  C3A       49.0310   87.1900   44.8930 C.3   693  G6D693      0.1898
      5  O3A       49.1350   85.7660   44.8530 O.3   693  G6D693     -0.2201
      6  C4A       47.5750   87.5340   45.2280 C.3   693  G6D693      0.0653
      7  C5A       47.4330   89.0540   45.2820 C.3   693  G6D693      0.1206
      8  O5        48.3060   89.5720   46.3140 O.3   693  G6D693     -0.3290
      9  C6A       46.0390   89.5120   45.5960 C.3   693  G6D693      0.0322
     10  O1        50.3550   90.0910   45.3110 O.3   693  G6D693     -0.1869
@<TRIPOS>BOND
     1     5     4    1
     2     4     6    1
     3     4     3    1
     4     6     7    1
     5     7     9    1
     6     7     8    1
     7    10     1    1
     8     2     3    1
     9     3     1    1
    10     1     8    1
