@<TRIPOS>MOLECULE
1kck_ADH_A_1.pdb
 11 11 0 0 0
SMALL
GASTEIGER

@<TRIPOS>ATOM
      1  C1        45.9770   85.6570   44.3970 C.3   694  ADH694      0.1247
      2  C2        44.6360   85.6840   43.6270 C.3   694  ADH694      0.1995
      3  C3        43.7180   86.6420   44.3510 C.3   694  ADH694      0.1837
      4  C4        43.4490   86.0550   45.7610 C.3   694  ADH694      0.0383
      5  C5        44.5890   85.5960   46.5060 C.3   694  ADH694      0.0372
      6  C6        44.3770   84.3280   47.2960 C.3   694  ADH694      0.1822
      7  C7        45.8240   85.3740   45.8070 C.3   694  ADH694      0.0244
      8  N1        46.6850   86.9580   44.1800 N.3   694  ADH694     -0.1301
      9  O2        44.9150   86.0640   42.2820 O.3   694  ADH694     -0.2189
     10  O3        42.4590   86.7490   43.6880 O.3   694  ADH694     -0.2204
     11  O6        43.7010   83.2810   46.6030 O.3   694  ADH694     -0.2204
@<TRIPOS>BOND
     1     9     2    1
     2     2     3    1
     3     2     1    1
     4    10     3    1
     5     8     1    1
     6     3     4    1
     7     1     7    1
     8     4     5    1
     9     7     5    1
    10     5     6    1
    11    11     6    1
