@<TRIPOS>MOLECULE
1kcl_GLC_A_1.pdb
 12 12 0 0 0
SMALL
GASTEIGER

@<TRIPOS>ATOM
      1  C1        48.0860   91.9130   44.4330 C.3   1693  GLC1693     0.3024
      2  C2        48.5220   90.6770   45.2340 C.3   1693  GLC1693     0.2434
      3  C3        47.6510   89.4730   44.8690 C.3   1693  GLC1693     0.2199
      4  C4        46.1720   89.8280   45.0400 C.3   1693  GLC1693     0.2144
      5  C5        45.8470   91.0670   44.2020 C.3   1693  GLC1693     0.1836
      6  C6        44.4050   91.5170   44.3400 C.3   1693  GLC1693     0.2142
      7  O1        48.3140   91.7050   43.0830 O.3   1693  GLC1693    -0.1869
      8  O2        49.8820   90.3820   44.9520 O.3   1693  GLC1693    -0.2148
      9  O3        47.9820   88.3700   45.7010 O.3   1693  GLC1693    -0.2174
     10  O4        45.3530   88.7200   44.6260 O.3   1693  GLC1693    -0.2176
     11  O5        46.6820   92.1710   44.6190 O.3   1693  GLC1693    -0.3236
     12  O6        43.5630   90.8380   43.4190 O.3   1693  GLC1693    -0.2176
@<TRIPOS>BOND
     1     7     1    1
     2    12     6    1
     3     5     6    1
     4     5    11    1
     5     5     4    1
     6     1    11    1
     7     1     2    1
     8    10     4    1
     9     3     4    1
    10     3     2    1
    11     3     9    1
    12     8     2    1
