@<TRIPOS>MOLECULE
1kcl_BGC_A_1.pdb
 11 11 0 0 0
SMALL
GASTEIGER

@<TRIPOS>ATOM
      1  C2        35.7810   86.2070   45.4810 C.3   1696  BGC1696     0.2141
      2  C3        35.4980   87.5200   46.2110 C.3   1696  BGC1696     0.2173
      3  C4        35.7440   87.3420   47.7100 C.3   1696  BGC1696     0.2142
      4  C5        37.1670   86.8210   47.9460 C.3   1696  BGC1696     0.1810
      5  C6        37.4290   86.5090   49.4080 C.3   1696  BGC1696     0.2141
      6  C1        37.2030   85.7080   45.7900 C.3   1696  BGC1696     0.1777
      7  O2        35.6280   86.3960   44.0830 O.3   1696  BGC1696    -0.2176
      8  O3        34.1500   87.9100   45.9890 O.3   1696  BGC1696    -0.2175
      9  O4        35.5680   88.5850   48.3770 O.3   1696  BGC1696    -0.2176
     10  O5        37.3810   85.5970   47.2040 O.3   1696  BGC1696    -0.3481
     11  O6        36.2910   85.9180   50.0210 O.3   1696  BGC1696    -0.2176
@<TRIPOS>BOND
     1     7     1    1
     2     1     6    1
     3     1     2    1
     4     6    10    1
     5     8     2    1
     6     2     3    1
     7    10     4    1
     8     3     4    1
     9     3     9    1
    10     4     5    1
    11     5    11    1
