@<TRIPOS>MOLECULE
1kcl_MAL_A_1.pdb
 23 24 0 0 0
SMALL
GASTEIGER

@<TRIPOS>ATOM
      1  C1        60.9170   97.1750    9.6950 C.3   1688  MAL1688     0.2695
      2  C2        61.4150   96.2390   10.8020 C.3   1688  MAL1688     0.2406
      3  C3        62.9220   96.0530   10.6910 C.3   1688  MAL1688     0.2198
      4  C4        63.2360   95.4990    9.3030 C.3   1688  MAL1688     0.2144
      5  C5        62.7120   96.4590    8.2220 C.3   1688  MAL1688     0.1835
      6  C6        62.9550   95.9800    6.8170 C.3   1688  MAL1688     0.2142
      7  O1        61.4830   98.4600    9.8910 O.3   1688  MAL1688    -0.3257
      8  O2        61.1140   96.7330   12.1060 O.3   1688  MAL1688    -0.2149
      9  O3        63.3900   95.1650   11.7210 O.3   1688  MAL1688    -0.2174
     10  O4        64.6420   95.3800    9.1070 O.3   1688  MAL1688    -0.2176
     11  O5        61.2730   96.6760    8.3760 O.3   1688  MAL1688    -0.3256
     12  O6        62.4460   96.9150    5.8550 O.3   1688  MAL1688    -0.2176
     13  C1'       60.2230  102.4650   10.2270 C.3   1688  MAL1688     0.3023
     14  C2'       59.6700  101.4840   11.2450 C.3   1688  MAL1688     0.2433
     15  C3'       60.5740  100.2580   11.2980 C.3   1688  MAL1688     0.2168
     16  C4'       60.6250   99.6270    9.8970 C.3   1688  MAL1688     0.1804
     17  C5'       61.1880  100.6460    8.8780 C.3   1688  MAL1688     0.1804
     18  C6'       61.2050  100.0480    7.4850 C.3   1688  MAL1688     0.2141
     19  O1'       61.4570  102.9330   10.6700 O.3   1688  MAL1688    -0.1869
     20  O2'       59.5970  102.1020   12.5270 O.3   1688  MAL1688    -0.2148
     21  O3'       60.0420   99.3430   12.2490 O.3   1688  MAL1688    -0.2175
     22  O5'       60.3140  101.8030    8.9290 O.3   1688  MAL1688    -0.3237
     23  O6'       61.7180  100.9850    6.5450 O.3   1688  MAL1688    -0.2176
@<TRIPOS>BOND
     1    12     6    1
     2    23    18    1
     3     6     5    1
     4    18    17    1
     5     5    11    1
     6     5     4    1
     7    11     1    1
     8    17    22    1
     9    17    16    1
    10    22    13    1
    11    10     4    1
    12     4     3    1
    13     1     7    1
    14     1     2    1
    15     7    16    1
    16    16    15    1
    17    13    19    1
    18    13    14    1
    19     3     2    1
    20     3     9    1
    21     2     8    1
    22    14    15    1
    23    14    20    1
    24    15    21    1
