@<TRIPOS>MOLECULE
1kd2_HEM_A_1.pdb
 43 50 0 0 0
SMALL
GASTEIGER

@<TRIPOS>ATOM
      1 FE         31.0580   41.7350   21.0260 Fe    142  HEM142      0.0000
      2  CHA       30.3410   44.7930   22.4420 C.2   142  HEM142      0.0000
      3  CHB       33.7600   43.2940   19.3800 C.2   142  HEM142      0.0000
      4  CHC       31.3150   39.2080   18.8420 C.2   142  HEM142      0.0000
      5  CHD       27.7950   40.8130   21.6060 C.2   142  HEM142      0.0000
      6  NA        31.8750   43.5980   20.9300 N.ar  142  HEM142      0.0000
      7  C1A       31.4900   44.7220   21.6560 C.ar  142  HEM142      0.0000
      8  C2A       32.3910   45.8160   21.4320 C.ar  142  HEM142      0.0000
      9  C3A       33.3580   45.4400   20.5990 C.ar  142  HEM142      0.0000
     10  C4A       33.0210   44.0650   20.2200 C.ar  142  HEM142      0.0000
     11  CMA       34.5820   46.2940   20.2710 C.3   142  HEM142      0.0000
     12  CAA       32.2350   47.2160   21.9840 C.3   142  HEM142      0.0000
     13  CBA       32.8260   47.3520   23.3720 C.3   142  HEM142      0.0000
     14  CGA       32.9250   48.7950   23.8110 C.2   142  HEM142      0.0000
     15  O1A       31.8760   49.4150   24.0950 O.co2 142  HEM142      0.0000
     16  O2A       34.0590   49.3180   23.8610 O.co2 142  HEM142      0.0000
     17  NB        32.3300   41.3440   19.5130 N.2   142  HEM142      0.0000
     18  C1B       33.4510   42.0270   19.0490 C.2   142  HEM142      0.0000
     19  C2B       34.1630   41.2800   18.0220 C.2   142  HEM142      0.0000
     20  C3B       33.4670   40.0990   17.8020 C.2   142  HEM142      0.0000
     21  C4B       32.3060   40.1910   18.7430 C.2   142  HEM142      0.0000
     22  CMB       35.4580   41.7160   17.3920 C.3   142  HEM142      0.0000
     23  CAB       33.7980   38.9110   17.0600 C.3   142  HEM142      0.0000
     24  CBB       34.0020   38.7120   15.7000 C.3   142  HEM142      0.0000
     25  NC        29.8110   40.3210   20.4250 N.ar  142  HEM142      0.0000
     26  C1C       30.1270   39.2850   19.5640 C.ar  142  HEM142      0.0000
     27  C2C       29.0030   38.3810   19.3830 C.ar  142  HEM142      0.0000
     28  C3C       27.9870   38.8390   20.1100 C.ar  142  HEM142      0.0000
     29  C4C       28.4890   40.0680   20.7420 C.ar  142  HEM142      0.0000
     30  CMC       29.0340   37.1250   18.5730 C.3   142  HEM142      0.0000
     31  CAC       26.7760   38.1890   20.3370 C.3   142  HEM142      0.0000
     32  CBC       25.8430   37.7560   19.3910 C.3   142  HEM142      0.0000
     33  ND        29.4890   42.5330   21.9220 N.2   142  HEM142      0.0000
     34  C1D       28.2460   41.9620   22.1720 C.2   142  HEM142      0.0000
     35  C2D       27.4290   42.8190   23.0080 C.2   142  HEM142      0.0000
     36  C3D       28.1210   43.9490   23.2100 C.2   142  HEM142      0.0000
     37  C4D       29.3880   43.7880   22.5310 C.2   142  HEM142      0.0000
     38  CMD       26.0600   42.4830   23.6160 C.3   142  HEM142      0.0000
     39  CAD       27.6980   45.1660   24.0190 C.3   142  HEM142      0.0000
     40  CBD       26.7280   46.0510   23.2630 C.3   142  HEM142      0.0000
     41  CGD       26.4530   47.3580   23.9700 C.2   142  HEM142      0.0000
     42  O1D       26.9510   48.3850   23.4960 O.co2 142  HEM142      0.0000
     43  O2D       25.7310   47.3690   24.9830 O.co2 142  HEM142      0.0000
@<TRIPOS>BOND
     1    24    23    1
     2    23    20    1
     3    22    19    1
     4    20    19    2
     5    20    21    1
     6    19    18    1
     7    30    27    1
     8    21     4    2
     9    21    17    1
    10     4    26    1
    11    18     3    1
    12    18    17    2
    13     3    10    2
    14    27    26   ar
    15    27    28   ar
    16    32    31    1
    17    17     1    1
    18    26    25   ar
    19    28    31    1
    20    28    29   ar
    21    10     9   ar
    22    10     6   ar
    23    11     9    1
    24    25    29   ar
    25    25     1    1
    26     9     8   ar
    27    29     5    1
    28     6     1    1
    29     6     7   ar
    30     1    33    1
    31     8     7   ar
    32     8    12    1
    33     5    34    2
    34     7     2    2
    35    33    34    1
    36    33    37    2
    37    12    13    1
    38    34    35    1
    39     2    37    1
    40    37    36    1
    41    35    36    2
    42    35    38    1
    43    36    39    1
    44    40    41    1
    45    40    39    1
    46    13    14    1
    47    42    41   ar
    48    14    16   ar
    49    14    15   ar
    50    41    43   ar
