@<TRIPOS>MOLECULE
1kdg_NAG_A_1.pdb
 14 14 0 0 0
SMALL
GASTEIGER

@<TRIPOS>ATOM
      1  C1        26.0050   44.0430    1.9590 C.3   803  NAG803      0.1665
      2  C2        24.5600   43.5270    2.0040 C.3   803  NAG803      0.1576
      3  C3        23.6920   44.4360    1.1240 C.3   803  NAG803      0.2069
      4  C4        23.7850   45.8330    1.6470 C.3   803  NAG803      0.2134
      5  C5        25.2660   46.2530    1.8100 C.3   803  NAG803      0.1809
      6  C6        25.4170   47.5790    2.5190 C.3   803  NAG803      0.2141
      7  C7        23.8470   41.2230    2.2360 C.2   803  NAG803      0.2420
      8  C8        23.8120   39.8850    1.5690 C.3   803  NAG803      0.0964
      9  N2        24.4750   42.1650    1.5430 N.am  803  NAG803     -0.2019
     10  O3        22.3530   44.0210    1.1120 O.3   803  NAG803     -0.2184
     11  O4        23.0250   46.7160    0.8200 O.3   803  NAG803     -0.2176
     12  O5        25.9990   45.3250    2.5750 O.3   803  NAG803     -0.3489
     13  O6        26.7860   47.9430    2.5660 O.3   803  NAG803     -0.2176
     14  O7        23.3200   41.4000    3.3830 O.2   803  NAG803     -0.2733
@<TRIPOS>BOND
     1    11     4    1
     2    10     3    1
     3     3     4    1
     4     3     2    1
     5     9     2    1
     6     9     7   am
     7     8     7    1
     8     4     5    1
     9     5     6    1
    10     5    12    1
    11     1     2    1
    12     1    12    1
    13     7    14    2
    14     6    13    1
