@<TRIPOS>MOLECULE
1kdg_EMT_A_1.pdb
 11 11 0 0 0
SMALL
GASTEIGER

@<TRIPOS>ATOM
      1  SD         1.9970    0.8770   13.7280 S.3   6907  EMT6907     0.0000
      2 HG          1.2280    3.0400   14.2000 Hg    6907  EMT6907     0.0000
      3  CE1        3.7390    1.0070   13.5900 C.ar  6907  EMT6907     0.0000
      4  CD1        4.5060    0.3660   14.5620 C.ar  6907  EMT6907     0.0000
      5  CG1        5.9090    0.4600   14.3710 C.ar  6907  EMT6907     0.0000
      6  CD2        6.4640    1.2110   13.3480 C.ar  6907  EMT6907     0.0000
      7  CE2        5.7260    1.8490   12.4200 C.ar  6907  EMT6907     0.0000
      8  CZ         4.3750    1.7900   12.5400 C.ar  6907  EMT6907     0.0000
      9  CG         3.5850    2.4670   11.5620 C.2   6907  EMT6907     0.0000
     10  OD2        3.7570    2.6620   10.5340 O.co2 6907  EMT6907     0.0000
     11  OD1        2.5940    2.9220   11.6420 O.co2 6907  EMT6907     0.0000
@<TRIPOS>BOND
     1    10     9   ar
     2     9    11   ar
     3     9     8    1
     4     7     8   ar
     5     7     6   ar
     6     8     3   ar
     7     6     5   ar
     8     3     1    1
     9     3     4   ar
    10     1     2    1
    11     5     4   ar
