@<TRIPOS>MOLECULE
1kdg_MAN_A_1.pdb
 11 11 0 0 0
SMALL
GASTEIGER

@<TRIPOS>ATOM
      1  C1        36.1830  -12.0660   14.9630 C.3   805  MAN805      0.1777
      2  C2        37.3580  -12.5960   14.1410 C.3   805  MAN805      0.2141
      3  C3        37.8000  -13.9310   14.7050 C.3   805  MAN805      0.2173
      4  C4        38.1360  -13.7400   16.1860 C.3   805  MAN805      0.2142
      5  C5        36.9620  -13.1070   16.9020 C.3   805  MAN805      0.1810
      6  C6        37.2710  -12.8930   18.3700 C.3   805  MAN805      0.2141
      7  O2        38.4630  -11.7090   14.2130 O.3   805  MAN805     -0.2176
      8  O3        38.9620  -14.2710   14.0030 O.3   805  MAN805     -0.2175
      9  O4        38.3830  -15.0000   16.8260 O.3   805  MAN805     -0.2176
     10  O5        36.6690  -11.8610   16.2990 O.3   805  MAN805     -0.3481
     11  O6        36.5940  -11.6960   18.7900 O.3   805  MAN805     -0.2176
@<TRIPOS>BOND
     1     8     3    1
     2     2     7    1
     3     2     3    1
     4     2     1    1
     5     3     4    1
     6     1    10    1
     7     4     9    1
     8     4     5    1
     9    10     5    1
    10     5     6    1
    11     6    11    1
