@<TRIPOS>MOLECULE
1kdk_DHT_A_1.pdb
 21 24 0 0 0
SMALL
GASTEIGER

@<TRIPOS>ATOM
      1  C1        24.0520   10.0270   31.5730 C.3   301  DHT301      0.0078
      2  C2        25.5770   10.2030   31.4680 C.3   301  DHT301      0.0645
      3  C3        26.0140   11.6250   31.6660 C.2   301  DHT301      0.1506
      4  O3        26.8450   12.2080   30.9600 O.2   301  DHT301     -0.2961
      5  C4        25.3430   12.3870   32.7590 C.3   301  DHT301      0.0645
      6  C5        23.8560   12.1460   32.9140 C.3   301  DHT301      0.0073
      7  C6        23.2530   12.8000   34.1710 C.3   301  DHT301      0.0004
      8  C7        21.7230   12.7710   34.0700 C.3   301  DHT301      0.0000
      9  C8        21.2400   11.2890   34.0470 C.3   301  DHT301      0.0001
     10  C9        21.8950   10.5780   32.8330 C.3   301  DHT301      0.0000
     11  C10       23.4260   10.6590   32.8330 C.3   301  DHT301      0.0008
     12  C11       21.4010    9.0980   32.7140 C.3   301  DHT301      0.0001
     13  C12       19.8740    9.0050   32.7010 C.3   301  DHT301      0.0024
     14  C13       19.2260    9.7660   33.8590 C.3   301  DHT301      0.0282
     15  C14       19.7430   11.2230   33.8270 C.3   301  DHT301      0.0024
     16  C15       18.8410   11.9420   34.8510 C.3   301  DHT301      0.0027
     17  C16       17.4550   11.2710   34.6930 C.3   301  DHT301      0.0329
     18  C17       17.7560   10.0950   33.7410 C.3   301  DHT301      0.1519
     19  O17       16.8200    9.0140   33.9480 O.3   301  DHT301     -0.2232
     20  C18       19.5610    9.0160   35.1640 C.3   301  DHT301      0.0025
     21  C19       24.0270    9.9370   34.0760 C.3   301  DHT301      0.0000
@<TRIPOS>BOND
     1     4     3    2
     2     2     1    1
     3     2     3    1
     4     1    11    1
     5     3     5    1
     6    13    12    1
     7    13    14    1
     8    12    10    1
     9     5     6    1
    10    11    10    1
    11    11     6    1
    12    11    21    1
    13    10     9    1
    14     6     7    1
    15    18    14    1
    16    18    19    1
    17    18    17    1
    18    15    14    1
    19    15     9    1
    20    15    16    1
    21    14    20    1
    22     9     8    1
    23     8     7    1
    24    17    16    1
