@<TRIPOS>MOLECULE
1kdm_DHT_A_1.pdb
 21 24 0 0 0
SMALL
GASTEIGER

@<TRIPOS>ATOM
      1  C1        -4.5250   41.9340   33.0880 C.3   301  DHT301      0.0078
      2  C2        -3.4810   42.9930   33.4430 C.3   301  DHT301      0.0645
      3  C3        -2.0910   42.3820   33.5930 C.2   301  DHT301      0.1506
      4  O3        -1.5300   42.6540   34.6490 O.2   301  DHT301     -0.2961
      5  C4        -1.7410   41.0420   32.9680 C.3   301  DHT301      0.0645
      6  C5        -2.9140   40.0430   32.9090 C.3   301  DHT301      0.0073
      7  C6        -2.4900   38.7720   32.1020 C.3   301  DHT301      0.0004
      8  C7        -3.6290   37.7320   32.1980 C.3   301  DHT301      0.0000
      9  C8        -4.8980   38.3380   31.5650 C.3   301  DHT301      0.0001
     10  C9        -5.2920   39.7010   32.1970 C.3   301  DHT301      0.0000
     11  C10       -4.1360   40.7180   32.2440 C.3   301  DHT301      0.0008
     12  C11       -6.5890   40.2480   31.5740 C.3   301  DHT301      0.0001
     13  C12       -7.7180   39.2080   31.6640 C.3   301  DHT301      0.0024
     14  C13       -7.3830   37.9020   30.9580 C.3   301  DHT301      0.0282
     15  C14       -6.0610   37.3970   31.5600 C.3   301  DHT301      0.0024
     16  C15       -5.8990   35.9410   31.0970 C.3   301  DHT301      0.0027
     17  C16       -7.3530   35.4830   30.8500 C.3   301  DHT301      0.0329
     18  C17       -8.2450   36.6870   31.1980 C.3   301  DHT301      0.1519
     19  O17       -9.4520   36.4860   30.4060 O.3   301  DHT301     -0.2232
     20  C18       -7.1840   38.2300   29.4620 C.3   301  DHT301      0.0025
     21  C19       -3.8440   41.1290   30.7800 C.3   301  DHT301      0.0000
@<TRIPOS>BOND
     1    20    14    1
     2    19    18    1
     3    21    11    1
     4    17    16    1
     5    17    18    1
     6    14    18    1
     7    14    15    1
     8    14    13    1
     9    16    15    1
    10    15     9    1
    11     9    10    1
    12     9     8    1
    13    12    13    1
    14    12    10    1
    15     7     8    1
    16     7     6    1
    17    10    11    1
    18    11     6    1
    19    11     1    1
    20     6     5    1
    21     5     3    1
    22     1     2    1
    23     2     3    1
    24     3     4    2
