@<TRIPOS>MOLECULE
1kdn_ADP_A_1.pdb
 27 29 0 0 0
SMALL
GASTEIGER

@<TRIPOS>ATOM
      1  PB        66.5200   29.0910    0.5950 P.3   158  ADP158      0.5373
      2  O1B       67.1950   27.8480    0.1660 O.2   158  ADP158     -0.2221
      3  O2B       65.1030   28.9190    0.9600 O.3   158  ADP158     -0.1143
      4  O3B       67.2630   29.9340    1.5200 O.3   158  ADP158     -0.1143
      5  PA        67.5100   30.4410   -1.9150 P.3   158  ADP158      0.2231
      6  O1A       68.5820   29.4270   -1.9240 O.3   158  ADP158     -0.4370
      7  O2A       66.6930   30.6130   -3.0920 O.2   158  ADP158     -0.5169
      8  O3A       66.4690   30.0300   -0.7170 O.3   158  ADP158     -0.2261
      9  O5'       68.1030   31.8660   -1.4660 O.3   158  ADP158     -0.3111
     10  C5'       69.1440   32.1510   -0.4910 C.3   158  ADP158      0.1813
     11  C4'       68.8620   33.2420    0.4380 C.3   158  ADP158      0.1821
     12  O4'       68.7550   34.3160   -0.4700 O.3   158  ADP158     -0.3135
     13  C3'       67.3930   33.2180    0.9380 C.3   158  ADP158      0.2184
     14  O3'       67.2880   32.2790    2.0030 O.3   158  ADP158     -0.2174
     15  C2'       67.1210   34.7070    1.2780 C.3   158  ADP158      0.2570
     16  O2'       67.8880   35.0810    2.3270 O.3   158  ADP158     -0.2130
     17  C1'       67.8350   35.3470    0.0560 C.3   158  ADP158      0.3186
     18  N9        66.8950   35.5180   -1.0760 N.pl3 158  ADP158     -0.1439
     19  C8        66.3770   34.6010   -1.9130 C.3   158  ADP158      0.3377
     20  N7        65.5240   35.1280   -2.7790 N.2   158  ADP158     -0.2095
     21  C5        65.5390   36.4930   -2.5040 C.2   158  ADP158      0.2526
     22  C6        64.9360   37.6500   -3.1310 C.2   158  ADP158      0.4393
     23  N6        64.2260   37.6140   -4.2840 N.pl3 158  ADP158      0.2180
     24  N1        65.1450   38.8410   -2.5210 N.2   158  ADP158      0.0021
     25  C2        66.0560   38.9110   -1.5720 C.3   158  ADP158      0.5254
     26  N3        66.7410   37.9130   -0.9770 N.2   158  ADP158     -0.0055
     27  C4        66.4430   36.7260   -1.5120 C.2   158  ADP158      0.3518
@<TRIPOS>BOND
     1    23    22    1
     2    22    24    2
     3    22    21    1
     4     7     5    2
     5    20    21    2
     6    20    19    1
     7    24    25    1
     8    21    27    1
     9     6     5    1
    10     5     9    1
    11     5     8    1
    12    19    18    1
    13    25    26    1
    14    27    18    1
    15    27    26    2
    16     9    10    1
    17    18    17    1
    18     8     1    1
    19    10    11    1
    20    12    17    1
    21    12    11    1
    22    17    15    1
    23     2     1    2
    24    11    13    1
    25     1     3    1
    26     1     4    1
    27    13    15    1
    28    13    14    1
    29    15    16    1
