@<TRIPOS>MOLECULE
1kdo_C_A_1.pdb
 21 22 0 0 0
SMALL
GASTEIGER

@<TRIPOS>ATOM
      1  OP3       75.3140   60.4770   52.5720 O.3   5407  C5407      -0.1145
      2  P         74.1800   59.7810   51.6980 P.3   5407  C5407       0.5327
      3  OP1       73.7640   60.7200   50.6260 O.2   5407  C5407      -0.2224
      4  OP2       73.1520   59.2130   52.6070 O.3   5407  C5407      -0.1145
      5  O5'       74.9430   58.5840   50.9730 O.3   5407  C5407      -0.2675
      6  C5'       75.7150   57.6330   51.7050 C.3   5407  C5407       0.1859
      7  C4'       76.6380   56.8870   50.7690 C.3   5407  C5407       0.1801
      8  O4'       75.8460   56.1470   49.8000 O.3   5407  C5407      -0.3320
      9  C3'       77.5390   57.7800   49.9280 C.3   5407  C5407       0.2158
     10  O3'       78.7380   58.0700   50.6340 O.3   5407  C5407      -0.2175
     11  C2'       77.8140   56.9290   48.6930 C.3   5407  C5407       0.2319
     12  O2'       78.8990   56.0410   48.8610 O.3   5407  C5407      -0.2157
     13  C1'       76.5050   56.1470   48.5460 C.3   5407  C5407       0.2400
     14  N1        75.5820   56.6500   47.5030 N.am  5407  C5407      -0.1778
     15  C2        75.8510   56.3430   46.1600 C.1   5407  C5407       0.2756
     16  O2        76.8910   55.7260   45.8790 O.2   5407  C5407      -0.1925
     17  N3        74.9790   56.7370   45.2020 N.2   5407  C5407      -0.3024
     18  C4        73.8800   57.4120   45.5360 C.2   5407  C5407       0.2346
     19  N4        73.0270   57.7390   44.5600 N.pl3 5407  C5407      -0.0921
     20  C5        73.6000   57.7740   46.8870 C.2   5407  C5407       0.0687
     21  C6        74.4690   57.3780   47.8290 C.2   5407  C5407       0.0836
@<TRIPOS>BOND
     1    19    18    1
     2    17    18    2
     3    17    15    2
     4    18    20    1
     5    16    15    2
     6    15    14   am
     7    20    21    2
     8    14    21    1
     9    14    13    1
    10    13    11    1
    11    13     8    1
    12    11    12    1
    13    11     9    1
    14     8     7    1
    15     9    10    1
    16     9     7    1
    17     3     2    2
    18     7     6    1
    19     5     2    1
    20     5     6    1
    21     2     1    1
    22     2     4    1
