@<TRIPOS>MOLECULE
1kdp_C_A_1.pdb
 20 21 0 0 0
SMALL
GASTEIGER

@<TRIPOS>ATOM
      1  OP3       37.6800   23.1840   13.8340 O.3   5407  C5407      -0.1145
      2  P         36.6970   22.4890   12.7960 P.3   5407  C5407       0.5327
      3  OP1       36.2980   23.4480   11.7580 O.2   5407  C5407      -0.2224
      4  OP2       35.6640   21.7840   13.6200 O.3   5407  C5407      -0.1145
      5  O5'       37.5960   21.3760   12.0750 O.3   5407  C5407      -0.2675
      6  C5'       38.0970   20.2330   12.8080 C.3   5407  C5407       0.1858
      7  C4'       39.1050   19.4660   11.9640 C.3   5407  C5407       0.1774
      8  O4'       38.3940   18.6260   11.0140 O.3   5407  C5407      -0.3339
      9  C3'       40.0670   20.3150   11.1350 C.3   5407  C5407       0.1857
     10  O3'       41.2640   20.4190   11.8520 O.3   5407  C5407      -0.2203
     11  C2'       40.3410   19.4540    9.9070 C.3   5407  C5407       0.0874
     12  C1'       39.0340   18.6650    9.7490 C.3   5407  C5407       0.2090
     13  N1        38.0950   19.2220    8.7580 N.am  5407  C5407      -0.1802
     14  C2        38.2790   18.9040    7.4170 C.1   5407  C5407       0.2756
     15  O2        39.2590   18.2420    7.0700 O.2   5407  C5407      -0.1925
     16  N3        37.3940   19.3330    6.5100 N.2   5407  C5407      -0.3024
     17  C4        36.3500   20.0710    6.8870 C.2   5407  C5407       0.2346
     18  N4        35.4750   20.4290    5.9490 N.pl3 5407  C5407      -0.0921
     19  C5        36.1570   20.4650    8.2420 C.2   5407  C5407       0.0687
     20  C6        37.0480   20.0250    9.1410 C.2   5407  C5407       0.0835
@<TRIPOS>BOND
     1    18    17    1
     2    16    17    2
     3    16    14    2
     4    17    19    1
     5    15    14    2
     6    14    13   am
     7    19    20    2
     8    13    20    1
     9    13    12    1
    10    12    11    1
    11    12     8    1
    12    11     9    1
    13     8     7    1
    14     9    10    1
    15     9     7    1
    16     3     2    2
    17     7     6    1
    18     5     2    1
    19     5     6    1
    20     2     4    1
    21     2     1    1
