@<TRIPOS>MOLECULE
1kdr_CAR_A_1.pdb
 21 22 0 0 0
SMALL
GASTEIGER

@<TRIPOS>ATOM
      1  P          2.9530   17.9020   32.7990 P.3   5407  CAR5407     0.5327
      2  OP1        4.0890   17.6870   31.8670 O.2   5407  CAR5407    -0.2224
      3  OP2        2.6210   19.2810   33.2340 O.3   5407  CAR5407    -0.1145
      4  OP3        3.2500   17.0450   34.1060 O.3   5407  CAR5407    -0.1145
      5  O5'        1.6550   17.2790   32.1140 O.3   5407  CAR5407    -0.2675
      6  C5'        0.7620   16.4360   32.8400 C.3   5407  CAR5407     0.1859
      7  C4'        0.0680   15.4740   31.9000 C.3   5407  CAR5407     0.1801
      8  O4'       -0.5400   16.2140   30.8160 O.3   5407  CAR5407    -0.3320
      9  C3'        0.9530   14.4240   31.2350 C.3   5407  CAR5407     0.2158
     10  O3'        0.8320   13.2490   32.0350 O.3   5407  CAR5407    -0.2175
     11  C2'        0.2370   14.1340   29.9140 C.3   5407  CAR5407     0.2319
     12  O2'        1.0840   13.8110   28.8320 O.3   5407  CAR5407    -0.2157
     13  C1'       -0.4720   15.4550   29.6240 C.3   5407  CAR5407     0.2400
     14  N1         0.0860   16.2900   28.5440 N.am  5407  CAR5407    -0.1778
     15  C2        -0.2810   16.0220   27.2130 C.1   5407  CAR5407     0.2756
     16  O2        -1.0560   15.0830   26.9730 O.2   5407  CAR5407    -0.1925
     17  N3         0.2260   16.7920   26.2250 N.2   5407  CAR5407    -0.3024
     18  C4         1.0700   17.7800   26.5150 C.2   5407  CAR5407     0.2346
     19  N4         1.5420   18.5130   25.5030 N.pl3 5407  CAR5407    -0.0921
     20  C5         1.4640   18.0750   27.8550 C.2   5407  CAR5407     0.0687
     21  C6         0.9530   17.3130   28.8290 C.2   5407  CAR5407     0.0836
@<TRIPOS>BOND
     1    19    18    1
     2    17    18    2
     3    17    15    2
     4    18    20    1
     5    16    15    2
     6    15    14   am
     7    20    21    2
     8    14    21    1
     9    14    13    1
    10    12    11    1
    11    13    11    1
    12    13     8    1
    13    11     9    1
    14     8     7    1
    15     9     7    1
    16     9    10    1
    17     2     1    2
    18     7     6    1
    19     5     1    1
    20     5     6    1
    21     1     3    1
    22     1     4    1
