@<TRIPOS>MOLECULE
1kds_NPB_A_1.pdb
 12 12 0 0 0
SMALL
GASTEIGER

@<TRIPOS>ATOM
      1  B         26.4920    5.2970   16.8690 B     364  NPB364      0.0000
      2  OB1       25.4220    4.2640   17.0270 O.3   364  NPB364      0.0000
      3  OB2       26.5900    6.3100   17.8640 O.3   364  NPB364      0.0000
      4  CP1       26.0080    6.0880   15.5980 C.ar  364  NPB364      0.0000
      5  CP2       25.3670    5.4210   14.5950 C.ar  364  NPB364      0.0000
      6  CP3       24.8870    6.0570   13.4910 C.ar  364  NPB364      0.0000
      7  NT        24.1380    5.2900   12.4280 N.pl3 364  NPB364      0.0000
      8  O1        23.5710    5.8570   11.5650 O.2   364  NPB364      0.0000
      9  O2        24.0030    4.1050   12.5110 O.2   364  NPB364      0.0000
     10  CP4       25.0640    7.4510   13.3740 C.ar  364  NPB364      0.0000
     11  CP5       25.7190    8.1410   14.3850 C.ar  364  NPB364      0.0000
     12  CP6       26.1880    7.4330   15.5000 C.ar  364  NPB364      0.0000
@<TRIPOS>BOND
     1     8     7    2
     2     7     9    2
     3     7     6    1
     4    10     6   ar
     5    10    11   ar
     6     6     5   ar
     7    11    12   ar
     8     5     4   ar
     9    12     4   ar
    10     4     1    1
    11     1     2    1
    12     1     3    1
