@<TRIPOS>MOLECULE
1kdt_DOC_A_1.pdb
 19 20 0 0 0
SMALL
GASTEIGER

@<TRIPOS>ATOM
      1  N1        35.2520  -18.4850   69.2590 N.am  5407  DOC5407    -0.1803
      2  C2        35.0040  -18.8690   70.5890 C.1   5407  DOC5407     0.2756
      3  N3        35.8810  -18.5060   71.5510 N.2   5407  DOC5407    -0.3024
      4  C4        36.9550  -17.7840   71.2380 C.2   5407  DOC5407     0.2346
      5  C5        37.2330  -17.3760   69.8980 C.2   5407  DOC5407     0.0687
      6  C6        36.3640  -17.7450   68.9500 C.2   5407  DOC5407     0.0835
      7  O2        33.9850  -19.5270   70.8530 O.2   5407  DOC5407    -0.1925
      8  N4        37.7920  -17.4520   72.2240 N.pl3 5407  DOC5407    -0.0921
      9  C1'       34.3000  -18.8860   68.2070 C.3   5407  DOC5407     0.2063
     10  C2'       33.4160  -17.7260   67.7450 C.3   5407  DOC5407     0.0545
     11  C3'       33.2270  -18.0300   66.2630 C.3   5407  DOC5407     0.0366
     12  C4'       34.5110  -18.7540   65.8770 C.3   5407  DOC5407     0.1473
     13  O4'       35.0490  -19.3240   67.0920 O.3   5407  DOC5407    -0.3366
     14  C5'       35.5770  -17.9560   65.1500 C.3   5407  DOC5407     0.1831
     15  O5'       35.9670  -16.8130   65.9120 O.3   5407  DOC5407    -0.2676
     16  P         36.5260  -15.5040   65.1880 P.3   5407  DOC5407     0.5327
     17  OP1       36.8090  -14.4830   66.2270 O.3   5407  DOC5407    -0.1145
     18  OP2       37.6050  -15.9140   64.2490 O.2   5407  DOC5407    -0.2224
     19  OP3       35.2490  -15.0740   64.3460 O.3   5407  DOC5407    -0.1145
@<TRIPOS>BOND
     1    18    16    2
     2    19    16    1
     3    14    12    1
     4    14    15    1
     5    16    15    1
     6    16    17    1
     7    12    11    1
     8    12    13    1
     9    11    10    1
    10    13     9    1
    11    10     9    1
    12     9     1    1
    13     6     1    1
    14     6     5    2
    15     1     2   am
    16     5     4    1
    17     2     7    2
    18     2     3    2
    19     4     3    2
    20     4     8    1
