@<TRIPOS>MOLECULE
1kdv_III_B_1.pdb
 27 27 0 0 0
SMALL
GASTEIGER

@<TRIPOS>ATOM
      1  C         20.5380   11.4810    7.8990 C.2   1001  ACE1001     0.2423
      2  O         19.2080   11.5900    7.8700 O.2   1001  ACE1001    -0.2733
      3  CH3       21.1290   10.2490    8.2460 C.3   1001  ACE1001     0.0964
      4  N         21.4600   12.4250    7.6710 N.am  1002  ILE1002    -0.1978
      5  CA        22.8990   12.2930    7.5850 C.3   1002  ILE1002     0.1726
      6  C         23.6480   13.0370    8.6870 C.2   1002  ILE1002     0.2616
      7  O         24.8800   13.0620    8.6870 O.2   1002  ILE1002    -0.2715
      8  CB        23.4410   12.6880    6.1940 C.3   1002  ILE1002     0.0290
      9  CG1       23.2020   14.1630    5.8360 C.3   1002  ILE1002     0.0022
     10  CG2       22.9110   11.7420    5.1030 C.3   1002  ILE1002     0.0023
     11  CD1       24.0090   14.6190    4.6400 C.3   1002  ILE1002     0.0001
     12  N         22.9920   13.6370    9.6590 N.am  1003  ALA1003    -0.1963
     13  CA        23.7010   14.3140   10.7470 C.3   1003  ALA1003     0.1728
     14  C         24.5270   13.3240   11.5490 C.2   1003  ALA1003     0.2613
     15  O         24.1060   12.1910   11.8180 O.2   1003  ALA1003    -0.2715
     16  CB        22.6890   14.9910   11.6570 C.3   1003  ALA1003     0.0334
     17  N         25.6950   13.7730   11.9740 N.am  1004  PHE1004    -0.2027
     18  CA        26.5700   13.0830   12.9000 C.3   1004  PHE1004     0.1325
     19  C         26.6940   13.8000   14.1780 C.3   1004  PHE1004     0.2039
     20  O         27.3310   13.1670   15.2340 O.3   1004  PHE1004    -0.2185
     21  CB        27.9720   12.9110   12.2910 C.3   1004  PHE1004     0.0507
     22  CG        28.1520   11.9480   11.1810 C.ar  1004  PHE1004    -0.0204
     23  CD1       29.1330   12.1590   10.2060 C.ar  1004  PHE1004    -0.0042
     24  CD2       27.4320   10.7440   11.1140 C.ar  1004  PHE1004    -0.0042
     25  CE1       29.3810   11.2280    9.2150 C.ar  1004  PHE1004    -0.0003
     26  CE2       27.6620    9.8270   10.0920 C.ar  1004  PHE1004    -0.0003
     27  CZ        28.6320   10.0830    9.1500 C.ar  1004  PHE1004    -0.0000
@<TRIPOS>BOND
     1    11     9    1
     2    10     8    1
     3     9     8    1
     4     8     5    1
     5     5     4    1
     6     5     6    1
     7     4     1   am
     8     2     1    2
     9     1     3    1
    10     6     7    2
    11     6    12   am
    12    27    25   ar
    13    27    26   ar
    14    25    23   ar
    15    12    13    1
    16    26    24   ar
    17    23    22   ar
    18    13    14    1
    19    13    16    1
    20    24    22   ar
    21    22    21    1
    22    14    15    2
    23    14    17   am
    24    17    18    1
    25    21    18    1
    26    18    19    1
    27    19    20    1
