@<TRIPOS>MOLECULE
1kdw_4CB_A_1.pdb
 12 12 0 0 0
SMALL
GASTEIGER

@<TRIPOS>ATOM
      1  B         26.8510    5.1730   16.5180 B     364  4CB364      0.0000
      2  OB1       25.9270    4.0310   16.7630 O.3   364  4CB364      0.0000
      3  OB2       26.8840    6.0520   17.7150 O.3   364  4CB364      0.0000
      4  CP1       26.3490    5.9660   15.2700 C.ar  364  4CB364      0.0000
      5  CP2       25.9760    5.2620   14.1300 C.ar  364  4CB364      0.0000
      6  CP3       25.4330    5.9070   13.0250 C.ar  364  4CB364      0.0000
      7  CP4       25.2570    7.3210   13.0760 C.ar  364  4CB364      0.0000
      8  CX        24.5450    8.0490   11.9530 C.2   364  4CB364      0.0000
      9  OX1       24.1170    9.3100   12.1510 O.co2 364  4CB364      0.0000
     10  OX2       24.3310    7.4840   10.8710 O.co2 364  4CB364      0.0000
     11  CP5       25.6650    8.0250   14.2480 C.ar  364  4CB364      0.0000
     12  CP6       26.1960    7.3470   15.3120 C.ar  364  4CB364      0.0000
@<TRIPOS>BOND
     1    10     8   ar
     2     8     9   ar
     3     8     7    1
     4     6     7   ar
     5     6     5   ar
     6     7    11   ar
     7     5     4   ar
     8    11    12   ar
     9     4    12   ar
    10     4     1    1
    11     1     2    1
    12     1     3    1
