@<TRIPOS>MOLECULE
1kdy_III_B_1.pdb
 29 30 0 0 0
SMALL
GASTEIGER

@<TRIPOS>ATOM
      1  C         23.1740   13.2770    5.3780 C.2   1001  ACE1001     0.2423
      2  O         22.0490   13.9040    5.3760 O.2   1001  ACE1001    -0.2733
      3  CH3       24.0250   13.1850    4.2620 C.3   1001  ACE1001     0.0964
      4  N         23.4830   12.6210    6.4790 N.am  1002  ILE1002    -0.1978
      5  CA        22.6730   12.5640    7.6990 C.3   1002  ILE1002     0.1712
      6  C         23.5190   13.1140    8.8320 C.2   1002  ILE1002     0.2458
      7  O         24.7390   12.9350    8.8580 O.2   1002  ILE1002    -0.2730
      8  CB        22.2490   11.1540    8.0130 C.3   1002  ILE1002     0.0289
      9  CG1       21.3100   10.5640    6.9010 C.3   1002  ILE1002     0.0022
     10  CG2       21.6180   10.9040    9.3550 C.3   1002  ILE1002     0.0023
     11  CD1       21.9650    9.3060    6.3900 C.3   1002  ILE1002     0.0001
     12  N         22.9280   13.8520    9.7490 N.am  1003  PRO1003    -0.2716
     13  CA        23.7370   14.4420   10.8220 C.3   1003  PRO1003     0.1535
     14  C         24.4690   13.4110   11.6530 C.2   1003  PRO1003     0.2595
     15  O         23.9570   12.3420   11.9600 O.2   1003  PRO1003    -0.2716
     16  CB        22.6920   15.2250   11.6620 C.3   1003  PRO1003     0.0310
     17  CG        21.6350   15.5630   10.7400 C.3   1003  PRO1003     0.0237
     18  CD        21.5330   14.3410    9.8210 C.3   1003  PRO1003     0.0939
     19  N         25.6700   13.8140   12.0530 N.am  1004  PHE1004    -0.2028
     20  CA        26.4990   13.0710   12.9900 C.3   1004  PHE1004     0.1325
     21  C         26.6270   13.7940   14.2930 C.3   1004  PHE1004     0.2039
     22  O         27.2720   13.1410   15.3350 O.3   1004  PHE1004    -0.2185
     23  CB        27.9150   12.8970   12.4110 C.3   1004  PHE1004     0.0507
     24  CG        28.0590   11.9440   11.2400 C.ar  1004  PHE1004    -0.0204
     25  CD1       29.0390   12.2000   10.2800 C.ar  1004  PHE1004    -0.0042
     26  CD2       27.3180   10.7580   11.1540 C.ar  1004  PHE1004    -0.0042
     27  CE1       29.2420   11.2870    9.2540 C.ar  1004  PHE1004    -0.0003
     28  CE2       27.5040    9.8710   10.0860 C.ar  1004  PHE1004    -0.0003
     29  CZ        28.4740   10.1550    9.1360 C.ar  1004  PHE1004    -0.0000
@<TRIPOS>BOND
     1     3     1    1
     2     2     1    2
     3     1     4   am
     4    11     9    1
     5     4     5    1
     6     9     8    1
     7     5     8    1
     8     5     6    1
     9     8    10    1
    10     6     7    2
    11     6    12   am
    12    29    27   ar
    13    29    28   ar
    14    27    25   ar
    15    12    18    1
    16    12    13    1
    17    18    17    1
    18    28    26   ar
    19    25    24   ar
    20    17    16    1
    21    13    14    1
    22    13    16    1
    23    26    24   ar
    24    24    23    1
    25    14    15    2
    26    14    19   am
    27    19    20    1
    28    23    20    1
    29    20    21    1
    30    21    22    1
