@<TRIPOS>MOLECULE
1kdz_III_B_1.pdb
 38 39 0 0 0
SMALL
GASTEIGER

@<TRIPOS>ATOM
      1  CA        23.6390   12.0570    4.2990 C.3   1001  IVA1001     0.0868
      2  CB        23.2730   13.4560    3.7390 C.3   1001  IVA1001     0.0091
      3  CG1       23.9850   14.5300    4.5320 C.3   1001  IVA1001     0.0005
      4  CG2       23.6340   13.5220    2.2710 C.3   1001  IVA1001     0.0005
      5  C         23.0340   11.9770    5.6960 C.2   1001  IVA1001     0.2418
      6  O         21.8320   12.1500    5.8460 O.2   1001  IVA1001    -0.2733
      7  N         23.8960   11.7270    6.6720 N.am  1002  TYR1002    -0.1974
      8  CA        23.5020   11.5940    8.0700 C.3   1002  TYR1002     0.1770
      9  C         24.1020   12.6880    8.9280 C.2   1002  TYR1002     0.2619
     10  O         25.2070   13.1690    8.7290 O.2   1002  TYR1002    -0.2715
     11  CB        23.9500   10.2050    8.5560 C.3   1002  TYR1002     0.0574
     12  CG        23.2500    9.1290    7.7440 C.ar  1002  TYR1002    -0.0198
     13  CD1       23.9610    8.4400    6.7790 C.ar  1002  TYR1002    -0.0009
     14  CD2       21.9110    8.8330    7.9450 C.ar  1002  TYR1002    -0.0009
     15  CE1       23.3760    7.4550    6.0070 C.ar  1002  TYR1002     0.0417
     16  CE2       21.3090    7.8470    7.1820 C.ar  1002  TYR1002     0.0417
     17  CZ        22.0380    7.1710    6.2250 C.ar  1002  TYR1002     0.1957
     18  OH        21.3980    6.1940    5.4890 O.3   1002  TYR1002    -0.2866
     19  N         23.3420   13.1300    9.9510 N.am  1003  LEU1003    -0.1963
     20  CA        23.8890   14.0880   10.9210 C.3   1003  LEU1003     0.1728
     21  C         24.6410   13.3100   11.9820 C.2   1003  LEU1003     0.2612
     22  O         24.1440   12.3730   12.5900 O.2   1003  LEU1003    -0.2715
     23  CB        22.7430   14.9200   11.4980 C.3   1003  LEU1003     0.0311
     24  CG        21.7520   15.5170   10.4820 C.3   1003  LEU1003     0.0022
     25  CD1       20.6680   16.2730   11.2120 C.3   1003  LEU1003     0.0001
     26  CD2       22.4780   16.3970    9.4770 C.3   1003  LEU1003     0.0001
     27  N         25.8690   13.7550   12.1980 N.am  1004  TYR1004    -0.2027
     28  CA        26.7460   13.0860   13.1660 C.3   1004  TYR1004     0.1325
     29  C         26.7410   13.8080   14.5110 C.3   1004  TYR1004     0.2039
     30  O         27.5950   13.1820   15.4940 O.3   1004  TYR1004    -0.2185
     31  CB        28.1250   13.0080   12.5430 C.3   1004  TYR1004     0.0507
     32  CG        28.2940   12.0170   11.4080 C.ar  1004  TYR1004    -0.0202
     33  CD1       29.2790   12.2710   10.4560 C.ar  1004  TYR1004    -0.0009
     34  CD2       27.5310   10.8670   11.2700 C.ar  1004  TYR1004    -0.0009
     35  CE1       29.4830   11.4000    9.3890 C.ar  1004  TYR1004     0.0417
     36  CE2       27.7210    9.9730   10.2250 C.ar  1004  TYR1004     0.0417
     37  CZ        28.7050   10.2430    9.2890 C.ar  1004  TYR1004     0.1957
     38  OH        28.8930    9.3600    8.2400 O.3   1004  TYR1004    -0.2866
@<TRIPOS>BOND
     1     4     2    1
     2     2     1    1
     3     2     3    1
     4     1     5    1
     5    18    17    1
     6     5     6    2
     7     5     7   am
     8    15    17   ar
     9    15    13   ar
    10    17    16   ar
    11     7     8    1
    12    13    12   ar
    13    16    14   ar
    14    12    14   ar
    15    12    11    1
    16     8    11    1
    17     8     9    1
    18    38    37    1
    19    10     9    2
    20     9    19   am
    21    37    35   ar
    22    37    36   ar
    23    35    33   ar
    24    26    24    1
    25    19    20    1
    26    36    34   ar
    27    33    32   ar
    28    24    25    1
    29    24    23    1
    30    20    23    1
    31    20    21    1
    32    34    32   ar
    33    32    31    1
    34    21    27   am
    35    21    22    2
    36    27    28    1
    37    31    28    1
    38    28    29    1
    39    29    30    1
