@<TRIPOS>MOLECULE
1ke0_CVB_A_1.pdb
 14 14 0 0 0
SMALL
GASTEIGER

@<TRIPOS>ATOM
      1  B         26.7830    5.2470   16.5060 B     364  CVB364      0.0000
      2  OB1       25.8040    4.1980   16.8610 O.3   364  CVB364      0.0000
      3  OB2       26.9610    6.1880   17.6600 O.3   364  CVB364      0.0000
      4  CP1       26.2480    6.0170   15.2510 C.ar  364  CVB364      0.0000
      5  CP2       25.8420    5.3060   14.1270 C.ar  364  CVB364      0.0000
      6  CP3       25.3330    5.9500   12.9990 C.ar  364  CVB364      0.0000
      7  CP4       25.2360    7.3750   13.0170 C.ar  364  CVB364      0.0000
      8  CX1       24.7100    8.1480   11.8870 C.2   364  CVB364      0.0000
      9  CX2       24.2680    7.5960   10.7340 C.2   364  CVB364      0.0000
     10  CX3       23.7670    8.4730    9.6810 C.2   364  CVB364      0.0000
     11  OX1       24.4540    8.6260    8.5410 O.co2 364  CVB364      0.0000
     12  OX2       22.7100    9.0930    9.8470 O.co2 364  CVB364      0.0000
     13  CP5       25.6640    8.0650   14.1790 C.ar  364  CVB364      0.0000
     14  CP6       26.1540    7.3880   15.2580 C.ar  364  CVB364      0.0000
@<TRIPOS>BOND
     1    11    10   ar
     2    10    12   ar
     3    10     9    1
     4     9     8    2
     5     8     7    1
     6     6     7   ar
     7     6     5   ar
     8     7    13   ar
     9     5     4   ar
    10    13    14   ar
    11     4    14   ar
    12     4     1    1
    13     1     2    1
    14     1     3    1
