@<TRIPOS>MOLECULE
1ke1_III_B_1.pdb
 30 31 0 0 0
SMALL
GASTEIGER

@<TRIPOS>ATOM
      1  CA        23.5490   12.1870    7.4530 C.3     1  IVA1        0.0868
      2  CB        23.6500   13.0510    6.1820 C.3     1  IVA1        0.0091
      3  CG1       25.0070   13.6960    6.0050 C.3     1  IVA1        0.0005
      4  CG2       23.3440   12.1830    4.9580 C.3     1  IVA1        0.0005
      5  C         24.1740   12.8710    8.6590 C.2     1  IVA1        0.2418
      6  O         25.3800   13.0720    8.7060 O.2     1  IVA1       -0.2733
      7  N         23.3580   13.2250    9.6630 N.am    2  TYR2       -0.1974
      8  CA        23.9190   13.9670   10.7840 C.3     2  TYR2        0.1770
      9  C         24.8340   13.1250   11.6630 C.2     2  TYR2        0.2616
     10  O         24.5010   11.9790   12.0080 O.2     2  TYR2       -0.2715
     11  CB        22.7830   14.4970   11.6640 C.3     2  TYR2        0.0574
     12  CG        21.7120   15.3160   10.9970 C.ar    2  TYR2       -0.0198
     13  CD1       20.3850   15.1870   11.3970 C.ar    2  TYR2       -0.0009
     14  CD2       21.9990   16.2160    9.9900 C.ar    2  TYR2       -0.0009
     15  CE1       19.3760   15.9310   10.8030 C.ar    2  TYR2        0.0417
     16  CE2       20.9990   16.9610    9.3870 C.ar    2  TYR2        0.0417
     17  CZ        19.6940   16.8160    9.7960 C.ar    2  TYR2        0.1957
     18  OH        18.6990   17.5560    9.1990 O.3     2  TYR2       -0.2866
     19  N         25.9510   13.7400   12.0570 N.am    3  TYR3       -0.2027
     20  CA        26.8100   13.0740   13.0390 C.3     3  TYR3        0.1325
     21  C         26.7780   13.8080   14.3850 C.3     3  TYR3        0.2039
     22  O         27.5980   13.0750   15.3620 O.3     3  TYR3       -0.2185
     23  CB        28.2390   13.0060   12.5110 C.3     3  TYR3        0.0507
     24  CG        28.4610   12.0210   11.3770 C.ar    3  TYR3       -0.0202
     25  CD1       29.3190   12.3220   10.3290 C.ar    3  TYR3       -0.0009
     26  CD2       27.8000   10.7960   11.3790 C.ar    3  TYR3       -0.0009
     27  CE1       29.5060   11.3940    9.3040 C.ar    3  TYR3        0.0417
     28  CE2       27.9820    9.8750   10.3590 C.ar    3  TYR3        0.0417
     29  CZ        28.8390   10.1960    9.3240 C.ar    3  TYR3        0.1957
     30  OH        29.0160    9.2630    8.3070 O.3     3  TYR3       -0.2866
@<TRIPOS>BOND
     1     4     2    1
     2     3     2    1
     3     2     1    1
     4     1     5    1
     5    30    29    1
     6     5     6    2
     7     5     7   am
     8    18    17    1
     9    27    29   ar
    10    27    25   ar
    11    29    28   ar
    12    16    17   ar
    13    16    14   ar
    14     7     8    1
    15    17    15   ar
    16    14    12   ar
    17    25    24   ar
    18    28    26   ar
    19     8     9    1
    20     8    11    1
    21    15    13   ar
    22    12    13   ar
    23    12    11    1
    24    24    26   ar
    25    24    23    1
    26     9    10    2
    27     9    19   am
    28    19    20    1
    29    23    20    1
    30    20    21    1
    31    21    22    1
