@<TRIPOS>MOLECULE
1ke2_III_B_1.pdb
 30 31 0 0 0
SMALL
GASTEIGER

@<TRIPOS>ATOM
      1  NE        23.4560   12.9670    3.5140 N.2     2  CSI2       -0.2056
      2  CD2       23.1620   11.7020    4.0460 C.1     2  CSI2        0.1238
      3  CD1       23.8220   14.0920    4.4400 C.3     2  CSI2        0.1397
      4  NH        22.6550   10.8510    3.1140 N.pl3   2  CSI2       -0.0464
      5  CB        22.9440   12.5700    6.1200 C.3     2  CSI2        0.1430
      6  CG1       24.0970   13.5670    5.8440 C.3     2  CSI2        0.0543
      7  NG2       22.7460   11.4720    5.3230 N.2     2  CSI2       -0.2056
      8  N         22.0260   11.2550    7.9990 N.3     2  CSI2       -0.1209
      9  CA        23.2530   11.8580    7.4710 C.3     2  CSI2        0.1923
     10  C         23.8740   12.7900    8.5000 C.2     2  CSI2        0.2612
     11  O         25.0520   13.1380    8.4380 O.2     2  CSI2       -0.2717
     12  N         23.0610   13.1800    9.4810 N.am    3  LEU3       -0.1965
     13  CA        23.4980   14.0280   10.5830 C.3     3  LEU3        0.1727
     14  C         24.4700   13.2720   11.4810 C.2     3  LEU3        0.2612
     15  O         24.1980   12.1470   11.9060 O.2     3  LEU3       -0.2715
     16  CB        22.3050   14.5050   11.4060 C.3     3  LEU3        0.0311
     17  CG        21.5810   15.7940   11.0340 C.3     3  LEU3        0.0022
     18  CD1       21.6390   16.0970    9.5470 C.3     3  LEU3        0.0001
     19  CD2       20.1240   15.7210   11.4740 C.3     3  LEU3        0.0001
     20  N         25.6190   13.8590   11.8030 N.am    4  PHE4       -0.2027
     21  CA        26.5250   13.1470   12.7050 C.3     4  PHE4        0.1325
     22  C         26.4730   13.7580   14.1020 C.3     4  PHE4        0.2039
     23  O         27.1580   12.9280   15.0600 O.3     4  PHE4       -0.2185
     24  CB        27.9360   13.1720   12.1300 C.3     4  PHE4        0.0507
     25  CG        28.2050   12.0260   11.1630 C.ar    4  PHE4       -0.0204
     26  CD1       29.1820   12.1440   10.1850 C.ar    4  PHE4       -0.0042
     27  CD2       27.4670   10.8550   11.2620 C.ar    4  PHE4       -0.0042
     28  CE1       29.4240   11.0970    9.3100 C.ar    4  PHE4       -0.0003
     29  CE2       27.7070    9.8090   10.3870 C.ar    4  PHE4       -0.0003
     30  CZ        28.6850    9.9280    9.4090 C.ar    4  PHE4       -0.0000
@<TRIPOS>BOND
     1     4     2    1
     2     1     2    2
     3     1     3    1
     4     2     7    2
     5     3     6    1
     6     7     5    1
     7     6     5    1
     8     5     9    1
     9     9     8    1
    10     9    10    1
    11    11    10    2
    12    10    12   am
    13    28    30   ar
    14    28    26   ar
    15    30    29   ar
    16    12    13    1
    17    18    17    1
    18    26    25   ar
    19    29    27   ar
    20    13    16    1
    21    13    14    1
    22    17    16    1
    23    17    19    1
    24    25    27   ar
    25    25    24    1
    26    14    20   am
    27    14    15    2
    28    20    21    1
    29    24    21    1
    30    21    22    1
    31    22    23    1
