@<TRIPOS>MOLECULE
1ke3_BDB_A_1.pdb
 18 19 0 0 0
SMALL
GASTEIGER

@<TRIPOS>ATOM
      1  B1        26.2970    5.0090   16.4010 B     364  BDB364      0.0000
      2  OB1       25.3080    3.9330   16.7160 O.3   364  BDB364      0.0000
      3  OB2       26.4280    5.9110   17.5510 O.3   364  BDB364      0.0000
      4  CP1       25.7930    5.7760   15.1660 C.ar  364  BDB364      0.0000
      5  CP2       25.4890    5.0450   14.0440 C.ar  364  BDB364      0.0000
      6  CP3       24.9350    5.6270   12.9610 C.ar  364  BDB364      0.0000
      7  CP4       24.6510    7.0190   12.9650 C.ar  364  BDB364      0.0000
      8  CP5       25.0010    7.7770   14.1280 C.ar  364  BDB364      0.0000
      9  CP6       25.5620    7.1430   15.2030 C.ar  364  BDB364      0.0000
     10  CB1       23.9350    7.6190   11.8030 C.ar  364  BDB364      0.0000
     11  CB2       24.2260    7.2230   10.5120 C.ar  364  BDB364      0.0000
     12  CB3       23.5170    7.7050    9.4550 C.ar  364  BDB364      0.0000
     13  CB4       22.4610    8.6290    9.6730 C.ar  364  BDB364      0.0000
     14  CB5       22.1850    9.0440   10.9950 C.ar  364  BDB364      0.0000
     15  CB6       22.9180    8.5380   12.0240 C.ar  364  BDB364      0.0000
     16  B2        21.6480    9.1320    8.5420 B     364  BDB364      0.0000
     17  OH1       22.0710   10.1950    7.6380 O.3   364  BDB364      0.0000
     18  OH2       20.3130    8.6220    8.1970 O.3   364  BDB364      0.0000
@<TRIPOS>BOND
     1    17    16    1
     2    18    16    1
     3    16    13    1
     4    12    13   ar
     5    12    11   ar
     6    13    14   ar
     7    11    10   ar
     8    14    15   ar
     9    10    15   ar
    10    10     7    1
    11     6     7   ar
    12     6     5   ar
    13     7     8   ar
    14     5     4   ar
    15     8     9   ar
    16     4     9   ar
    17     4     1    1
    18     1     2    1
    19     1     3    1
