@<TRIPOS>MOLECULE
1ke5_LS1_A_1.pdb
 23 25 0 0 0
SMALL
GASTEIGER

@<TRIPOS>ATOM
      1  N1        -9.5330   52.7730   40.6960 N.2   299  LS1299     -0.3328
      2  C2        -9.9690   51.9100   39.7440 C.1   299  LS1299      0.2060
      3  C3        -9.3390   50.5690   39.9840 C.2   299  LS1299      0.1133
      4  C4        -7.5730   49.8180   41.8530 C.2   299  LS1299     -0.0181
      5  C5        -6.8050   50.3380   43.0180 C.3   299  LS1299      0.0522
      6  C6        -6.9720   51.7510   43.4380 C.2   299  LS1299     -0.0188
      7  C7        -7.8640   52.6690   42.6680 C.2   299  LS1299      0.0288
      8  C8        -8.6350   52.1420   41.5260 C.2   299  LS1299      0.1445
      9  C9        -8.4880   50.7530   41.1260 C.2   299  LS1299      0.0398
     10  O11      -10.7110   52.1550   38.7830 O.2   299  LS1299     -0.2093
     11  C12       -9.4920   49.4720   39.2340 C.2   299  LS1299      0.0983
     12  N17      -10.2290   49.4510   37.9610 N.pl3 299  LS1299     -0.2104
     13  C20      -10.2480   48.4250   37.0840 C.ar  299  LS1299      0.0706
     14  C21       -9.1600   47.3970   36.9390 C.ar  299  LS1299      0.0179
     15  C22       -9.2920   46.3320   35.9690 C.ar  299  LS1299      0.0213
     16  C23      -10.4960   46.2570   35.1340 C.ar  299  LS1299      0.1236
     17  C24      -11.5720   47.2770   35.2400 C.ar  299  LS1299      0.0213
     18  C25      -11.4480   48.3620   36.2220 C.ar  299  LS1299      0.0179
     19  S30      -10.4970   45.1020   33.8130 S.O2  299  LS1299      0.0769
     20  O31       -9.4930   45.5150   32.8900 O.2   299  LS1299     -0.1516
     21  O32      -11.8370   44.9790   33.3220 O.2   299  LS1299     -0.1516
     22  N33      -10.1440   43.5980   34.3930 N.3   299  LS1299     -0.0762
     23  C35       -8.9430   43.1360   35.0740 C.3   299  LS1299      0.1362
@<TRIPOS>BOND
     1    20    19    2
     2    21    19    2
     3    19    22    1
     4    19    16    1
     5    22    23    1
     6    16    17   ar
     7    16    15   ar
     8    17    18   ar
     9    15    14   ar
    10    18    13   ar
    11    14    13   ar
    12    13    12    1
    13    12    11    1
    14    10     2    2
    15    11     3    2
    16     2     3    1
    17     2     1    2
    18     3     9    1
    19     1     8    2
    20     9     8    1
    21     9     4    2
    22     8     7    1
    23     4     5    1
    24     7     6    2
    25     5     6    1
