@<TRIPOS>MOLECULE
1ke6_LS2_A_1.pdb
 27 30 0 0 0
SMALL
GASTEIGER

@<TRIPOS>ATOM
      1  N1        26.5500   15.5690   13.4080 N.2   299  LS2299     -0.3319
      2  C2        26.0960   14.6940   12.4600 C.1   299  LS2299      0.2245
      3  C3        26.7910   13.3850   12.6280 C.2   299  LS2299      0.1963
      4  C4        28.5820   12.6570   14.4330 C.3   299  LS2299      0.1159
      5  C5        29.2930   13.1430   15.6760 C.2   299  LS2299      0.0688
      6  C6        29.0870   14.5130   16.1560 C.2   299  LS2299      0.0181
      7  C7        28.1730   15.4350   15.4190 C.2   299  LS2299      0.0340
      8  C8        27.4450   14.9380   14.2280 C.2   299  LS2299      0.1439
      9  C9        27.6550   13.5730   13.7640 C.2   299  LS2299      0.0553
     10  O11       25.2610   14.8730   11.5720 O.2   299  LS2299     -0.2077
     11  N12       26.5880   12.2050   11.8110 N.2   299  LS2299     -0.1353
     12  S13       29.0340   11.0610   14.0640 S.3   299  LS2299     -0.1044
     13  C14       30.0340   10.9520   15.4460 C.3   299  LS2299      0.1833
     14  N15       30.0640   12.0930   16.1860 N.2   299  LS2299     -0.2616
     15  N19       26.1900   12.2200   10.6240 N.2   299  LS2299     -0.1473
     16  C21       25.9420   11.1170    9.8670 C.ar  299  LS2299      0.1029
     17  C22       24.6700   11.0850    9.1060 C.ar  299  LS2299      0.0206
     18  C23       24.2740    9.8510    8.3950 C.ar  299  LS2299     -0.0009
     19  C24       25.1700    8.6650    8.4120 C.ar  299  LS2299      0.0031
     20  C25       26.4270    8.6910    9.1900 C.ar  299  LS2299     -0.0009
     21  C26       26.8640    9.9290    9.8230 C.ar  299  LS2299      0.0206
     22  C29       24.8910    7.4670    7.5500 C.3   299  LS2299      0.1969
     23  S34       26.0100    7.1890    6.1740 S.O2  299  LS2299      0.0616
     24  O35       26.3310    8.4560    5.5640 O.2   299  LS2299     -0.1558
     25  O36       25.4880    6.1380    5.3390 O.2   299  LS2299     -0.1558
     26  N37       27.4280    6.5770    6.7500 N.3   299  LS2299     -0.0801
     27  C39       27.4910    5.3730    7.5610 C.3   299  LS2299      0.1358
@<TRIPOS>BOND
     1    25    23    2
     2    24    23    2
     3    23    26    1
     4    23    22    1
     5    26    27    1
     6    22    19    1
     7    18    19   ar
     8    18    17   ar
     9    19    20   ar
    10    17    16   ar
    11    20    21   ar
    12    21    16   ar
    13    16    15    1
    14    15    11    2
    15    10     2    2
    16    11     3    1
    17     2     3    1
    18     2     1    2
    19     3     9    2
    20     1     8    2
    21     9     8    1
    22     9     4    1
    23    12     4    1
    24    12    13    1
    25     8     7    1
    26     4     5    1
    27     7     6    2
    28    13    14    1
    29     5     6    1
    30     5    14    2
