@<TRIPOS>MOLECULE
1ke7_LS3_A_1.pdb
 28 32 0 0 0
SMALL
GASTEIGER

@<TRIPOS>ATOM
      1  O5       -10.9100   52.3530   11.7630 O.2   299  LS3299     -0.2093
      2  C6       -10.1870   51.8690   12.6200 C.1   299  LS3299      0.2056
      3  N7        -9.6420   52.5270   13.6990 N.2   299  LS3299     -0.3372
      4  C8        -8.8130   51.6860   14.3930 C.2   299  LS3299      0.1234
      5  C9        -7.9970   51.9080   15.6130 C.3   299  LS3299      0.0854
      6  C10       -7.1340   50.7930   16.1090 C.2   299  LS3299     -0.0195
      7  C11       -7.0150   49.4940   15.3550 C.2   299  LS3299      0.0146
      8  C12       -6.1390   48.4270   15.8200 C.ar  299  LS3299      0.1625
      9  O13       -5.8340   48.2230   17.1420 O.2   299  LS3299     -0.4314
     10  C14       -5.1820   47.0170   17.1810 C.ar  299  LS3299      0.2851
     11  N15       -4.8760   46.5750   15.9410 N.ar  299  LS3299     -0.2026
     12  C16       -5.4640   47.4140   15.0610 C.ar  299  LS3299      0.1393
     13  C17       -7.8730   49.3310   14.1390 C.3   299  LS3299      0.0586
     14  C18       -8.7920   50.4060   13.7060 C.2   299  LS3299      0.0224
     15  C19       -9.7530   50.4380   12.6230 C.2   299  LS3299      0.1123
     16  C20      -10.1730   49.4120   11.8460 C.2   299  LS3299      0.1112
     17  N21      -10.9420   49.3820   10.5820 N.2   299  LS3299     -0.2431
     18  C22      -11.1170   48.2830    9.7730 C.ar  299  LS3299      0.0811
     19  C23      -10.0100   47.3440    9.3940 C.ar  299  LS3299      0.0163
     20  C24      -10.2970   46.1970    8.5330 C.ar  299  LS3299      0.0005
     21  C25       -9.3360   45.1630    8.0910 C.3   299  LS3299      0.1773
     22  S26       -9.9210   44.4500    6.5620 S.O2  299  LS3299     -0.0016
     23  O27       -9.6840   43.0320    6.5110 O.2   299  LS3299     -0.1723
     24  O28       -9.4570   45.3080    5.5090 O.2   299  LS3299     -0.1723
     25  C29      -11.6310   44.8710    6.9850 C.3   299  LS3299      0.1773
     26  C30      -11.6380   45.9950    7.9680 C.ar  299  LS3299     -0.0009
     27  C31      -12.7620   46.8820    8.3510 C.ar  299  LS3299     -0.0013
     28  C32      -12.4880   48.0360    9.2410 C.ar  299  LS3299      0.0188
@<TRIPOS>BOND
     1    24    22    2
     2    23    22    2
     3    22    25    1
     4    22    21    1
     5    25    26    1
     6    26    27   ar
     7    26    20   ar
     8    21    20    1
     9    27    28   ar
    10    20    19   ar
    11    28    18   ar
    12    19    18   ar
    13    18    17    1
    14    17    16    2
    15     1     2    2
    16    16    15    1
    17     2    15    1
    18     2     3    2
    19    15    14    2
    20     3     4    2
    21    14    13    1
    22    14     4    1
    23    13     7    1
    24     4     5    1
    25    12     8   ar
    26    12    11   ar
    27     7     8    1
    28     7     6    2
    29     5     6    1
    30     8     9   ar
    31    11    10   ar
    32     9    10   ar
