@<TRIPOS>MOLECULE
1ke8_LS4_A_1.pdb
 27 30 0 0 0
SMALL
GASTEIGER

@<TRIPOS>ATOM
      1  O5       -10.8190   52.1550   11.8230 O.2   299  LS4299     -0.2093
      2  C6       -10.0070   51.9120   12.7190 C.1   299  LS4299      0.2060
      3  N7        -9.5010   52.7810   13.6290 N.2   299  LS4299     -0.3328
      4  C8        -8.6060   52.1330   14.4470 C.2   299  LS4299      0.1445
      5  C9        -7.8120   52.6600   15.5750 C.2   299  LS4299      0.0288
      6  C10       -6.9680   51.7230   16.3700 C.2   299  LS4299     -0.0188
      7  C11       -6.9040   50.2770   16.0150 C.3   299  LS4299      0.0522
      8  C12       -7.6760   49.7610   14.8490 C.2   299  LS4299     -0.0181
      9  C13       -8.5240   50.7210   14.0790 C.2   299  LS4299      0.0398
     10  C14       -9.3810   50.5430   12.9320 C.2   299  LS4299      0.1133
     11  C15       -9.5920   49.4490   12.1800 C.2   299  LS4299      0.0983
     12  N16      -10.3110   49.4570   10.8820 N.pl3 299  LS4299     -0.2104
     13  C17      -10.2960   48.4740    9.9550 C.ar  299  LS4299      0.0706
     14  C18       -9.1870   47.4670    9.7740 C.ar  299  LS4299      0.0179
     15  C19       -9.2960   46.4410    8.7540 C.ar  299  LS4299      0.0216
     16  C20      -10.4760   46.4250    7.8570 C.ar  299  LS4299      0.1272
     17  C21      -11.5790   47.3970    8.0280 C.ar  299  LS4299      0.0216
     18  C22      -11.4850   48.4260    9.0790 C.ar  299  LS4299      0.0179
     19  S23      -10.5600   45.1590    6.6180 S.O2  299  LS4299      0.0947
     20  O24      -11.6480   45.3940    5.7120 O.2   299  LS4299     -0.1482
     21  O25       -9.2440   45.0910    6.0680 O.2   299  LS4299     -0.1482
     22  N26      -10.8840   43.7170    7.4040 N.pl3 299  LS4299     -0.0702
     23  C27      -12.1880   43.4200    8.0910 C.ar  299  LS4299      0.2025
     24  S28      -12.3050   42.4420    9.4760 S.2   299  LS4299     -0.0478
     25  C29      -13.9770   42.6840    9.6300 C.ar  299  LS4299      0.0589
     26  C30      -14.4510   43.4440    8.5470 C.ar  299  LS4299      0.1080
     27  N31      -13.4300   43.8560    7.7220 N.ar  299  LS4299     -0.2199
@<TRIPOS>BOND
     1    20    19    2
     2    21    19    2
     3    19    22    1
     4    19    16    1
     5    22    23    1
     6    27    23   ar
     7    27    26   ar
     8    16    17   ar
     9    16    15   ar
    10    17    18   ar
    11    23    24   ar
    12    26    25   ar
    13    15    14   ar
    14    18    13   ar
    15    24    25   ar
    16    14    13   ar
    17    13    12    1
    18    12    11    1
    19     1     2    2
    20    11    10    2
    21     2    10    1
    22     2     3    2
    23    10     9    1
    24     3     4    2
    25     9     4    1
    26     9     8    2
    27     4     5    1
    28     8     7    1
    29     5     6    2
    30     7     6    1
