@<TRIPOS>MOLECULE
1ke9_LS5_A_1.pdb
 25 27 0 0 0
SMALL
GASTEIGER

@<TRIPOS>ATOM
      1  N1        -9.5700   52.7640   13.5930 N.2   299  LS5299     -0.3328
      2  C2       -10.0190   51.8650   12.6860 C.1   299  LS5299      0.2060
      3  C3        -9.3120   50.5910   12.9160 C.2   299  LS5299      0.1133
      4  C4        -7.7000   49.9500   14.8400 C.2   299  LS5299     -0.0181
      5  C5        -7.0590   50.4430   16.0050 C.3   299  LS5299      0.0522
      6  C6        -7.2090   51.7970   16.3550 C.2   299  LS5299     -0.0188
      7  C7        -7.9970   52.6630   15.5720 C.2   299  LS5299      0.0288
      8  C8        -8.6820   52.1550   14.4540 C.2   299  LS5299      0.1445
      9  C9        -8.5150   50.8400   14.0960 C.2   299  LS5299      0.0398
     10  O11      -10.8660   52.0250   11.8180 O.2   299  LS5299     -0.2093
     11  C12       -9.3980   49.4830   12.1580 C.2   299  LS5299      0.0983
     12  N17      -10.2490   49.4850   10.9500 N.pl3 299  LS5299     -0.2104
     13  C20      -10.3340   48.4460   10.0880 C.ar  299  LS5299      0.0706
     14  C21      -11.3950   48.4690    9.1760 C.ar  299  LS5299      0.0179
     15  C22      -11.5090   47.4790    8.1940 C.ar  299  LS5299      0.0231
     16  C23      -10.5670   46.4430    8.1460 C.ar  299  LS5299      0.1438
     17  C24       -9.5480   46.3760    9.0990 C.ar  299  LS5299      0.0231
     18  C25       -9.4230   47.3750   10.0590 C.ar  299  LS5299      0.0179
     19  S30      -10.7040   45.2560    6.8260 S.O2  299  LS5299      0.1563
     20  O31      -10.2000   43.9530    7.1760 O.2   299  LS5299     -0.1324
     21  O32      -10.2260   45.9490    5.6880 O.2   299  LS5299     -0.1324
     22  N33      -12.3310   45.0510    6.7050 N.pl3 299  LS5299      0.0739
     23  C35      -13.0290   44.3140    7.6640 C.cat 299  LS5299      0.5595
     24  N36      -12.4570   43.3530    8.4190 N.pl3 299  LS5299      0.1374
     25  N37      -14.3340   44.5470    7.8660 N.pl3 299  LS5299      0.1374
@<TRIPOS>BOND
     1    21    19    2
     2    22    19    1
     3    22    23    2
     4    19    20    2
     5    19    16    1
     6    23    25    1
     7    23    24    1
     8    16    15   ar
     9    16    17   ar
    10    15    14   ar
    11    17    18   ar
    12    14    13   ar
    13    18    13   ar
    14    13    12    1
    15    12    11    1
    16    10     2    2
    17    11     3    2
    18     2     3    1
    19     2     1    2
    20     3     9    1
    21     1     8    2
    22     9     8    1
    23     9     4    2
    24     8     7    1
    25     4     5    1
    26     7     6    2
    27     5     6    1
