@<TRIPOS>MOLECULE
1kec_GRO_B_1.pdb
 11 11 0 0 0
SMALL
GASTEIGER

@<TRIPOS>ATOM
      1  O2        -2.8080   -4.4860    1.4960 O.co2 601  GRO601     -0.2453
      2  C1        -2.0520   -3.7450    2.3060 C.2   601  GRO601      0.3683
      3  O1        -1.5220   -2.7240    1.8920 O.co2 601  GRO601     -0.2453
      4  C2        -1.7880   -4.1440    3.7330 C.3   601  GRO601      0.1256
      5  C3        -0.4690   -4.9170    3.7620 C.3   601  GRO601      0.0166
      6  C1'       -2.9130   -4.8810    4.3790 C.ar  601  GRO601     -0.0118
      7  C6'       -3.6830   -4.2300    5.3470 C.ar  601  GRO601     -0.0037
      8  C5'       -4.7290   -4.8830    6.0010 C.ar  601  GRO601     -0.0003
      9  C4'       -5.0090   -6.2130    5.6990 C.ar  601  GRO601     -0.0000
     10  C3'       -4.2430   -6.8790    4.7280 C.ar  601  GRO601     -0.0003
     11  C2'       -3.1920   -6.2110    4.0770 C.ar  601  GRO601     -0.0037
@<TRIPOS>BOND
     1     1     2   ar
     2     3     2   ar
     3     2     4    1
     4     4     5    1
     5     4     6    1
     6    11     6   ar
     7    11    10   ar
     8     6     7   ar
     9    10     9   ar
    10     7     8   ar
    11     9     8   ar
