@<TRIPOS>MOLECULE
1kee_ADP_A_1.pdb
 27 29 0 0 0
SMALL
GASTEIGER

@<TRIPOS>ATOM
      1  PB        18.1370   29.1110   70.7250 P.3   2001  ADP2001     0.5373
      2  O1B       19.1860   30.1160   71.0590 O.3   2001  ADP2001    -0.1143
      3  O2B       18.4090   28.5000   69.4000 O.2   2001  ADP2001    -0.2221
      4  O3B       18.0060   28.1060   71.8140 O.3   2001  ADP2001    -0.1143
      5  PA        16.1500   31.1130   71.3680 P.3   2001  ADP2001     0.2231
      6  O1A       17.1710   31.8860   72.1310 O.2   2001  ADP2001    -0.5169
      7  O2A       15.0450   30.7960   72.2690 O.3   2001  ADP2001    -0.4370
      8  O3A       16.7020   29.8740   70.6170 O.3   2001  ADP2001    -0.2261
      9  O5'       15.6150   31.9040   70.0850 O.3   2001  ADP2001    -0.3111
     10  C5'       16.5650   32.4790   69.1380 C.3   2001  ADP2001     0.1813
     11  C4'       16.3490   33.9720   68.8540 C.3   2001  ADP2001     0.1821
     12  O4'       15.0920   34.2090   68.1430 O.3   2001  ADP2001    -0.3135
     13  C3'       16.3820   35.0060   69.9980 C.3   2001  ADP2001     0.2184
     14  O3'       17.7580   35.3030   70.5010 O.3   2001  ADP2001    -0.2174
     15  C2'       15.6190   36.1550   69.3460 C.3   2001  ADP2001     0.2570
     16  O2'       16.3960   37.1980   68.6220 O.3   2001  ADP2001    -0.2130
     17  C1'       14.6180   35.4840   68.4170 C.3   2001  ADP2001     0.3186
     18  N9        13.2530   35.4120   68.9680 N.pl3 2001  ADP2001    -0.1439
     19  C8        12.7610   34.5580   69.8950 C.3   2001  ADP2001     0.3377
     20  N7        11.4330   34.6500   70.0590 N.2   2001  ADP2001    -0.2095
     21  C5        11.0590   35.6780   69.2210 C.2   2001  ADP2001     0.2526
     22  C6         9.7820   36.2320   68.9680 C.2   2001  ADP2001     0.4393
     23  N6         8.6550   35.7960   69.5850 N.pl3 2001  ADP2001     0.2180
     24  N1         9.7980   37.2420   68.0610 N.2   2001  ADP2001     0.0021
     25  C2        10.9760   37.6400   67.4920 C.3   2001  ADP2001     0.5254
     26  N3        12.1740   37.1710   67.6540 N.2   2001  ADP2001    -0.0055
     27  C4        12.1670   36.1820   68.5600 C.2   2001  ADP2001     0.3518
@<TRIPOS>BOND
     1    25    26    1
     2    25    24    1
     3    26    27    2
     4    24    22    2
     5    12    17    1
     6    12    11    1
     7    17    18    1
     8    17    15    1
     9    27    18    1
    10    27    21    1
    11    16    15    1
    12    11    10    1
    13    11    13    1
    14    22    21    1
    15    22    23    1
    16    18    19    1
    17    10     9    1
    18    21    20    2
    19    15    13    1
    20     3     1    2
    21    19    20    1
    22    13    14    1
    23     9     5    1
    24     8     1    1
    25     8     5    1
    26     1     2    1
    27     1     4    1
    28     5     6    2
    29     5     7    1
