@<TRIPOS>MOLECULE
1kei_LYS_A_1.pdb
 10 9 0 0 0
SMALL
GASTEIGER

@<TRIPOS>ATOM
      1  N         37.4980   40.1410   61.6720 N.3   1002  LYS1002    -0.1208
      2  CA        38.6240   39.2680   61.3580 C.3   1002  LYS1002     0.1943
      3  C         38.2380   38.2280   60.3080 C.2   1002  LYS1002     0.3819
      4  O         37.0430   38.1690   59.9500 O.co2 1002  LYS1002    -0.2441
      5  CB        39.1140   38.5610   62.6250 C.3   1002  LYS1002     0.0307
      6  CG        38.0700   37.6710   63.2850 C.3   1002  LYS1002     0.0036
      7  CD        38.6400   36.9530   64.5000 C.3   1002  LYS1002     0.0206
      8  CE        39.8000   36.0440   64.1180 C.3   1002  LYS1002     0.1093
      9  NZ        40.4040   35.3790   65.3080 N.3   1002  LYS1002    -0.1314
     10  OXT       39.1360   37.4850   59.8550 O.co2 1002  LYS1002    -0.2441
@<TRIPOS>BOND
     1    10     3   ar
     2     4     3   ar
     3     3     2    1
     4     2     1    1
     5     2     5    1
     6     5     6    1
     7     6     7    1
     8     8     7    1
     9     8     9    1
