@<TRIPOS>MOLECULE
1kej_DAD_A_1.pdb
 29 31 0 0 0
SMALL
GASTEIGER

@<TRIPOS>ATOM
      1  PG        42.4700   50.7230   76.6080 P.3   601  DAD601      0.5373
      2  O1G       43.6720   49.8610   76.7600 O.2   601  DAD601     -0.2221
      3  O2G       41.2440   50.2030   77.2570 O.3   601  DAD601     -0.1143
      4  O3G       42.7660   52.0890   77.0680 O.3   601  DAD601     -0.1143
      5  PB        41.1130   49.6820   74.4280 P.3   601  DAD601      0.2277
      6  O1B       41.3720   49.4370   73.0530 O.2   601  DAD601     -0.5168
      7  O2B       40.7780   48.5300   75.2580 O.3   601  DAD601     -0.4368
      8  O3B       41.9530   50.8960   75.0550 O.3   601  DAD601     -0.2258
      9  PA        38.7010   51.2310   74.8350 P.3   601  DAD601      0.2189
     10  O1A       38.2910   51.4310   76.2150 O.3   601  DAD601     -0.4371
     11  O2A       38.7720   52.4300   73.9910 O.2   601  DAD601     -0.5170
     12  O3A       39.4970   49.9840   74.4230 O.3   601  DAD601     -0.2700
     13  O5'       37.4980   50.7010   74.2100 O.3   601  DAD601     -0.3113
     14  C5'       36.8640   50.2000   73.2370 C.3   601  DAD601      0.1786
     15  C4'       35.9870   49.1420   72.6910 C.3   601  DAD601      0.1493
     16  O4'       34.6720   49.4890   73.2090 O.3   601  DAD601     -0.3183
     17  C3'       36.1490   49.5810   71.2790 C.3   601  DAD601      0.0392
     18  C2'       34.6850   49.5610   70.7820 C.3   601  DAD601      0.0823
     19  C1'       33.7810   49.6890   72.0610 C.3   601  DAD601      0.2847
     20  N9        33.0970   51.0130   72.1980 N.pl3 601  DAD601     -0.1461
     21  C8        33.4000   52.1470   72.9820 C.3   601  DAD601      0.3377
     22  N7        32.5610   53.1400   72.8390 N.2   601  DAD601     -0.2095
     23  C5        31.6440   52.6330   71.9050 C.2   601  DAD601      0.2526
     24  C6        30.4490   53.1890   71.2740 C.2   601  DAD601      0.4393
     25  N6        30.0060   54.4210   71.5540 N.pl3 601  DAD601      0.2180
     26  N1        29.7460   52.3880   70.3550 N.2   601  DAD601      0.0021
     27  C2        30.1850   51.1400   70.0850 C.3   601  DAD601      0.5254
     28  N3        31.2720   50.5480   70.5950 N.2   601  DAD601     -0.0055
     29  C4        31.9690   51.3470   71.5100 C.2   601  DAD601      0.3518
@<TRIPOS>BOND
     1    27    26    1
     2    27    28    1
     3    26    24    2
     4    28    29    2
     5    18    17    1
     6    18    19    1
     7    24    25    1
     8    24    23    1
     9    17    15    1
    10    29    23    1
    11    29    20    1
    12    23    22    2
    13    19    20    1
    14    19    16    1
    15    20    21    1
    16    15    16    1
    17    15    14    1
    18    22    21    1
    19     6     5    2
    20    14    13    1
    21    11     9    2
    22    13     9    1
    23    12     5    1
    24    12     9    1
    25     5     8    1
    26     5     7    1
    27     9    10    1
    28     8     1    1
    29     1     2    2
    30     1     4    1
    31     1     3    1
