@<TRIPOS>MOLECULE
1kek_HTL_A_1.pdb
 29 29 0 0 0
SMALL
GASTEIGER

@<TRIPOS>ATOM
      1  N1'      -27.3070  -64.0400   24.7640 N.2   2236  HTL2236    -0.1861
      2  C2'      -25.9930  -64.1980   25.4030 C.1   2236  HTL2236     0.0663
      3  C2A      -25.4240  -63.1740   26.1510 C.3   2236  HTL2236     0.1291
      4  N3'      -25.2600  -65.4080   25.2760 N.2   2236  HTL2236    -0.3368
      5  C4'      -25.8020  -66.5270   24.4990 C.2   2236  HTL2236     0.2289
      6  N4'      -24.9690  -67.7140   24.4360 N.pl3 2236  HTL2236    -0.0925
      7  C5'      -27.1950  -66.3990   23.8020 C.2   2236  HTL2236     0.0616
      8  C6'      -27.8580  -65.1690   23.9770 C.2   2236  HTL2236     0.1112
      9  C35      -27.7990  -67.5210   22.9880 C.3   2236  HTL2236     0.1054
     10  N3       -27.0130  -67.7820   21.7980 N.3   2236  HTL2236    -0.2601
     11  C2       -26.2310  -69.0560   21.5680 C.3   2236  HTL2236     0.1316
     12  S1       -26.6140  -69.5520   20.0780 S.3   2236  HTL2236    -0.1220
     13  C5       -26.7930  -67.8560   19.5970 C.3   2236  HTL2236     0.0661
     14  C4       -27.4530  -67.2640   20.5830 C.3   2236  HTL2236     0.0686
     15  C4A      -28.4860  -66.3350   20.2690 C.3   2236  HTL2236     0.0183
     16  C5A      -27.5950  -67.9510   18.3070 C.3   2236  HTL2236     0.0447
     17  C5B      -26.5420  -67.4380   17.3460 C.3   2236  HTL2236     0.1501
     18  O5G      -26.8020  -66.7530   16.0280 O.3   2236  HTL2236    -0.3138
     19  P1       -25.8660  -66.3950   14.8380 P.3   2236  HTL2236     0.2230
     20  O11      -25.2770  -67.8230   14.5660 O.3   2236  HTL2236    -0.2261
     21  O12      -26.5720  -65.8830   13.6430 O.2   2236  HTL2236    -0.5169
     22  O13      -24.8150  -65.5830   15.4320 O.3   2236  HTL2236    -0.4370
     23  P2       -25.8670  -69.1770   13.7900 P.3   2236  HTL2236     0.5373
     24  O21      -24.7770  -69.6480   12.8360 O.2   2236  HTL2236    -0.2221
     25  O22      -26.3910  -70.0310   14.8430 O.3   2236  HTL2236    -0.1143
     26  O23      -27.0020  -68.5680   12.9360 O.3   2236  HTL2236    -0.1143
     27  C1'      -26.0290  -70.5290   22.8650 C.2   2236  HTL2236     0.2078
     28  O2'      -26.0800  -70.3580   24.0890 O.2   2236  HTL2236    -0.2883
     29  C3'      -25.5710  -71.9420   22.3450 C.3   2236  HTL2236     0.0804
@<TRIPOS>BOND
     1    24    23    2
     2    26    23    1
     3    21    19    2
     4    23    20    1
     5    23    25    1
     6    20    19    1
     7    19    22    1
     8    19    18    1
     9    18    17    1
    10    17    16    1
    11    16    13    1
    12    13    12    1
    13    13    14    1
    14    12    11    1
    15    15    14    1
    16    14    10    1
    17    11    10    1
    18    10     9    1
    19    29    27    1
    20    27    28    2
    21     9     7    1
    22     7     8    2
    23     7     5    1
    24     8     1    1
    25     6     5    1
    26     5     4    2
    27     1     2    2
    28     4     2    2
    29     2     3    1
