@<TRIPOS>MOLECULE
1kel_AAH_H_1.pdb
 41 41 0 0 0
SMALL
GASTEIGER

@<TRIPOS>ATOM
      1  C1       -23.4170   36.2400   17.2300 C.ar  219  AAH219     -0.0313
      2  C2       -23.5630   37.6280   17.1240 C.ar  219  AAH219     -0.0582
      3  C3       -22.6270   38.3670   16.3520 C.ar  219  AAH219     -0.0638
      4  C4       -21.5130   37.7280   15.8430 C.ar  219  AAH219     -0.0582
      5  C5       -21.2980   36.3540   16.0730 C.ar  219  AAH219     -0.0313
      6  C6       -22.2450   35.6210   16.7750 C.ar  219  AAH219      0.1262
      7  N7       -22.0310   34.1620   17.0390 N.pl3 219  AAH219      0.0564
      8  O8       -22.8000   33.5630   17.6990 O.2   219  AAH219     -0.1261
      9  O9       -21.2310   33.5430   16.4130 O.2   219  AAH219     -0.1261
     10  C10      -22.8860   39.8500   16.0920 C.3   219  AAH219     -0.0638
     11  N11      -24.2810   40.2910   16.3140 N.4   219  AAH219      0.3869
     12  C12      -25.2730   39.7500   15.3070 C.3   219  AAH219     -0.0342
     13  P13      -27.0840   39.7970   15.6940 P.3   219  AAH219      0.0923
     14  O14      -27.4690   38.8120   16.8460 O.3   219  AAH219     -0.3588
     15  O15      -27.6150   41.2580   16.1360 O.3   219  AAH219     -0.3588
     16  O16      -27.7450   39.4050   14.4660 O.2   219  AAH219     -0.4626
     17  C17      -24.4950   41.7850   16.6520 C.3   219  AAH219     -0.0896
     18  C18      -24.0730   42.1300   18.0900 C.3   219  AAH219     -0.0675
     19  C19      -24.4760   41.0040   19.0580 C.3   219  AAH219     -0.0447
     20  C20      -24.3590   41.5060   20.5040 C.3   219  AAH219      0.0447
     21  C21      -25.5060   42.4520   20.8130 C.2   219  AAH219      0.3047
     22  O22      -26.8010   42.1360   20.4540 O.3   219  AAH219     -0.4806
     23  O23      -25.2670   43.5050   21.3940 O.2   219  AAH219     -0.2510
     24  H1       -24.2240   35.6550   17.6480 H     219  AAH219      0.0640
     25  H2       -24.3670   38.1070   17.6190 H     219  AAH219      0.0620
     26  H4       -20.7800   38.3020   15.2680 H     219  AAH219      0.0620
     27  H5       -20.3950   35.8880   15.7060 H     219  AAH219      0.0640
     28 H101      -22.5530   40.0370   15.1060 H     219  AAH219      0.0107
     29 H102      -22.1070   40.3670   16.6360 H     219  AAH219      0.0107
     30 H121      -25.0180   38.7640   15.1030 H     219  AAH219      0.0135
     31 H122      -25.1560   40.2510   14.3840 H     219  AAH219      0.0135
     32 H171      -25.4820   42.1760   16.4980 H     219  AAH219      0.0059
     33 H172      -23.9510   42.4500   15.9860 H     219  AAH219      0.0059
     34 H181      -24.5410   43.0440   18.3520 H     219  AAH219      0.0247
     35 H182      -22.9860   42.2550   18.1130 H     219  AAH219      0.0247
     36 H191      -23.8290   40.1320   18.9230 H     219  AAH219      0.0270
     37 H192      -25.4980   40.6910   18.8530 H     219  AAH219      0.0270
     38 H201      -23.4190   42.0410   20.6330 H     219  AAH219      0.0377
     39 H202      -24.3750   40.6720   21.1930 H     219  AAH219      0.0377
     40  HO2      -27.3510   41.6130   21.0470 H     219  AAH219      0.2951
     41  HN1      -24.6480   39.7160   17.1610 H     219  AAH219     -0.0807
@<TRIPOS>BOND
     1    31    12    1
     2    16    13    2
     3    30    12    1
     4    28    10    1
     5    26     4    1
     6    12    13    1
     7    12    11    1
     8    13    15    1
     9    13    14    1
    10    27     5    1
    11     4     5   ar
    12     4     3   ar
    13    33    17    1
    14     5     6   ar
    15    10    11    1
    16    10     3    1
    17    10    29    1
    18    11    17    1
    19    11    41    1
    20     3     2   ar
    21     9     7    2
    22    32    17    1
    23    17    18    1
    24     6     7    1
    25     6     1   ar
    26     7     8    2
    27     2     1   ar
    28     2    25    1
    29     1    24    1
    30    18    35    1
    31    18    34    1
    32    18    19    1
    33    37    19    1
    34    36    19    1
    35    19    20    1
    36    22    21    1
    37    22    40    1
    38    20    38    1
    39    20    21    1
    40    20    39    1
    41    21    23    2
