@<TRIPOS>MOLECULE
1keo_NAG_A_1.pdb
 15 15 0 0 0
SMALL
GASTEIGER

@<TRIPOS>ATOM
      1  C1        85.3240   54.8190   20.9000 C.3   201  NAG201      0.2917
      2  C2        86.4310   54.2710   21.8190 C.3   201  NAG201      0.1871
      3  C3        87.5490   53.6530   20.9890 C.3   201  NAG201      0.2095
      4  C4        87.0010   52.6080   20.0300 C.3   201  NAG201      0.2136
      5  C5        85.8740   53.2150   19.1850 C.3   201  NAG201      0.1835
      6  C6        85.2210   52.1730   18.3110 C.3   201  NAG201      0.2142
      7  C7        86.6350   55.4500   23.9180 C.2   201  NAG201      0.2421
      8  C8        87.3900   56.4850   24.7390 C.3   201  NAG201      0.0964
      9  N2        87.0320   55.2910   22.6610 N.am  201  NAG201     -0.1991
     10  O1        85.8900   55.7960   20.0800 O.3   201  NAG201     -0.1879
     11  O3        88.5170   53.0610   21.8460 O.3   201  NAG201     -0.2183
     12  O4        88.0510   52.1540   19.1840 O.3   201  NAG201     -0.2176
     13  O5        84.8390   53.7690   20.0390 O.3   201  NAG201     -0.3242
     14  O6        86.1760   51.5600   17.4600 O.3   201  NAG201     -0.2176
     15  O7        85.6690   54.8590   24.4000 O.2   201  NAG201     -0.2733
@<TRIPOS>BOND
     1    14     6    1
     2     6     5    1
     3    12     4    1
     4     5     4    1
     5     5    13    1
     6     4     3    1
     7    13     1    1
     8    10     1    1
     9     1     2    1
    10     3     2    1
    11     3    11    1
    12     2     9    1
    13     9     7   am
    14     7    15    2
    15     7     8    1
