@<TRIPOS>MOLECULE
1kep_NAD_A_1.pdb
 44 48 0 0 0
SMALL
GASTEIGER

@<TRIPOS>ATOM
      1  PA        15.5570   17.6420   76.4330 P.3   1400  NAD1400     0.2189
      2  O1A       15.7340   17.5080   74.9580 O.2   1400  NAD1400    -0.5170
      3  O2A       16.3890   18.7500   77.1170 O.3   1400  NAD1400    -0.4371
      4  O5B       15.8960   16.2670   77.1700 O.3   1400  NAD1400    -0.3112
      5  C5B       15.4380   14.9850   76.7690 C.3   1400  NAD1400     0.1813
      6  C4B       16.0340   13.8740   77.6430 C.3   1400  NAD1400     0.1821
      7  O4B       15.4340   12.5960   77.3090 O.3   1400  NAD1400    -0.3135
      8  C3B       17.5430   13.7540   77.4200 C.3   1400  NAD1400     0.2184
      9  O3B       18.2770   13.7030   78.6420 O.3   1400  NAD1400    -0.2174
     10  C2B       17.6860   12.4310   76.6670 C.3   1400  NAD1400     0.2570
     11  O2B       18.9040   11.7370   76.8610 O.3   1400  NAD1400    -0.2130
     12  C1B       16.4800   11.6450   77.1690 C.3   1400  NAD1400     0.3186
     13  N9A       15.9970   10.5700   76.2630 N.pl3 1400  NAD1400    -0.1439
     14  C8A       15.6470   10.6850   74.9280 C.3   1400  NAD1400     0.3377
     15  N7A       15.2390    9.4930   74.4640 N.2   1400  NAD1400    -0.2095
     16  C5A       15.2690    8.5990   75.5120 C.2   1400  NAD1400     0.2526
     17  C6A       14.9510    7.2420   75.6030 C.2   1400  NAD1400     0.4393
     18  N6A       14.5260    6.5100   74.5390 N.pl3 1400  NAD1400     0.2180
     19  N1A       15.1110    6.6290   76.8120 N.2   1400  NAD1400     0.0021
     20  C2A       15.5920    7.3310   77.8630 C.3   1400  NAD1400     0.5254
     21  N3A       15.9130    8.6650   77.7950 N.2   1400  NAD1400    -0.0055
     22  C4A       15.7610    9.2800   76.6180 C.2   1400  NAD1400     0.3518
     23  O3        13.9770   17.8340   76.6840 O.3   1400  NAD1400    -0.2703
     24  PN        13.2340   18.8150   77.7630 P.3   1400  NAD1400     0.2189
     25  O1N       13.9420   18.6210   79.0130 O.3   1400  NAD1400    -0.4371
     26  O2N       13.0790   20.1310   77.0760 O.2   1400  NAD1400    -0.5170
     27  O5D       11.7920   18.0880   77.7270 O.3   1400  NAD1400    -0.3112
     28  C5D       11.5250   17.0440   78.6930 C.3   1400  NAD1400     0.1813
     29  C4D       10.0220   16.6540   78.6180 C.3   1400  NAD1400     0.1799
     30  O4D        9.2260   17.7890   78.8570 O.3   1400  NAD1400    -0.3327
     31  C3D        9.5750   16.1090   77.2710 C.3   1400  NAD1400     0.2158
     32  O3D        8.6260   15.0540   77.4940 O.3   1400  NAD1400    -0.2175
     33  C2D        8.9030   17.2800   76.6050 C.3   1400  NAD1400     0.2309
     34  O2D        7.9500   16.9030   75.6340 O.3   1400  NAD1400    -0.2158
     35  C1D        8.2900   17.9640   77.8070 C.3   1400  NAD1400     0.2263
     36  N1N        8.0560   19.4100   77.7100 N.pl3 1400  NAD1400    -0.2787
     37  C2N        9.0310   20.2900   77.2600 C.3   1400  NAD1400     0.1244
     38  C3N        8.7730   21.6520   77.2410 C.2   1400  NAD1400     0.0544
     39  C7N        9.8990   22.6020   76.9730 C.2   1400  NAD1400     0.2818
     40  O7N        9.5430   23.9050   76.8320 O.2   1400  NAD1400    -0.2670
     41  N7N       11.1580   22.1880   76.8540 N.am  1400  NAD1400    -0.0839
     42  C4N        7.5110   22.1580   77.6760 C.2   1400  NAD1400     0.0033
     43  C5N        6.5760   21.2450   78.1930 C.2   1400  NAD1400     0.0157
     44  C6N        6.8340   19.8960   78.1380 C.2   1400  NAD1400     0.0633
@<TRIPOS>BOND
     1    15    14    1
     2    15    16    2
     3    18    17    1
     4    14    13    1
     5     2     1    2
     6    16    17    1
     7    16    22    1
     8    17    19    2
     9    34    33    1
    10    13    22    1
    11    13    12    1
    12     1    23    1
    13     1     3    1
    14     1     4    1
    15    33    31    1
    16    33    35    1
    17    22    21    2
    18    10    11    1
    19    10    12    1
    20    10     8    1
    21    23    24    1
    22     5     4    1
    23     5     6    1
    24    19    20    1
    25    40    39    2
    26    41    39   am
    27    39    38    1
    28    26    24    2
    29    12     7    1
    30    38    37    1
    31    38    42    2
    32    37    36    1
    33    31    32    1
    34    31    29    1
    35     7     6    1
    36     8     6    1
    37     8     9    1
    38    42    43    1
    39    36    35    1
    40    36    44    1
    41    27    24    1
    42    27    28    1
    43    24    25    1
    44    21    20    1
    45    35    30    1
    46    44    43    2
    47    29    28    1
    48    29    30    1
