@<TRIPOS>MOLECULE
1kep_TDX_A_1.pdb
 12 10 0 0 0
SMALL
GASTEIGER

@<TRIPOS>ATOM
      1  O1B        9.1150   24.9040   68.8910 O.3   3500  TDX3500     0.0000
      2  O2B        8.1810   26.4910   70.7070 O.3   3500  TDX3500     0.0000
      3  O1'        9.0900   24.1520   71.2410 O.3   3500  TDX3500    -0.1869
      4  C1'        9.4900   24.2260   72.6240 C.3   3500  TDX3500     0.3024
      5  O5'        8.3640   24.4870   73.4730 O.3   3500  TDX3500    -0.3237
      6  C5'        7.4250   23.4010   73.4380 C.3   3500  TDX3500     0.1804
      7  C2'       10.2130   22.9210   73.0000 C.3   3500  TDX3500     0.2434
      8  O2'       11.3200   22.6780   72.1400 O.3   3500  TDX3500    -0.2148
      9  C3'        9.2270   21.7510   72.9820 C.3   3500  TDX3500     0.2199
     10  O3'        9.8320   20.5690   73.4810 O.3   3500  TDX3500    -0.2174
     11  C4'        8.0880   22.1130   73.9040 C.3   3500  TDX3500     0.2143
     12  O4'        7.1160   21.0690   73.8880 O.3   3500  TDX3500    -0.2176
@<TRIPOS>BOND
     1     3     4    1
     2     8     7    1
     3     4     7    1
     4     4     5    1
     5     9     7    1
     6     9    10    1
     7     9    11    1
     8     6     5    1
     9     6    11    1
    10    12    11    1
