@<TRIPOS>MOLECULE
1ker_NAD_A_1.pdb
 44 48 0 0 0
SMALL
GASTEIGER

@<TRIPOS>ATOM
      1  PA        15.2830   17.3770   75.3550 P.3   1400  NAD1400     0.2189
      2  O1A       15.5560   17.3320   73.8920 O.2   1400  NAD1400    -0.5170
      3  O2A       16.0620   18.5100   75.9900 O.3   1400  NAD1400    -0.4371
      4  O5B       15.7150   16.0280   76.0710 O.3   1400  NAD1400    -0.3112
      5  C5B       15.1270   14.7660   75.7130 C.3   1400  NAD1400     0.1813
      6  C4B       15.8030   13.7570   76.6160 C.3   1400  NAD1400     0.1821
      7  O4B       15.2560   12.4070   76.4090 O.3   1400  NAD1400    -0.3135
      8  C3B       17.3280   13.6790   76.3860 C.3   1400  NAD1400     0.2184
      9  O3B       18.0340   13.7200   77.6490 O.3   1400  NAD1400    -0.2174
     10  C2B       17.4400   12.3830   75.5590 C.3   1400  NAD1400     0.2570
     11  O2B       18.7090   11.7010   75.7310 O.3   1400  NAD1400    -0.2130
     12  C1B       16.2950   11.5250   76.1140 C.3   1400  NAD1400     0.3186
     13  N9A       15.8110   10.5310   75.1690 N.pl3 1400  NAD1400    -0.1439
     14  C8A       15.4850   10.6200   73.8380 C.3   1400  NAD1400     0.3377
     15  N7A       15.0750    9.4390   73.3140 N.2   1400  NAD1400    -0.2095
     16  C5A       15.1430    8.5550   74.3900 C.2   1400  NAD1400     0.2526
     17  C6A       14.8460    7.1700   74.5060 C.2   1400  NAD1400     0.4393
     18  N6A       14.4090    6.4370   73.4740 N.pl3 1400  NAD1400     0.2180
     19  N1A       15.0250    6.5730   75.7460 N.2   1400  NAD1400     0.0021
     20  C2A       15.4760    7.3470   76.7980 C.3   1400  NAD1400     0.5254
     21  N3A       15.7780    8.6270   76.7880 N.2   1400  NAD1400    -0.0055
     22  C4A       15.5880    9.1930   75.5320 C.2   1400  NAD1400     0.3518
     23  O3        13.7570   17.5650   75.5980 O.3   1400  NAD1400    -0.2703
     24  PN        12.9790   18.5030   76.6290 P.3   1400  NAD1400     0.2189
     25  O1N       13.6680   18.5110   77.9640 O.3   1400  NAD1400    -0.4371
     26  O2N       12.9450   19.8570   76.0970 O.2   1400  NAD1400    -0.5170
     27  O5D       11.5170   17.9270   76.7950 O.3   1400  NAD1400    -0.3112
     28  C5D       11.2560   16.8770   77.7580 C.3   1400  NAD1400     0.1813
     29  C4D        9.7790   16.4940   77.6430 C.3   1400  NAD1400     0.1799
     30  O4D        8.9850   17.6970   77.7710 O.3   1400  NAD1400    -0.3327
     31  C3D        9.3700   15.8910   76.2890 C.3   1400  NAD1400     0.2158
     32  O3D        8.5000   14.7650   76.3670 O.3   1400  NAD1400    -0.2175
     33  C2D        8.8030   17.1060   75.5460 C.3   1400  NAD1400     0.2309
     34  O2D        7.8900   16.6640   74.5200 O.3   1400  NAD1400    -0.2158
     35  C1D        8.1460   17.8200   76.6650 C.3   1400  NAD1400     0.2263
     36  N1N        7.8710   19.2590   76.4920 N.pl3 1400  NAD1400    -0.2787
     37  C2N        9.0330   19.9430   76.0740 C.3   1400  NAD1400     0.1244
     38  C3N        8.9290   21.3980   76.1570 C.2   1400  NAD1400     0.0544
     39  C7N       10.0060   22.4320   75.8100 C.2   1400  NAD1400     0.2818
     40  O7N        9.6170   23.6140   75.9760 O.2   1400  NAD1400    -0.2670
     41  N7N       11.2290   22.0770   75.3650 N.am  1400  NAD1400    -0.0839
     42  C4N        7.6930   22.1360   76.6060 C.2   1400  NAD1400     0.0033
     43  C5N        6.5370   21.1530   76.9340 C.2   1400  NAD1400     0.0157
     44  C6N        6.5910   19.8190   76.8800 C.2   1400  NAD1400     0.0633
@<TRIPOS>BOND
     1    15    14    1
     2    15    16    2
     3    18    17    1
     4    14    13    1
     5     2     1    2
     6    16    17    1
     7    16    22    1
     8    17    19    2
     9    34    33    1
    10    13    22    1
    11    13    12    1
    12     1    23    1
    13     1     3    1
    14     1     4    1
    15    41    39   am
    16    22    21    2
    17    33    31    1
    18    33    35    1
    19    10    11    1
    20    10    12    1
    21    10     8    1
    22    23    24    1
    23     5     4    1
    24     5     6    1
    25    19    20    1
    26    39    40    2
    27    39    38    1
    28    37    38    1
    29    37    36    1
    30    26    24    2
    31    12     7    1
    32    38    42    2
    33    31    32    1
    34    31    29    1
    35     8     6    1
    36     8     9    1
    37     7     6    1
    38    36    35    1
    39    36    44    1
    40    42    43    1
    41    24    27    1
    42    24    25    1
    43    35    30    1
    44    21    20    1
    45    27    28    1
    46    44    43    2
    47    29    28    1
    48    29    30    1
