@<TRIPOS>MOLECULE
1ker_DAU_A_1.pdb
 36 38 0 0 0
SMALL
GASTEIGER

@<TRIPOS>ATOM
      1  O6         5.3240   24.5300   73.1310 O.3   2573  DAU2573    -0.2176
      2  C6         5.9490   23.2700   73.5450 C.3   2573  DAU2573     0.2142
      3  C5         7.1130   22.9210   72.6000 C.3   2573  DAU2573     0.1835
      4  O5         8.0830   24.0410   72.6260 O.3   2573  DAU2573    -0.3254
      5  C4         7.8150   21.5910   72.9730 C.3   2573  DAU2573     0.2144
      6  O4         6.8730   20.5170   72.9110 O.3   2573  DAU2573    -0.2176
      7  C3         8.9970   21.3450   72.0370 C.3   2573  DAU2573     0.2198
      8  O3         9.6320   20.0970   72.4190 O.3   2573  DAU2573    -0.2174
      9  C2         9.9500   22.5530   72.1230 C.3   2573  DAU2573     0.2409
     10  O2        11.0750   22.2880   71.2480 O.3   2573  DAU2573    -0.2149
     11  C1         9.2080   23.8550   71.7290 C.3   2573  DAU2573     0.2742
     12  O1         8.6980   23.8510   70.3940 O.3   2573  DAU2573    -0.2857
     13  P2         8.9630   25.1000   69.3890 P.3   2573  DAU2573     0.2208
     14  O3P        8.9040   24.5660   68.0290 O.2   2573  DAU2573    -0.5170
     15  O4P        8.0580   26.2510   69.6000 O.3   2573  DAU2573    -0.4371
     16  OPP       10.3820   25.5820   69.8230 O.3   2573  DAU2573    -0.2703
     17  P         11.6700   26.0690   68.9910 P.3   2573  DAU2573     0.2189
     18  O1P       12.6760   26.3900   70.0160 O.3   2573  DAU2573    -0.4371
     19  O2P       12.1680   25.0900   68.0200 O.2   2573  DAU2573    -0.5170
     20  O5'       11.0990   27.3320   68.1870 O.3   2573  DAU2573    -0.3112
     21  C5'       10.4980   28.4640   68.8870 C.3   2573  DAU2573     0.1812
     22  C4'       10.0340   29.4820   67.8540 C.3   2573  DAU2573     0.1773
     23  O4'       11.2230   30.1650   67.3940 O.3   2573  DAU2573    -0.3339
     24  C3'        9.3410   28.8720   66.6410 C.3   2573  DAU2573     0.1857
     25  O3'        8.2170   29.6880   66.3260 O.3   2573  DAU2573    -0.2203
     26  C2'       10.4600   28.9150   65.5570 C.3   2573  DAU2573     0.0874
     27  C1'       11.3810   30.0280   66.0380 C.3   2573  DAU2573     0.2090
     28  N11       12.8260   29.8630   65.8140 N.am  2573  DAU2573    -0.1794
     29  C61       13.4660   28.7150   66.2410 C.2   2573  DAU2573     0.0877
     30  C51       14.9390   28.5040   66.0550 C.2   2573  DAU2573     0.0891
     31  C5A       15.5940   27.2270   66.5400 C.3   2573  DAU2573     0.0462
     32  C21       13.5470   30.8880   65.1730 C.1   2573  DAU2573     0.2844
     33  O21       13.0270   31.9190   64.7810 O.2   2573  DAU2573    -0.1918
     34  N31       14.9280   30.6680   65.0130 N.2   2573  DAU2573    -0.2455
     35  C41       15.7000   29.5450   65.4060 C.1   2573  DAU2573     0.2134
     36  O41       16.8940   29.5440   65.1790 O.2   2573  DAU2573    -0.2088
@<TRIPOS>BOND
     1    33    32    2
     2    34    32    2
     3    34    35    2
     4    32    28   am
     5    36    35    2
     6    35    30    1
     7    26    27    1
     8    26    24    1
     9    28    27    1
    10    28    29    1
    11    27    23    1
    12    30    29    2
    13    30    31    1
    14    25    24    1
    15    24    22    1
    16    23    22    1
    17    22    21    1
    18    19    17    2
    19    14    13    2
    20    20    21    1
    21    20    17    1
    22    17    16    1
    23    17    18    1
    24    13    15    1
    25    13    16    1
    26    13    12    1
    27    12    11    1
    28    10     9    1
    29    11     9    1
    30    11     4    1
    31     7     9    1
    32     7     8    1
    33     7     5    1
    34     3     4    1
    35     3     5    1
    36     3     2    1
    37     6     5    1
    38     1     2    1
