@<TRIPOS>MOLECULE
1ket_NAD_A_1.pdb
 44 48 0 0 0
SMALL
GASTEIGER

@<TRIPOS>ATOM
      1  PA        15.6200   17.9070   76.0610 P.3   1400  NAD1400     0.2189
      2  O1A       15.8430   17.8640   74.5910 O.2   1400  NAD1400    -0.5170
      3  O2A       16.4240   19.0360   76.6870 O.3   1400  NAD1400    -0.4371
      4  O5B       16.0750   16.5400   76.7800 O.3   1400  NAD1400    -0.3112
      5  C5B       15.5390   15.2290   76.4250 C.3   1400  NAD1400     0.1813
      6  C4B       16.1550   14.3160   77.2270 C.3   1400  NAD1400     0.1821
      7  O4B       15.5890   12.9460   77.0360 O.3   1400  NAD1400    -0.3135
      8  C3B       17.6920   14.1880   77.0030 C.3   1400  NAD1400     0.2184
      9  O3B       18.4150   14.2530   78.2720 O.3   1400  NAD1400    -0.2174
     10  C2B       17.7840   12.8450   76.2260 C.3   1400  NAD1400     0.2570
     11  O2B       19.0390   12.1350   76.4300 O.3   1400  NAD1400    -0.2130
     12  C1B       16.6250   12.0230   76.8090 C.3   1400  NAD1400     0.3186
     13  N9A       16.1430   10.9780   75.9000 N.pl3 1400  NAD1400    -0.1439
     14  C8A       15.7970   11.0340   74.5680 C.3   1400  NAD1400     0.3377
     15  N7A       15.3770    9.8410   74.0770 N.2   1400  NAD1400    -0.2095
     16  C5A       15.4590    8.9770   75.1610 C.2   1400  NAD1400     0.2526
     17  C6A       15.1510    7.5890   75.3020 C.2   1400  NAD1400     0.4393
     18  N6A       14.6870    6.8420   74.2800 N.pl3 1400  NAD1400     0.2180
     19  N1A       15.3420    7.0080   76.5510 N.2   1400  NAD1400     0.0021
     20  C2A       15.8230    7.7960   77.5840 C.3   1400  NAD1400     0.5254
     21  N3A       16.1400    9.0760   77.5490 N.2   1400  NAD1400    -0.0055
     22  C4A       15.9320    9.6350   76.2910 C.2   1400  NAD1400     0.3518
     23  O3        14.0830   18.1210   76.3230 O.3   1400  NAD1400    -0.2703
     24  PN        13.2860   19.0930   77.3370 P.3   1400  NAD1400     0.2189
     25  O1N       13.9670   19.1260   78.6680 O.3   1400  NAD1400    -0.4371
     26  O2N       13.2220   20.4490   76.7720 O.2   1400  NAD1400    -0.5170
     27  O5D       11.8140   18.5030   77.4860 O.3   1400  NAD1400    -0.3112
     28  C5D       11.5220   17.4450   78.4330 C.3   1400  NAD1400     0.1813
     29  C4D       10.0490   17.0920   78.3110 C.3   1400  NAD1400     0.1799
     30  O4D        9.2630   18.3110   78.4200 O.3   1400  NAD1400    -0.3327
     31  C3D        9.6170   16.4710   76.9580 C.3   1400  NAD1400     0.2158
     32  O3D        8.7350   15.3470   77.0580 O.3   1400  NAD1400    -0.2175
     33  C2D        9.0320   17.6710   76.2110 C.3   1400  NAD1400     0.2309
     34  O2D        8.0830   17.2060   75.2230 O.3   1400  NAD1400    -0.2158
     35  C1D        8.3970   18.4010   77.3300 C.3   1400  NAD1400     0.2263
     36  N1N        8.0870   19.8330   77.1150 N.pl3 1400  NAD1400    -0.2787
     37  C2N        9.2110   20.5210   76.6000 C.3   1400  NAD1400     0.1244
     38  C3N        9.0640   21.9740   76.5630 C.2   1400  NAD1400     0.0544
     39  C7N       10.1080   23.0090   76.1070 C.2   1400  NAD1400     0.2818
     40  O7N        9.6980   24.1920   76.1910 O.2   1400  NAD1400    -0.2670
     41  N7N       11.3360   22.6540   75.6730 N.am  1400  NAD1400    -0.0839
     42  C4N        7.8180   22.7100   76.9930 C.2   1400  NAD1400     0.0033
     43  C5N        6.7130   21.7210   77.4700 C.2   1400  NAD1400     0.0157
     44  C6N        6.8100   20.3850   77.5310 C.2   1400  NAD1400     0.0633
@<TRIPOS>BOND
     1    15    14    1
     2    15    16    2
     3    18    17    1
     4    14    13    1
     5     2     1    2
     6    16    17    1
     7    16    22    1
     8    34    33    1
     9    17    19    2
    10    41    39   am
    11    13    22    1
    12    13    12    1
    13     1    23    1
    14     1     3    1
    15     1     4    1
    16    39    40    2
    17    39    38    1
    18    33    31    1
    19    33    35    1
    20    10    11    1
    21    10    12    1
    22    10     8    1
    23    22    21    2
    24    23    24    1
    25     5     4    1
    26     5     6    1
    27    19    20    1
    28    38    37    1
    29    38    42    2
    30    37    36    1
    31    26    24    2
    32    12     7    1
    33    31    32    1
    34    31    29    1
    35    42    43    1
    36     8     6    1
    37     8     9    1
    38     7     6    1
    39    36    35    1
    40    36    44    1
    41    35    30    1
    42    24    27    1
    43    24    25    1
    44    43    44    2
    45    27    28    1
    46    21    20    1
    47    29    30    1
    48    29    28    1
