@<TRIPOS>MOLECULE
1ket_TYD_A_1.pdb
 25 26 0 0 0
SMALL
GASTEIGER

@<TRIPOS>ATOM
      1  PA        11.8670   26.5920   69.4390 P.3   2573  TYD2573     0.2231
      2  O1A       12.8700   26.9350   70.4590 O.3   2573  TYD2573    -0.4370
      3  O2A       12.3910   25.6360   68.4350 O.2   2573  TYD2573    -0.5169
      4  O3A       10.5880   26.0270   70.2800 O.3   2573  TYD2573    -0.2261
      5  PB         9.1560   25.4830   69.8790 P.3   2573  TYD2573     0.5373
      6  O1B        8.7720   24.3290   70.7030 O.3   2573  TYD2573    -0.1143
      7  O2B        9.1990   25.1590   68.4390 O.2   2573  TYD2573    -0.2221
      8  O3B        8.0970   26.6770   70.2660 O.3   2573  TYD2573    -0.1143
      9  O5'       11.2650   27.8630   68.6510 O.3   2573  TYD2573    -0.3111
     10  C5'       10.6450   28.9770   69.3640 C.3   2573  TYD2573     0.1812
     11  C4'       10.1880   30.0150   68.3510 C.3   2573  TYD2573     0.1773
     12  O4'       11.3840   30.6970   67.8950 O.3   2573  TYD2573    -0.3339
     13  C3'        9.4850   29.4370   67.1220 C.3   2573  TYD2573     0.1857
     14  O3'        8.3810   30.2800   66.8050 O.3   2573  TYD2573    -0.2203
     15  C2'       10.6070   29.4780   66.0420 C.3   2573  TYD2573     0.0874
     16  C1'       11.5220   30.5930   66.5250 C.3   2573  TYD2573     0.2090
     17  N1        12.9640   30.4660   66.2680 N.am  2573  TYD2573    -0.1794
     18  C2        13.6460   31.5110   65.6110 C.1   2573  TYD2573     0.2844
     19  O2        13.1050   32.5420   65.2180 O.2   2573  TYD2573    -0.1918
     20  N3        15.0180   31.2940   65.4420 N.2   2573  TYD2573    -0.2455
     21  C4        15.7600   30.1590   65.8530 C.1   2573  TYD2573     0.2134
     22  O4        16.9610   30.1270   65.6320 O.2   2573  TYD2573    -0.2088
     23  C5        14.9700   29.1320   66.5140 C.2   2573  TYD2573     0.0891
     24  C5M       15.6310   27.8500   67.0100 C.3   2573  TYD2573     0.0462
     25  C6        13.6570   29.3190   66.6890 C.2   2573  TYD2573     0.0877
@<TRIPOS>BOND
     1    19    18    2
     2    20    18    2
     3    20    21    2
     4    18    17   am
     5    22    21    2
     6    21    23    1
     7    15    16    1
     8    15    13    1
     9    17    16    1
    10    17    25    1
    11    23    25    2
    12    23    24    1
    13    16    12    1
    14    14    13    1
    15    13    11    1
    16    12    11    1
    17    11    10    1
    18     3     1    2
    19     7     5    2
    20     9    10    1
    21     9     1    1
    22     1     4    1
    23     1     2    1
    24     5     8    1
    25     5     4    1
    26     5     6    1
