@<TRIPOS>MOLECULE
1keu_NAD_A_1.pdb
 44 48 0 0 0
SMALL
GASTEIGER

@<TRIPOS>ATOM
      1  PA        69.8090   32.2870   15.7350 P.3   1400  NAD1400     0.2189
      2  O1A       70.0120   33.0930   14.4930 O.2   1400  NAD1400    -0.5170
      3  O2A       69.2450   33.1760   16.8340 O.3   1400  NAD1400    -0.4371
      4  O5B       71.1990   31.6760   16.2750 O.3   1400  NAD1400    -0.3112
      5  C5B       72.0230   30.7640   15.4910 C.3   1400  NAD1400     0.1813
      6  C4B       73.0040   30.3170   16.3150 C.3   1400  NAD1400     0.1821
      7  O4B       73.8690   29.3140   15.6440 O.3   1400  NAD1400    -0.3135
      8  C3B       73.9490   31.4250   16.8300 C.3   1400  NAD1400     0.2184
      9  O3B       74.1560   31.2840   18.2570 O.3   1400  NAD1400    -0.2174
     10  C2B       75.1830   31.2240   15.9160 C.3   1400  NAD1400     0.2570
     11  O2B       76.4310   31.6830   16.5110 O.3   1400  NAD1400    -0.2130
     12  C1B       75.2130   29.7230   15.7110 C.3   1400  NAD1400     0.3186
     13  N9A       75.8840   29.3270   14.4740 N.pl3 1400  NAD1400    -0.1439
     14  C8A       75.7470   29.7810   13.1860 C.3   1400  NAD1400     0.3377
     15  N7A       76.5660   29.1550   12.3060 N.2   1400  NAD1400    -0.2095
     16  C5A       77.2660   28.2450   13.0880 C.2   1400  NAD1400     0.2526
     17  C6A       78.2740   27.2890   12.7660 C.2   1400  NAD1400     0.4393
     18  N6A       78.7450   27.1190   11.5160 N.pl3 1400  NAD1400     0.2180
     19  N1A       78.7700   26.5110   13.7980 N.2   1400  NAD1400     0.0021
     20  C2A       78.2730   26.7010   15.0780 C.3   1400  NAD1400     0.5254
     21  N3A       77.3520   27.5560   15.4720 N.2   1400  NAD1400    -0.0055
     22  C4A       76.8710   28.3200   14.4150 C.2   1400  NAD1400     0.3518
     23  O3        68.7660   31.1270   15.4710 O.3   1400  NAD1400    -0.2703
     24  PN        67.3900   30.9530   16.2530 P.3   1400  NAD1400     0.2189
     25  O1N       66.0950   31.3130   15.5710 O.2   1400  NAD1400    -0.5170
     26  O2N       67.3300   30.2010   17.5080 O.3   1400  NAD1400    -0.4371
     27  O5D       67.1880   29.5200   15.4910 O.3   1400  NAD1400    -0.3112
     28  C5D       67.9330   28.3050   15.8390 C.3   1400  NAD1400     0.1813
     29  C4D       67.4150   27.0860   15.0310 C.3   1400  NAD1400     0.1799
     30  O4D       65.9600   27.0060   15.1050 O.3   1400  NAD1400    -0.3327
     31  C3D       67.7220   27.0860   13.5240 C.3   1400  NAD1400     0.2158
     32  O3D       68.1970   25.8380   13.0050 O.3   1400  NAD1400    -0.2175
     33  C2D       66.4020   27.5700   12.9320 C.3   1400  NAD1400     0.2309
     34  O2D       66.2840   27.1530   11.5620 O.3   1400  NAD1400    -0.2158
     35  C1D       65.4410   26.9070   13.8090 C.3   1400  NAD1400     0.2263
     36  N1N       64.1110   27.4890   13.7890 N.pl3 1400  NAD1400    -0.2787
     37  C2N       63.9190   28.8360   14.2050 C.3   1400  NAD1400     0.1244
     38  C3N       62.6160   29.3530   14.3160 C.2   1400  NAD1400     0.0544
     39  C7N       62.3950   30.7780   14.7740 C.2   1400  NAD1400     0.2818
     40  O7N       61.1010   31.1800   14.8390 O.2   1400  NAD1400    -0.2670
     41  N7N       63.4040   31.5950   15.0840 N.am  1400  NAD1400    -0.0839
     42  C4N       61.4880   28.5100   13.9670 C.2   1400  NAD1400     0.0033
     43  C5N       61.7310   27.1880   13.4970 C.2   1400  NAD1400     0.0157
     44  C6N       63.0210   26.6920   13.4130 C.2   1400  NAD1400     0.0633
@<TRIPOS>BOND
     1    18    17    1
     2    34    33    1
     3    15    16    2
     4    15    14    1
     5    17    16    1
     6    17    19    2
     7    33    31    1
     8    33    35    1
     9    32    31    1
    10    16    22    1
    11    14    13    1
    12    44    43    2
    13    44    36    1
    14    43    42    1
    15    31    29    1
    16    36    35    1
    17    36    37    1
    18    19    20    1
    19    35    30    1
    20    42    38    2
    21    37    38    1
    22    38    39    1
    23    22    13    1
    24    22    21    2
    25    13    12    1
    26     2     1    2
    27    39    40    2
    28    39    41   am
    29    29    30    1
    30    29    28    1
    31    20    21    1
    32    23     1    1
    33    23    24    1
    34    27    28    1
    35    27    24    1
    36     5     4    1
    37     5     6    1
    38    25    24    2
    39     7    12    1
    40     7     6    1
    41    12    10    1
    42     1     4    1
    43     1     3    1
    44    10    11    1
    45    10     8    1
    46    24    26    1
    47     6     8    1
    48     8     9    1
