@<TRIPOS>MOLECULE
1keu_DAU_A_1.pdb
 36 38 0 0 0
SMALL
GASTEIGER

@<TRIPOS>ATOM
      1  O6        58.4270   30.3250   10.5170 O.3   2573  DAU2573    -0.2176
      2  C6        59.7450   29.8400   10.9610 C.3   2573  DAU2573     0.2142
      3  C5        60.8190   30.8770   10.6100 C.3   2573  DAU2573     0.1835
      4  O5        60.4530   32.1490   11.2710 O.3   2573  DAU2573    -0.3254
      5  C4        62.2540   30.4370   11.0250 C.3   2573  DAU2573     0.2144
      6  O4        62.6130   29.2190   10.3580 O.3   2573  DAU2573    -0.2176
      7  C3        63.2450   31.5440   10.6870 C.3   2573  DAU2573     0.2198
      8  O3        64.5750   31.1130   11.0820 O.3   2573  DAU2573    -0.2174
      9  C2        62.8040   32.8350   11.3900 C.3   2573  DAU2573     0.2409
     10  O2        63.7860   33.8590   11.0730 O.3   2573  DAU2573    -0.2149
     11  C1        61.3570   33.2440   10.9610 C.3   2573  DAU2573     0.2742
     12  O1        61.1900   33.5450    9.5650 O.3   2573  DAU2573    -0.2857
     13  P2        60.2490   34.7820    9.0550 P.3   2573  DAU2573     0.2208
     14  O3P       60.7080   35.1460    7.7120 O.2   2573  DAU2573    -0.5170
     15  O4P       58.8020   34.4940    9.1010 O.3   2573  DAU2573    -0.4371
     16  OPP       60.5160   35.8730   10.1400 O.3   2573  DAU2573    -0.2703
     17  P         60.7840   37.4660   10.0690 P.3   2573  DAU2573     0.2189
     18  O1P       60.9460   37.8700   11.4730 O.3   2573  DAU2573    -0.4371
     19  O2P       61.9460   37.8470    9.2390 O.2   2573  DAU2573    -0.5170
     20  O5'       59.4560   38.0140    9.3650 O.3   2573  DAU2573    -0.3112
     21  C5'       58.1440   37.7810    9.9530 C.3   2573  DAU2573     0.1812
     22  C4'       57.1000   38.4690    9.0890 C.3   2573  DAU2573     0.1773
     23  O4'       57.2660   39.8970    9.2920 O.3   2573  DAU2573    -0.3339
     24  C3'       57.2410   38.1860    7.5990 C.3   2573  DAU2573     0.1857
     25  O3'       55.9500   37.9440    7.0540 O.3   2573  DAU2573    -0.2203
     26  C2'       57.8810   39.4570    7.0760 C.3   2573  DAU2573     0.0874
     27  C1'       57.5080   40.5240    8.0970 C.3   2573  DAU2573     0.2090
     28  N11       58.5090   41.5780    8.3360 N.am  2573  DAU2573    -0.1794
     29  C61       59.7930   41.2430    8.7790 C.2   2573  DAU2573     0.0877
     30  C51       60.7520   42.1360    9.0190 C.2   2573  DAU2573     0.0891
     31  C5A       62.1160   41.6720    9.4980 C.3   2573  DAU2573     0.0462
     32  C21       58.1630   42.9290    8.1150 C.1   2573  DAU2573     0.2844
     33  O21       57.0730   43.2990    7.7310 O.2   2573  DAU2573    -0.1918
     34  N31       59.1790   43.8390    8.3720 N.2   2573  DAU2573    -0.2455
     35  C41       60.4830   43.5510    8.8190 C.1   2573  DAU2573     0.2134
     36  O41       61.2550   44.4750    8.9960 O.2   2573  DAU2573    -0.2088
@<TRIPOS>BOND
     1    25    24    1
     2    26    24    1
     3    26    27    1
     4    24    22    1
     5    14    13    2
     6    33    32    2
     7    27    28    1
     8    27    23    1
     9    32    28   am
    10    32    34    2
    11    28    29    1
    12    34    35    2
    13    29    30    2
    14    35    36    2
    15    35    30    1
    16    30    31    1
    17    13    15    1
    18    13    12    1
    19    13    16    1
    20    22    23    1
    21    22    21    1
    22    19    17    2
    23    20    21    1
    24    20    17    1
    25    12    11    1
    26    17    16    1
    27    17    18    1
    28     6     5    1
    29     1     2    1
    30     3     2    1
    31     3     5    1
    32     3     4    1
    33     7     5    1
    34     7     8    1
    35     7     9    1
    36    11     4    1
    37    11     9    1
    38    10     9    1
