@<TRIPOS>MOLECULE
1kev_NDP_A_1.pdb
 48 52 0 0 0
SMALL
GASTEIGER

@<TRIPOS>ATOM
      1  PA        38.3760   19.7760   59.3220 P.3   352  NDP352      0.2189
      2  O1A       38.6200   20.4500   60.6190 O.3   352  NDP352     -0.4371
      3  O2A       37.6520   18.4990   59.3490 O.2   352  NDP352     -0.5170
      4  O5B       39.8860   19.3390   58.8940 O.3   352  NDP352     -0.3099
      5  C5B       40.3490   18.9200   57.5910 C.3   352  NDP352      0.1957
      6  C4B       41.8070   18.4620   57.4930 C.3   352  NDP352      0.2370
      7  O4B       42.7600   19.3980   58.0530 O.2   352  NDP352     -0.4421
      8  C3B       42.0230   17.0830   58.1260 C.3   352  NDP352      0.2574
      9  O3B       42.0320   16.0680   57.1190 O.3   352  NDP352     -0.2106
     10  C2B       43.4540   17.1600   58.6280 C.2   352  NDP352      0.2340
     11  O2B       44.2450   16.1050   59.2220 O.2   352  NDP352     -0.3946
     12  C1B       43.8540   18.6120   58.5610 C.2   352  NDP352      0.3245
     13  N9A       45.2080   19.1430   58.8560 N.pl3 352  NDP352     -0.1137
     14  C8A       45.5860   19.7320   60.0080 C.3   352  NDP352      0.3430
     15  N7A       46.7820   20.3320   59.8950 N.2   352  NDP352     -0.2092
     16  C5A       47.1230   20.0760   58.6400 C.2   352  NDP352      0.2530
     17  C6A       48.2970   20.5260   58.0520 C.2   352  NDP352      0.4393
     18  N6A       49.1620   21.2670   58.7450 N.pl3 352  NDP352      0.2180
     19  N1A       48.4760   20.1640   56.7630 N.2   352  NDP352      0.0021
     20  C2A       47.5750   19.4190   56.1050 C.3   352  NDP352      0.5254
     21  N3A       46.4380   19.0060   56.6740 N.2   352  NDP352     -0.0051
     22  C4A       46.1830   19.3260   57.9620 C.2   352  NDP352      0.3567
     23  O3        37.7140   20.7740   58.2450 O.3   352  NDP352     -0.2703
     24  PN        36.8820   20.8170   56.8260 P.3   352  NDP352      0.2189
     25  O1N       35.4530   20.5080   57.0880 O.3   352  NDP352     -0.4371
     26  O2N       37.6210   20.2610   55.6820 O.2   352  NDP352     -0.5170
     27  O5D       36.6850   22.4400   56.7120 O.3   352  NDP352     -0.3112
     28  C5D       37.7220   23.1260   55.9300 C.3   352  NDP352      0.1813
     29  C4D       37.9550   24.6410   55.6150 C.3   352  NDP352      0.1799
     30  O4D       37.0330   25.1380   54.6190 O.3   352  NDP352     -0.3327
     31  C3D       37.7260   25.1860   57.0410 C.3   352  NDP352      0.2158
     32  O3D       38.4080   26.3800   57.3680 O.3   352  NDP352     -0.2175
     33  C2D       36.2500   25.5400   56.8590 C.3   352  NDP352      0.2309
     34  O2D       35.7490   26.6960   57.6220 O.3   352  NDP352     -0.2158
     35  C1D       36.1940   25.9410   55.3480 C.3   352  NDP352      0.2263
     36  N1N       34.7970   26.0440   54.8460 N.pl3 352  NDP352     -0.2787
     37  C2N       34.0480   27.2850   54.8450 C.3   352  NDP352      0.1244
     38  C3N       32.6680   27.2350   54.6900 C.2   352  NDP352      0.0544
     39  C7N       31.7870   28.4910   54.5570 C.2   352  NDP352      0.2818
     40  O7N       30.7420   28.5210   53.9060 O.2   352  NDP352     -0.2670
     41  N7N       32.2670   29.5380   55.2320 N.am  352  NDP352     -0.0839
     42  C4N       32.1260   25.9630   54.5250 C.2   352  NDP352      0.0033
     43  C5N       32.8330   24.7610   54.4900 C.2   352  NDP352      0.0157
     44  C6N       34.1920   24.7790   54.6530 C.2   352  NDP352      0.0633
     45  P2B       43.6160   14.7840   59.9180 P.3   352  NDP352      0.5886
     46  O1X       44.7730   14.2840   60.6990 O.3   352  NDP352     -0.1039
     47  O2X       43.2370   13.8730   58.8000 O.2   352  NDP352     -0.2114
     48  O3X       42.4920   15.2910   60.7450 O.3   352  NDP352     -0.1039
@<TRIPOS>BOND
     1    40    39    2
     2    43    42    1
     3    43    44    2
     4    42    38    2
     5    39    38    1
     6    39    41   am
     7    30    35    1
     8    30    29    1
     9    44    36    1
    10    38    37    1
    11    37    36    1
    12    36    35    1
    13    35    33    1
    14    29    28    1
    15    29    31    1
    16    26    24    2
    17    28    27    1
    18    20    21    1
    19    20    19    1
    20    21    22    2
    21    27    24    1
    22    19    17    2
    23    24    25    1
    24    24    23    1
    25    33    31    1
    26    33    34    1
    27    31    32    1
    28     9     8    1
    29     6     5    1
    30     6     7    1
    31     6     8    1
    32     5     4    1
    33    22    16    1
    34    22    13    1
    35    17    16    1
    36    17    18    1
    37     7    12    1
    38     8    10    1
    39    23     1    1
    40    12    10    2
    41    12    13    1
    42    10    11    1
    43    16    15    2
    44    47    45    2
    45    13    14    1
    46     4     1    1
    47    11    45    1
    48     1     3    2
    49     1     2    1
    50    15    14    1
    51    45    46    1
    52    45    48    1
