@<TRIPOS>MOLECULE
1kew_NAD_A_1.pdb
 44 48 0 0 0
SMALL
GASTEIGER

@<TRIPOS>ATOM
      1  PA        62.3100   43.7130  -15.6260 P.3   1400  NAD1400     0.2189
      2  O1A       63.1650   43.5220  -14.4360 O.3   1400  NAD1400    -0.4371
      3  O2A       62.7290   42.7850  -16.7410 O.2   1400  NAD1400    -0.5170
      4  O5B       62.4020   45.2220  -16.1770 O.3   1400  NAD1400    -0.3112
      5  C5B       62.0570   46.3760  -15.3600 C.3   1400  NAD1400     0.1813
      6  C4B       62.1220   47.4600  -16.1840 C.3   1400  NAD1400     0.1821
      7  O4B       61.6600   48.6920  -15.5000 O.3   1400  NAD1400    -0.3135
      8  C3B       63.5380   47.7760  -16.7060 C.3   1400  NAD1400     0.2184
      9  O3B       63.5140   48.0600  -18.1300 O.3   1400  NAD1400    -0.2174
     10  C2B       63.9490   48.9350  -15.7690 C.3   1400  NAD1400     0.2570
     11  O2B       64.9690   49.8150  -16.3250 O.3   1400  NAD1400    -0.2130
     12  C1B       62.6470   49.6850  -15.5820 C.3   1400  NAD1400     0.3186
     13  N9A       62.6230   50.4690  -14.3530 N.pl3 1400  NAD1400    -0.1439
     14  C8A       62.9310   50.1210  -13.0620 C.3   1400  NAD1400     0.3377
     15  N7A       62.7920   51.1400  -12.1850 N.2   1400  NAD1400    -0.2095
     16  C5A       62.3600   52.2030  -12.9680 C.2   1400  NAD1400     0.2526
     17  C6A       62.0350   53.5460  -12.6370 C.2   1400  NAD1400     0.4393
     18  N6A       62.1150   54.0170  -11.3820 N.pl3 1400  NAD1400     0.2180
     19  N1A       61.6240   54.3790  -13.6660 N.2   1400  NAD1400     0.0021
     20  C2A       61.5490   53.8670  -14.9560 C.3   1400  NAD1400     0.5254
     21  N3A       61.8340   52.6400  -15.3590 N.2   1400  NAD1400    -0.0055
     22  C4A       62.2430   51.8320  -14.2980 C.2   1400  NAD1400     0.3518
     23  O3        60.8290   43.4220  -15.2290 O.3   1400  NAD1400    -0.2703
     24  PN        59.6940   42.5300  -15.9000 P.3   1400  NAD1400     0.2189
     25  O1N       59.6450   42.7470  -17.3790 O.2   1400  NAD1400    -0.5170
     26  O2N       59.9550   41.1000  -15.6180 O.3   1400  NAD1400    -0.4371
     27  O5D       58.3180   42.9600  -15.2480 O.3   1400  NAD1400    -0.3112
     28  C5D       57.5640   44.0790  -15.7640 C.3   1400  NAD1400     0.1813
     29  C4D       56.3270   44.2570  -14.9020 C.3   1400  NAD1400     0.1799
     30  O4D       55.5990   42.9990  -14.8520 O.3   1400  NAD1400    -0.3327
     31  C3D       56.5830   44.6070  -13.4250 C.3   1400  NAD1400     0.2158
     32  O3D       55.6920   45.5790  -12.8690 O.3   1400  NAD1400    -0.2175
     33  C2D       56.5280   43.2370  -12.7550 C.3   1400  NAD1400     0.2309
     34  O2D       56.2110   43.3920  -11.3530 O.3   1400  NAD1400    -0.2158
     35  C1D       55.4510   42.6000  -13.5270 C.3   1400  NAD1400     0.2263
     36  N1N       55.4370   41.1410  -13.5020 N.pl3 1400  NAD1400    -0.2787
     37  C2N       56.5930   40.3980  -13.8930 C.3   1400  NAD1400     0.1244
     38  C3N       56.5230   38.9950  -13.9580 C.2   1400  NAD1400     0.0544
     39  C7N       57.7080   38.1860  -14.4020 C.2   1400  NAD1400     0.2818
     40  O7N       57.5100   36.8480  -14.4140 O.2   1400  NAD1400    -0.2670
     41  N7N       58.8650   38.7370  -14.7580 N.am  1400  NAD1400    -0.0839
     42  C4N       55.2960   38.3210  -13.5970 C.2   1400  NAD1400     0.0033
     43  C5N       54.1800   39.0960  -13.1810 C.2   1400  NAD1400     0.0157
     44  C6N       54.2520   40.4830  -13.1430 C.2   1400  NAD1400     0.0633
@<TRIPOS>BOND
     1     9     8    1
     2    25    24    2
     3     3     1    2
     4     8     6    1
     5     8    10    1
     6    11    10    1
     7     6     7    1
     8     6     5    1
     9     4     1    1
    10     4     5    1
    11    24    26    1
    12    24    27    1
    13    24    23    1
    14    10    12    1
    15    28    27    1
    16    28    29    1
    17     1    23    1
    18     1     2    1
    19    12     7    1
    20    12    13    1
    21    21    20    1
    22    21    22    2
    23    20    19    1
    24    29    30    1
    25    29    31    1
    26    30    35    1
    27    41    39   am
    28    40    39    2
    29    39    38    1
    30    13    22    1
    31    13    14    1
    32    22    16    1
    33    38    37    1
    34    38    42    2
    35    37    36    1
    36    19    17    2
    37    42    43    1
    38    35    36    1
    39    35    33    1
    40    36    44    1
    41    31    32    1
    42    31    33    1
    43    43    44    2
    44    14    15    1
    45    16    17    1
    46    16    15    2
    47    33    34    1
    48    17    18    1
