@<TRIPOS>MOLECULE
1kew_TYD_A_1.pdb
 25 26 0 0 0
SMALL
GASTEIGER

@<TRIPOS>ATOM
      1  PA        62.1380   33.5660   -9.9110 P.3   2600  TYD2600     0.2231
      2  O1A       62.5770   33.5170  -11.3060 O.2   2600  TYD2600    -0.5169
      3  O2A       63.0440   34.3610   -9.0510 O.3   2600  TYD2600    -0.4370
      4  O3A       60.6280   34.1390   -9.9870 O.3   2600  TYD2600    -0.2261
      5  PB        59.5500   34.4480   -8.9030 P.3   2600  TYD2600     0.5373
      6  O1B       58.8530   35.7040   -9.2170 O.2   2600  TYD2600    -0.2221
      7  O2B       60.2400   34.4960   -7.6000 O.3   2600  TYD2600    -0.1143
      8  O3B       58.4260   33.2750   -9.0240 O.3   2600  TYD2600    -0.1143
      9  O5'       61.9330   32.1330   -9.2340 O.3   2600  TYD2600    -0.3111
     10  C5'       61.0830   31.1210   -9.8430 C.3   2600  TYD2600     0.1812
     11  C4'       61.1480   29.8690   -8.9840 C.3   2600  TYD2600     0.1773
     12  O4'       62.4700   29.3010   -9.1770 O.3   2600  TYD2600    -0.3339
     13  C3'       60.9660   30.1310   -7.4910 C.3   2600  TYD2600     0.1857
     14  O3'       60.1460   29.1030   -6.9520 O.3   2600  TYD2600    -0.2203
     15  C2'       62.3910   30.0910   -6.9700 C.3   2600  TYD2600     0.0874
     16  C1'       63.1280   29.2090   -7.9750 C.3   2600  TYD2600     0.2090
     17  N1        64.5390   29.5380   -8.2100 N.am  2600  TYD2600    -0.1794
     18  C2        65.5230   28.5610   -7.9610 C.1   2600  TYD2600     0.2844
     19  O2        65.2760   27.4400   -7.5520 O.2   2600  TYD2600    -0.1918
     20  N3        66.8230   28.9700   -8.2140 N.2   2600  TYD2600    -0.2455
     21  C4        67.2440   30.2340   -8.6860 C.1   2600  TYD2600     0.2134
     22  O4        68.4340   30.4340   -8.8550 O.2   2600  TYD2600    -0.2088
     23  C5        66.1660   31.1740   -8.9160 C.2   2600  TYD2600     0.0891
     24  C5M       66.4720   32.5760   -9.4250 C.3   2600  TYD2600     0.0462
     25  C6        64.9080   30.8070   -8.6810 C.2   2600  TYD2600     0.0877
@<TRIPOS>BOND
     1     2     1    2
     2     4     1    1
     3     4     5    1
     4     1     9    1
     5     1     3    1
     6    10     9    1
     7    10    11    1
     8    24    23    1
     9     6     5    2
    10    12    11    1
    11    12    16    1
    12     8     5    1
    13    11    13    1
    14    23    21    1
    15    23    25    2
    16     5     7    1
    17    22    21    2
    18    21    20    2
    19    25    17    1
    20    20    18    2
    21    17    16    1
    22    17    18   am
    23    16    15    1
    24    18    19    2
    25    13    15    1
    26    13    14    1
