@<TRIPOS>MOLECULE
1kf0_ACP_A_1.pdb
 31 33 0 0 0
SMALL
GASTEIGER

@<TRIPOS>ATOM
      1  PG         9.5650   -0.7210   24.4990 P.3   418  ACP418      0.1295
      2  O1G        9.5580   -1.9430   25.3310 O.3   418  ACP418     -0.3567
      3  O2G        8.2190   -0.1530   24.2760 O.2   418  ACP418     -0.4595
      4  O3G       10.5680    0.2770   24.9220 O.3   418  ACP418     -0.3567
      5  PB         9.7390   -0.1940   21.4120 P.3   418  ACP418      0.3815
      6  O1B        8.6580   -0.8620   20.6200 O.2   418  ACP418     -0.2547
      7  O2B       11.0430    0.1630   20.7530 O.3   418  ACP418     -0.1391
      8  C3B       10.1320   -1.2880   22.8410 C.3   418  ACP418      0.1768
      9  PA         9.4590    2.6690   21.9500 P.3   418  ACP418      0.2209
     10  O1A       10.7040    2.9020   22.6890 O.3   418  ACP418     -0.4371
     11  O2A        9.3130    3.1580   20.5720 O.2   418  ACP418     -0.5170
     12  O3A        9.1310    1.1160   21.9790 O.3   418  ACP418     -0.2483
     13  O5'        8.2720    3.2090   22.8060 O.3   418  ACP418     -0.3111
     14  C5'        6.8950    3.1420   22.3850 C.3   418  ACP418      0.1813
     15  C4'        6.0380    2.8650   23.5820 C.3   418  ACP418      0.1821
     16  O4'        6.1960    3.9950   24.4600 O.3   418  ACP418     -0.3135
     17  C3'        4.5590    2.7680   23.2980 C.3   418  ACP418      0.2184
     18  O3'        4.1120    1.4180   23.5260 O.3   418  ACP418     -0.2174
     19  C2'        3.9210    3.7810   24.2320 C.3   418  ACP418      0.2570
     20  O2'        2.8200    3.2690   24.9720 O.3   418  ACP418     -0.2130
     21  C1'        5.0270    4.1220   25.2540 C.3   418  ACP418      0.3186
     22  N9         4.9600    5.5180   25.7800 N.pl3 418  ACP418     -0.1439
     23  C8         4.8440    6.7060   25.0930 C.3   418  ACP418      0.3377
     24  N7         4.8110    7.7710   25.8340 N.2   418  ACP418     -0.2095
     25  C5         4.9120    7.2540   27.1120 C.2   418  ACP418      0.2526
     26  C6         4.9370    7.8660   28.4010 C.2   418  ACP418      0.4393
     27  N6         4.8530    9.1810   28.5340 N.pl3 418  ACP418      0.2180
     28  N1         5.0480    7.0740   29.5010 N.2   418  ACP418      0.0021
     29  C2         5.1320    5.7460   29.3510 C.3   418  ACP418      0.5254
     30  N3         5.1200    5.0430   28.2000 N.2   418  ACP418     -0.0055
     31  C4         5.0060    5.8800   27.0980 C.2   418  ACP418      0.3518
@<TRIPOS>BOND
     1    11     9    2
     2     6     5    2
     3     7     5    1
     4     5    12    1
     5     5     8    1
     6     9    12    1
     7     9    10    1
     8     9    13    1
     9    14    13    1
    10    14    15    1
    11     8     1    1
    12    17    18    1
    13    17    15    1
    14    17    19    1
    15    15    16    1
    16    19    20    1
    17    19    21    1
    18     3     1    2
    19    16    21    1
    20     1     4    1
    21     1     2    1
    22    23    22    1
    23    23    24    1
    24    21    22    1
    25    22    31    1
    26    24    25    2
    27    31    25    1
    28    31    30    2
    29    25    26    1
    30    30    29    1
    31    26    27    1
    32    26    28    2
    33    29    28    1
