@<TRIPOS>MOLECULE
1kf0_3PG_A_1.pdb
 11 10 0 0 0
SMALL
GASTEIGER

@<TRIPOS>ATOM
      1  C1        10.0190   -6.6140   10.4810 C.2   417  3PG417      0.3972
      2  O1        10.6630   -5.7290   11.1650 O.co2 417  3PG417     -0.2427
      3  O2         8.7650   -6.8160   10.7150 O.co2 417  3PG417     -0.2427
      4  C2        10.7450   -7.4160    9.3910 C.3   417  3PG417      0.2838
      5  O3         9.9010   -8.4330    8.8690 O.3   417  3PG417     -0.2081
      6  C3        12.0310   -8.0480    9.9540 C.3   417  3PG417      0.1983
      7  O1P       11.7430   -9.0780   10.9260 O.3   417  3PG417     -0.2669
      8  P         12.8460   -9.4700   12.0250 P.3   417  3PG417      0.5327
      9  O2P       13.0680   -8.3290   12.9450 O.3   417  3PG417     -0.1145
     10  O3P       14.1270   -9.8100   11.3650 O.2   417  3PG417     -0.2224
     11  O4P       12.3860  -10.6420   12.8090 O.3   417  3PG417     -0.1145
@<TRIPOS>BOND
     1     5     4    1
     2     4     6    1
     3     4     1    1
     4     6     7    1
     5     1     3   ar
     6     1     2   ar
     7     7     8    1
     8    10     8    2
     9     8    11    1
    10     8     9    1
