@<TRIPOS>MOLECULE
1kf6_HQO_C_1.pdb
 19 20 0 0 0
SMALL
GASTEIGER

@<TRIPOS>ATOM
      1  C1        25.0950   16.1830  -54.7110 C.2   700  HQO700      0.2070
      2  O1        24.3460   16.5860  -55.6420 O.2   700  HQO700     -0.2862
      3  C2        25.9340   17.1060  -54.0530 C.2   700  HQO700      0.1070
      4  C3        26.7890   16.6710  -52.9970 C.2   700  HQO700      0.2078
      5  N1        26.8000   15.3390  -52.6140 N.4   700  HQO700     -0.2146
      6  O4        27.5440   14.9840  -51.6990 O.co2 700  HQO700     -0.5495
      7  C5        25.9890   14.4010  -53.2440 C.ar  700  HQO700      0.2307
      8  C6        26.0070   13.0160  -52.8500 C.ar  700  HQO700      0.0699
      9  C7        25.1750   12.0740  -53.5100 C.ar  700  HQO700      0.0061
     10  C8        24.3120   12.4970  -54.5730 C.ar  700  HQO700      0.0005
     11  C9        24.2760   13.8540  -54.9770 C.ar  700  HQO700      0.0092
     12  C10       25.1060   14.8140  -54.3250 C.ar  700  HQO700      0.1030
     13  C11       27.6270   17.6070  -52.3440 C.3   700  HQO700      0.0974
     14  C12       29.9850   17.7090  -53.2420 C.3   700  HQO700      0.0006
     15  C13       28.5760   18.3220  -53.3330 C.3   700  HQO700      0.0111
     16  C14       30.9470   18.7290  -52.6560 C.3   700  HQO700      0.0000
     17  C15       32.1480   17.9680  -52.1110 C.3   700  HQO700      0.0000
     18  C16       33.3800   18.8790  -52.2700 C.3   700  HQO700      0.0000
     19  C17       34.4870   18.4300  -51.2950 C.3   700  HQO700      0.0000
@<TRIPOS>UNITY_ATOM_ATTR
5 1
charge 1
6 1
charge -1
@<TRIPOS>BOND
     1     2     1    2
     2    11    10   ar
     3    11    12   ar
     4     1    12    1
     5     1     3    1
     6    10     9   ar
     7    12     7   ar
     8     3     4    2
     9     9     8   ar
    10    15    14    1
    11    15    13    1
    12     7     8   ar
    13     7     5    1
    14    14    16    1
    15     4     5    1
    16     4    13    1
    17    16    17    1
    18     5     6    1
    19    18    17    1
    20    18    19    1
