@<TRIPOS>MOLECULE
1kfa_GA4_H_1.pdb
 24 28 0 0 0
SMALL
GASTEIGER

@<TRIPOS>ATOM
      1  C1        50.4710   24.0990   -2.4510 C.3   300  GA4300      0.0427
      2  C2        49.7780   24.5340   -1.1590 C.3   300  GA4300      0.0370
      3  C3        50.6110   25.4610   -0.2280 C.3   300  GA4300      0.1621
      4  O31       50.3650   26.7870   -0.6710 O.3   300  GA4300     -0.2226
      5  C4        52.1830   25.1460   -0.2320 C.3   300  GA4300      0.1212
      6  C5        52.6750   25.1090   -1.7180 C.3   300  GA4300      0.0599
      7  C6        54.1820   24.9240   -2.0110 C.3   300  GA4300      0.1077
      8  C7        54.8220   26.2390   -2.3770 C.2   300  GA4300      0.3645
      9  O71       54.4410   27.1230   -3.1510 O.co2 300  GA4300     -0.2457
     10  O72       56.0050   26.4610   -1.7340 O.co2 300  GA4300     -0.2457
     11  C8        54.3020   23.8260   -3.1170 C.3   300  GA4300      0.0176
     12  C9        52.7950   23.3900   -3.4380 C.3   300  GA4300      0.0376
     13  C10       51.9740   23.8260   -2.2210 C.3   300  GA4300      0.1369
     14  C11       52.5880   21.8740   -3.7270 C.3   300  GA4300      0.0038
     15  C12       53.8190   21.0730   -4.1700 C.3   300  GA4300      0.0041
     16  C13       55.1750   21.7540   -3.8880 C.3   300  GA4300      0.0183
     17  C14       55.1280   22.6070   -2.6040 C.3   300  GA4300      0.0050
     18  C15       55.0300   24.1350   -4.4640 C.3   300  GA4300      0.0226
     19  C16       55.5600   22.7890   -4.9230 C.2   300  GA4300     -0.0446
     20  C17       56.2500   22.5700   -6.0330 C.2   300  GA4300     -0.0091
     21  C18       52.9200   26.1000    0.6910 C.3   300  GA4300      0.0138
     22  C19       52.3150   23.6510    0.1130 C.2   300  GA4300      0.3183
     23  O91       52.4980   23.0350    1.1540 O.2   300  GA4300     -0.2500
     24  O92       52.1750   22.8920   -1.0690 O.3   300  GA4300     -0.4557
@<TRIPOS>BOND
     1    20    19    2
     2    19    18    1
     3    19    16    1
     4    18    11    1
     5    15    16    1
     6    15    14    1
     7    16    17    1
     8    14    12    1
     9    12    11    1
    10    12    13    1
    11     9     8   ar
    12    11    17    1
    13    11     7    1
    14     1    13    1
    15     1     2    1
    16     8     7    1
    17     8    10   ar
    18    13     6    1
    19    13    24    1
    20     7     6    1
    21     6     5    1
    22     2     3    1
    23    24    22    1
    24     4     3    1
    25     5     3    1
    26     5    22    1
    27     5    21    1
    28    22    23    2
