@<TRIPOS>MOLECULE
1kfb_PLP_B_1.pdb
 15 15 0 0 0
SMALL
GASTEIGER

@<TRIPOS>ATOM
      1  N1        84.0830   13.5490   11.9730 N.ar  555  PLP555     -0.2452
      2  C2        84.0250   14.0130   10.6940 C.ar  555  PLP555      0.0978
      3  C2A       85.2430   13.9810    9.8550 C.3   555  PLP555      0.0555
      4  C3        82.8550   14.5670   10.2180 C.ar  555  PLP555      0.2049
      5  O3        82.8010   15.0420    8.9490 O.3   555  PLP555     -0.2857
      6  C4        81.7470   14.6610   11.0380 C.ar  555  PLP555      0.0182
      7  C4A       80.3670   15.1130   10.4170 C.3   555  PLP555      0.0342
      8  C5        81.8320   14.2110   12.3490 C.ar  555  PLP555      0.0261
      9  C6        82.9880   13.6520   12.7910 C.ar  555  PLP555      0.0965
     10  C5A       80.6550   14.4560   13.3810 C.3   555  PLP555      0.1815
     11  O4P       79.4500   13.6990   13.2610 O.3   555  PLP555     -0.2653
     12  P         79.1890   12.3380   13.9550 P.3   555  PLP555      0.5329
     13  O1P       77.8340   12.0860   13.5270 O.3   555  PLP555     -0.1145
     14  O2P       79.2490   12.5470   15.4130 O.3   555  PLP555     -0.1145
     15  O3P       80.1370   11.3670   13.4520 O.2   555  PLP555     -0.2224
@<TRIPOS>BOND
     1     5     4    1
     2     3     2    1
     3     4     2   ar
     4     4     6   ar
     5     7     6    1
     6     2     1   ar
     7     6     8   ar
     8     1     9   ar
     9     8     9   ar
    10     8    10    1
    11    11    10    1
    12    11    12    1
    13    15    12    2
    14    13    12    1
    15    12    14    1
