@<TRIPOS>MOLECULE
1kfb_IGP_A_1.pdb
 19 20 0 0 0
SMALL
GASTEIGER

@<TRIPOS>ATOM
      1  C1        47.6930   28.3620   12.2610 C.3   550  IGP550      0.1894
      2  P         48.0040   29.4100    9.9300 P.3   550  IGP550      0.5327
      3  OP1       49.2350   30.2410   10.4300 O.3   550  IGP550     -0.1145
      4  OP2       46.6870   30.3130   10.0040 O.3   550  IGP550     -0.1145
      5  OP3       48.1700   28.9880    8.4860 O.2   550  IGP550     -0.2224
      6  OP4       47.7460   28.1330   10.8210 O.3   550  IGP550     -0.2674
      7  C2        48.9570   27.7890   12.8490 C.3   550  IGP550      0.2160
      8  O2        50.1070   28.4310   12.2740 O.3   550  IGP550     -0.2173
      9  C3        49.0180   27.9420   14.3720 C.3   550  IGP550      0.2052
     10  O3        47.8660   27.3470   14.9930 O.3   550  IGP550     -0.2157
     11  CG        50.2990   27.2890   14.7650 C.2   550  IGP550      0.0166
     12  CD2       50.6260   25.8340   14.7250 C.3   550  IGP550      0.0843
     13  CE2       52.0370   25.7490   15.1930 C.2   550  IGP550      0.0666
     14  CE3       49.9220   24.5300   14.3470 C.2   550  IGP550     -0.0163
     15  CD1       51.4060   27.9210   15.2150 C.2   550  IGP550      0.0931
     16  NE1       52.4480   26.9570   15.4650 N.2   550  IGP550     -0.2481
     17  CZ2       52.7210   24.5210   15.2900 C.2   550  IGP550      0.0153
     18  CZ3       50.7020   23.2990   14.4790 C.2   550  IGP550     -0.0038
     19  CH2       52.0530   23.3080   14.9340 C.2   550  IGP550      0.0009
@<TRIPOS>BOND
     1     5     2    2
     2     2     4    1
     3     2     3    1
     4     2     6    1
     5     6     1    1
     6     1     7    1
     7     8     7    1
     8     7     9    1
     9    14    18    2
    10    14    12    1
    11     9    11    1
    12     9    10    1
    13    18    19    1
    14    12    11    1
    15    12    13    1
    16    11    15    2
    17    19    17    2
    18    13    17    1
    19    13    16    2
    20    15    16    1
