@<TRIPOS>MOLECULE
1kfc_IPL_A_1.pdb
 17 18 0 0 0
SMALL
GASTEIGER

@<TRIPOS>ATOM
      1  N1        51.6700   27.6080   15.1670 N.2   674  IPL674     -0.2482
      2  C2        50.4270   28.4490   15.2020 C.2   674  IPL674      0.0906
      3  C3        49.2840   27.7130   15.1280 C.2   674  IPL674     -0.0158
      4  C4        49.0530   25.0530   14.9430 C.2   674  IPL674     -0.0164
      5  C5        49.7620   23.8180   14.8670 C.2   674  IPL674     -0.0038
      6  C6        51.1750   23.7880   14.8860 C.2   674  IPL674      0.0009
      7  C7        51.9650   25.0950   14.9910 C.2   674  IPL674      0.0153
      8  C8        51.2600   26.3090   15.0660 C.2   674  IPL674      0.0665
      9  C9        49.7080   26.3310   15.0400 C.3   674  IPL674      0.0819
     10  C1'       47.6420   28.9660   12.6700 C.3   674  IPL674      0.1541
     11  C2'       47.2320   27.9740   13.7310 C.3   674  IPL674      0.0371
     12  C3'       47.8520   28.2020   15.1370 C.3   674  IPL674      0.0269
     13  P         47.6550   29.4640   10.1390 P.3   674  IPL674      0.5326
     14  O1P       48.9690   30.1180   10.4060 O.3   674  IPL674     -0.1145
     15  O2P       46.5390   30.4620   10.0590 O.3   674  IPL674     -0.1145
     16  O3P       47.7000   28.5900    8.9370 O.2   674  IPL674     -0.2224
     17  O4P       47.2830   28.5020   11.3400 O.3   674  IPL674     -0.2702
@<TRIPOS>BOND
     1    16    13    2
     2    15    13    1
     3    13    14    1
     4    13    17    1
     5    17    10    1
     6    10    11    1
     7    11    12    1
     8     5     6    1
     9     5     4    2
    10     6     7    2
    11     4     9    1
    12     7     8    1
    13     9     8    1
    14     9     3    1
    15     8     1    2
    16     3    12    1
    17     3     2    2
    18     1     2    1
