@<TRIPOS>MOLECULE
1kfc_PLP_B_1.pdb
 15 15 0 0 0
SMALL
GASTEIGER

@<TRIPOS>ATOM
      1  N1        83.8390   13.9640   11.9390 N.ar  675  PLP675     -0.2452
      2  C2        83.7920   14.4860   10.6730 C.ar  675  PLP675      0.0978
      3  C2A       85.0720   14.4560    9.7670 C.3   675  PLP675      0.0555
      4  C3        82.6460   15.0850   10.2340 C.ar  675  PLP675      0.2049
      5  O3        82.5960   15.5980    8.9270 O.3   675  PLP675     -0.2857
      6  C4        81.5500   15.1800   11.0510 C.ar  675  PLP675      0.0182
      7  C4A       80.2170   15.7370   10.4810 C.3   675  PLP675      0.0342
      8  C5        81.6160   14.6800   12.3310 C.ar  675  PLP675      0.0261
      9  C6        82.7490   14.0640   12.7530 C.ar  675  PLP675      0.0965
     10  C5A       80.4520   14.9210   13.3440 C.3   675  PLP675      0.1815
     11  O4P       79.2500   14.0950   13.1680 O.3   675  PLP675     -0.2653
     12  P         79.0450   12.7990   13.8450 P.3   675  PLP675      0.5329
     13  O1P       77.6370   12.5110   13.4520 O.3   675  PLP675     -0.1145
     14  O2P       79.9840   11.7430   13.4320 O.2   675  PLP675     -0.2224
     15  O3P       79.1110   13.0000   15.2970 O.3   675  PLP675     -0.1145
@<TRIPOS>BOND
     1     5     4    1
     2     3     2    1
     3     4     2   ar
     4     4     6   ar
     5     7     6    1
     6     2     1   ar
     7     6     8   ar
     8     1     9   ar
     9     8     9   ar
    10     8    10    1
    11    11    10    1
    12    11    12    1
    13    14    12    2
    14    13    12    1
    15    12    15    1
