@<TRIPOS>MOLECULE
1kfd_CTP_A_1.pdb
 28 29 0 0 0
SMALL
GASTEIGER

@<TRIPOS>ATOM
      1  N1        56.4720    1.2070  102.8150 N.am    1  CTP1       -0.1802
      2  C2        56.6790    2.5270  102.4890 C.1     1  CTP1        0.2756
      3  N3        56.4140    3.5160  103.3380 N.2     1  CTP1       -0.3024
      4  C4        55.8990    3.2910  104.5660 C.2     1  CTP1        0.2346
      5  C5        55.6620    1.8810  104.9020 C.2     1  CTP1        0.0687
      6  C6        55.9170    0.8400  104.0900 C.2     1  CTP1        0.0835
      7  O2        57.1960    2.7660  101.2720 O.2     1  CTP1       -0.1925
      8  N4        55.6800    4.3340  105.2970 N.pl3   1  CTP1       -0.0921
      9  C1'       56.5000   -0.0450  101.9830 C.3     1  CTP1        0.2090
     10  C2'       57.5720   -0.9670  102.5880 C.3     1  CTP1        0.0874
     11  C3'       56.7330   -1.9860  103.3310 C.3     1  CTP1        0.1857
     12  C4'       55.4980   -2.0500  102.4790 C.3     1  CTP1        0.1773
     13  O4'       55.3180   -0.7430  101.9090 O.3     1  CTP1       -0.3339
     14  O3'       57.8210   -3.2040  103.5210 O.3     1  CTP1       -0.2203
     15  C5'       54.2880   -2.3530  103.3150 C.3     1  CTP1        0.1812
     16  O5'       53.1390   -2.4350  102.5180 O.3     1  CTP1       -0.3112
     17  PA        52.5490   -3.8700  102.3630 P.3     1  CTP1        0.2189
     18  O1A       53.4950   -4.8670  102.9070 O.3     1  CTP1       -0.4371
     19  O2A       52.2940   -4.1620  100.9340 O.2     1  CTP1       -0.5170
     20  O3A       51.2720   -3.7830  103.1620 O.3     1  CTP1       -0.2700
     21  PB        50.7740   -4.7170  104.3810 P.3     1  CTP1        0.2277
     22  O1B       51.8060   -5.7350  104.6810 O.3     1  CTP1       -0.4368
     23  O2B       49.5150   -5.3990  104.0130 O.2     1  CTP1       -0.5168
     24  O3B       50.6160   -3.6410  105.4830 O.3     1  CTP1       -0.2258
     25  PG        50.1530   -3.7240  107.0570 P.3     1  CTP1        0.5373
     26  O1G       49.9310   -5.1340  107.4490 O.3     1  CTP1       -0.1143
     27  O2G       51.2040   -3.1440  107.9240 O.3     1  CTP1       -0.1143
     28  O3G       48.8760   -2.9030  107.1480 O.2     1  CTP1       -0.2221
@<TRIPOS>BOND
     1    19    17    2
     2     7     2    2
     3    13     9    1
     4    13    12    1
     5     9    10    1
     6     9     1    1
     7    17    16    1
     8    17    18    1
     9    17    20    1
    10    12    15    1
    11    12    11    1
    12     2     1   am
    13     2     3    2
    14    16    15    1
    15    10    11    1
    16     1     6    1
    17    20    21    1
    18    11    14    1
    19     3     4    2
    20    23    21    2
    21     6     5    2
    22    21    22    1
    23    21    24    1
    24     4     5    1
    25     4     8    1
    26    24    25    1
    27    25    28    2
    28    25    26    1
    29    25    27    1
