@<TRIPOS>MOLECULE
1kfe_PLS_B_1.pdb
 22 22 0 0 0
SMALL
GASTEIGER

@<TRIPOS>ATOM
      1  N         79.7690   15.1800   10.2540 N.2   550  PLS550     -0.2567
      2  CA        78.4010   15.7480   10.1660 C.3   550  PLS550      0.2384
      3  CB        77.9840   16.9270   11.0340 C.3   550  PLS550      0.2178
      4  OG        78.6700   18.1410   10.7660 O.3   550  PLS550     -0.2176
      5  C         78.0970   16.1360    8.6460 C.2   550  PLS550      0.3893
      6  O         78.9560   15.9600    7.7870 O.co2 550  PLS550     -0.2434
      7  OXT       76.9920   16.6290    8.2930 O.co2 550  PLS550     -0.2434
      8  N1        84.0170   12.2520   11.7130 N.ar  550  PLS550     -0.2452
      9  C2        83.8860   12.8810   10.4530 C.ar  550  PLS550      0.0981
     10  C2A       84.9910   12.7980    9.4570 C.3   550  PLS550      0.0555
     11  C3        82.6200   13.6220   10.1830 C.ar  550  PLS550      0.2103
     12  O3        82.2920   14.2920    9.0400 O.3   550  PLS550     -0.2853
     13  C4        81.5730   13.6270   11.2930 C.ar  550  PLS550      0.0587
     14  C4A       80.2480   14.3310   11.1310 C.2   550  PLS550      0.0968
     15  C5        81.8130   12.9550   12.5510 C.ar  550  PLS550      0.0316
     16  C6        83.0620   12.2510   12.7490 C.ar  550  PLS550      0.0968
     17  C5A       80.7700   12.9760   13.6680 C.3   550  PLS550      0.1819
     18  O4P       79.5690   12.2400   13.4310 O.3   550  PLS550     -0.2653
     19  P         79.3720   10.8180   13.8460 P.3   550  PLS550      0.5329
     20  O1P       79.4400   10.8920   15.3400 O.3   550  PLS550     -0.1145
     21  O2P       78.0370   10.5190   13.4260 O.2   550  PLS550     -0.2224
     22  O3P       80.2340    9.7360   13.5120 O.3   550  PLS550     -0.1145
@<TRIPOS>BOND
     1     6     5   ar
     2     7     5   ar
     3     5     2    1
     4    12    11    1
     5    10     9    1
     6     2     1    1
     7     2     3    1
     8    11     9   ar
     9    11    13   ar
    10     1    14    2
    11     9     8   ar
    12     4     3    1
    13    14    13    1
    14    13    15   ar
    15     8    16   ar
    16    15    16   ar
    17    15    17    1
    18    21    19    2
    19    18    17    1
    20    18    19    1
    21    22    19    1
    22    19    20    1
