@<TRIPOS>MOLECULE
1kfg_SGC_A_1.pdb
 11 11 0 0 0
SMALL
GASTEIGER

@<TRIPOS>ATOM
      1  C1         0.9240    4.5080   71.6120 C.3   615  SGC615      0.1776
      2  C2         1.1100    5.1860   72.9690 C.3   615  SGC615      0.2124
      3  O2         0.9120    6.5620   72.8290 O.3   615  SGC615     -0.2177
      4  C3         2.5230    4.9170   73.4930 C.3   615  SGC615      0.1977
      5  O3         2.6690    5.4620   74.7720 O.3   615  SGC615     -0.2193
      6  C4         2.7940    3.4080   73.5310 C.3   615  SGC615      0.1206
      7  C5         2.5550    2.8420   72.1250 C.3   615  SGC615      0.1614
      8  O5         1.1920    3.0990   71.7180 O.3   615  SGC615     -0.3498
      9  C6         2.8070    1.3470   72.0050 C.3   615  SGC615      0.2124
     10  O6         1.7780    0.5930   72.6250 O.3   615  SGC615     -0.2177
     11  S4         4.4540    3.0190   74.1540 S.3   615  SGC615     -0.0777
@<TRIPOS>BOND
     1     1     8    1
     2     1     2    1
     3     8     7    1
     4     9     7    1
     5     9    10    1
     6     7     6    1
     7     3     2    1
     8     2     4    1
     9     4     6    1
    10     4     5    1
    11     6    11    1
