@<TRIPOS>MOLECULE
1kfg_BGC_A_1.pdb
 11 11 0 0 0
SMALL
GASTEIGER

@<TRIPOS>ATOM
      1  C2        -2.1030    3.2760   68.1230 C.3   616  BGC616      0.2141
      2  C3        -1.7940    3.4830   69.6100 C.3   616  BGC616      0.2173
      3  C4        -0.6120    4.4350   69.7770 C.3   616  BGC616      0.2142
      4  C5        -0.9280    5.7420   69.0560 C.3   616  BGC616      0.1810
      5  C6         0.1640    6.7970   69.1940 C.3   616  BGC616      0.2141
      6  C1        -2.2360    4.6230   67.3740 C.3   616  BGC616      0.1777
      7  O2        -3.2950    2.5550   68.0040 O.3   616  BGC616     -0.2176
      8  O3        -1.5030    2.2540   70.2090 O.3   616  BGC616     -0.2175
      9  O4        -0.3790    4.6860   71.1750 O.3   616  BGC616     -0.2176
     10  O5        -1.1110    5.4800   67.6480 O.3   616  BGC616     -0.3481
     11  O6         1.4120    6.3340   68.6930 O.3   616  BGC616     -0.2176
@<TRIPOS>BOND
     1     6    10    1
     2     6     1    1
     3    10     4    1
     4     7     1    1
     5     1     2    1
     6    11     5    1
     7     4     5    1
     8     4     3    1
     9     2     3    1
    10     2     8    1
    11     3     9    1
