@<TRIPOS>MOLECULE
1kfg_GS1_A_1.pdb
 12 12 0 0 0
SMALL
GASTEIGER

@<TRIPOS>ATOM
      1  C1        -7.7250   10.3950   60.2950 C.3   618  GS1618      0.2051
      2  S1        -9.0310   10.3780   59.0220 S.3   618  GS1618     -0.0481
      3  C2        -8.1820    9.5730   61.5080 C.3   618  GS1618      0.2227
      4  O2        -9.2910   10.1850   62.0990 O.3   618  GS1618     -0.2167
      5  C3        -7.0520    9.4770   62.5340 C.3   618  GS1618      0.2181
      6  O3        -7.4150    8.5890   63.5490 O.3   618  GS1618     -0.2175
      7  C4        -5.7440    9.0040   61.8860 C.3   618  GS1618      0.2143
      8  O4        -4.6680    9.1300   62.8440 O.3   618  GS1618     -0.2176
      9  C5        -5.4280    9.8410   60.6370 C.3   618  GS1618      0.1820
     10  O5        -6.5450    9.8200   59.7250 O.3   618  GS1618     -0.3390
     11  C6        -4.2260    9.3230   59.8720 C.3   618  GS1618      0.2142
     12  O6        -3.0360    9.4910   60.6240 O.3   618  GS1618     -0.2176
@<TRIPOS>BOND
     1     2     1    1
     2    10     1    1
     3    10     9    1
     4    11    12    1
     5    11     9    1
     6     1     3    1
     7     9     7    1
     8     3     4    1
     9     3     5    1
    10     7     5    1
    11     7     8    1
    12     5     6    1
