@<TRIPOS>MOLECULE
1kfj_PLS_B_1.pdb
 22 22 0 0 0
SMALL
GASTEIGER

@<TRIPOS>ATOM
      1  N         80.4300   16.2050   10.2960 N.2   400  PLS400     -0.2567
      2  CA        79.0230   16.5140   10.0230 C.3   400  PLS400      0.2384
      3  CB        78.4850   17.3810   11.1560 C.3   400  PLS400      0.2178
      4  OG        79.0400   18.6830   10.8350 O.3   400  PLS400     -0.2176
      5  C         78.6670   16.9910    8.6310 C.2   400  PLS400      0.3893
      6  O         79.7040   16.9490    7.8810 O.co2 400  PLS400     -0.2434
      7  OXT       77.4290   17.3830    8.3410 O.co2 400  PLS400     -0.2434
      8  N1        84.5630   13.0620   11.6840 N.ar  400  PLS400     -0.2452
      9  C2        84.3310   13.7200   10.5900 C.ar  400  PLS400      0.0981
     10  C2A       85.5220   13.6710    9.6750 C.3   400  PLS400      0.0555
     11  C3        83.1580   14.4130   10.4160 C.ar  400  PLS400      0.2103
     12  O3        82.8610   15.1790    9.3720 O.3   400  PLS400     -0.2853
     13  C4        82.1650   14.4500   11.4010 C.ar  400  PLS400      0.0587
     14  C4A       80.8370   15.1710   11.2170 C.2   400  PLS400      0.0968
     15  C5        82.3730   13.6950   12.5240 C.ar  400  PLS400      0.0316
     16  C6        83.5770   13.0260   12.6200 C.ar  400  PLS400      0.0968
     17  C5A       81.2930   13.6470   13.6640 C.3   400  PLS400      0.1819
     18  O4P       80.0720   12.9570   13.3110 O.3   400  PLS400     -0.2653
     19  P         79.7560   11.6150   14.0040 P.3   400  PLS400      0.5329
     20  O1P       79.9790   11.7400   15.4720 O.3   400  PLS400     -0.1145
     21  O2P       78.4200   11.3660   13.5350 O.2   400  PLS400     -0.2224
     22  O3P       80.7620   10.6130   13.6400 O.3   400  PLS400     -0.1145
@<TRIPOS>BOND
     1     6     5   ar
     2     7     5   ar
     3     5     2    1
     4    12    11    1
     5    10     9    1
     6     2     1    1
     7     2     3    1
     8     1    14    2
     9    11     9   ar
    10    11    13   ar
    11     9     8   ar
    12     4     3    1
    13    14    13    1
    14    13    15   ar
    15     8    16   ar
    16    15    16   ar
    17    15    17    1
    18    18    17    1
    19    18    19    1
    20    21    19    2
    21    22    19    1
    22    19    20    1
