@<TRIPOS>MOLECULE
1kfk_PLP_B_1.pdb
 15 15 0 0 0
SMALL
GASTEIGER

@<TRIPOS>ATOM
      1  N1        84.7340   13.8900   12.1440 N.ar  400  PLP400     -0.2452
      2  C2        84.7440   14.3430   10.8540 C.ar  400  PLP400      0.0978
      3  C2A       86.0130   14.2140   10.0140 C.3   400  PLP400      0.0555
      4  C3        83.6150   14.9190   10.3220 C.ar  400  PLP400      0.2049
      5  O3        83.6280   15.4110    9.0230 O.3   400  PLP400     -0.2857
      6  C4        82.4790   15.0380   11.0820 C.ar  400  PLP400      0.0182
      7  C4A       81.1500   15.5810   10.4080 C.3   400  PLP400      0.0342
      8  C5        82.4810   14.5960   12.3910 C.ar  400  PLP400      0.0261
      9  C6        83.6070   14.0190   12.9100 C.ar  400  PLP400      0.0965
     10  C5A       81.2310   14.8240   13.3260 C.3   400  PLP400      0.1815
     11  O4P       80.1380   13.9340   13.1200 O.3   400  PLP400     -0.2653
     12  P         79.7630   12.6550   13.9650 P.3   400  PLP400      0.5329
     13  O1P       78.3630   12.4090   13.5470 O.3   400  PLP400     -0.1145
     14  O2P       79.9360   13.1240   15.3610 O.3   400  PLP400     -0.1145
     15  O3P       80.7420   11.6310   13.5080 O.2   400  PLP400     -0.2224
@<TRIPOS>BOND
     1     5     4    1
     2     3     2    1
     3     4     2   ar
     4     4     6   ar
     5     7     6    1
     6     2     1   ar
     7     6     8   ar
     8     1     9   ar
     9     8     9   ar
    10     8    10    1
    11    11    10    1
    12    11    12    1
    13    15    12    2
    14    13    12    1
    15    12    14    1
