@<TRIPOS>MOLECULE
1kfl_PHE_A_1.pdb
 12 12 0 0 0
SMALL
GASTEIGER

@<TRIPOS>ATOM
      1  N         11.8060   46.9540   69.2300 N.3   1354  PHE1354    -0.1205
      2  CA        12.8840   47.3570   70.1120 C.3   1354  PHE1354     0.1986
      3  C         12.4390   48.4190   71.0990 C.2   1354  PHE1354     0.3822
      4  O         13.2670   48.8060   71.9940 O.co2 1354  PHE1354    -0.2440
      5  CB        14.0880   47.8360   69.3050 C.3   1354  PHE1354     0.0569
      6  CG        14.7940   46.9250   68.3590 C.ar  1354  PHE1354    -0.0202
      7  CD1       14.4610   46.7680   66.9930 C.ar  1354  PHE1354    -0.0042
      8  CD2       15.8760   46.1640   68.8710 C.ar  1354  PHE1354    -0.0042
      9  CE1       15.2110   45.8640   66.1810 C.ar  1354  PHE1354    -0.0003
     10  CE2       16.6360   45.2610   68.0920 C.ar  1354  PHE1354    -0.0003
     11  CZ        16.2990   45.1080   66.7250 C.ar  1354  PHE1354    -0.0000
     12  OXT       11.2780   48.9140   71.0260 O.co2 1354  PHE1354    -0.2440
@<TRIPOS>BOND
     1     9    11   ar
     2     9     7   ar
     3    11    10   ar
     4     7     6   ar
     5    10     8   ar
     6     6     8   ar
     7     6     5    1
     8     1     2    1
     9     5     2    1
    10     2     3    1
    11    12     3   ar
    12     3     4   ar
