@<TRIPOS>MOLECULE
1kfl_PEP_A_1.pdb
 10 9 0 0 0
SMALL
GASTEIGER

@<TRIPOS>ATOM
      1  C1        27.5150   41.6960   87.2900 C.2   1352  PEP1352     0.4216
      2  O1        28.7080   41.3900   86.8960 O.co2 1352  PEP1352    -0.2371
      3  O2'       27.3100   42.4530   88.1930 O.co2 1352  PEP1352    -0.2371
      4  C2        26.3870   41.0240   86.5210 C.2   1352  PEP1352     0.2283
      5  C3        26.4550   40.1520   85.4740 C.2   1352  PEP1352     0.0477
      6  O2        25.1170   41.3750   86.9940 O.2   1352  PEP1352    -0.3930
      7  P         23.7520   41.4390   86.1780 P.3   1352  PEP1352     0.5889
      8  O1P       22.7720   42.2850   87.0440 O.3   1352  PEP1352    -0.1039
      9  O2P       23.3140   40.0080   86.0240 O.3   1352  PEP1352    -0.1039
     10  O3P       24.0620   42.1940   84.9200 O.2   1352  PEP1352    -0.2114
@<TRIPOS>BOND
     1    10     7    2
     2     5     4    2
     3     9     7    1
     4     7     6    1
     5     7     8    1
     6     4     6    1
     7     4     1    1
     8     2     1   ar
     9     1     3   ar
