@<TRIPOS>MOLECULE
1kfr_HEM_A_1.pdb
 43 50 0 0 0
SMALL
GASTEIGER

@<TRIPOS>ATOM
      1 FE         29.7950   19.2610   42.9930 Fe    148  HEM148      0.0000
      2  CHA       32.6560   18.6280   41.1990 C.2   148  HEM148      0.0000
      3  CHB       27.9330   18.8020   40.1700 C.2   148  HEM148      0.0000
      4  CHC       26.9090   19.9780   44.7130 C.2   148  HEM148      0.0000
      5  CHD       31.5910   19.7080   45.8390 C.2   148  HEM148      0.0000
      6  NA        30.2320   18.8810   41.0460 N.ar  148  HEM148      0.0000
      7  C1A       31.4640   18.5540   40.5140 C.ar  148  HEM148      0.0000
      8  C2A       31.2860   18.1650   39.1300 C.ar  148  HEM148      0.0000
      9  C3A       29.9760   18.2260   38.8580 C.ar  148  HEM148      0.0000
     10  C4A       29.2880   18.6340   40.0710 C.ar  148  HEM148      0.0000
     11  CMA       29.2850   17.8800   37.5180 C.3   148  HEM148      0.0000
     12  CAA       32.3990   17.6990   38.1530 C.3   148  HEM148      0.0000
     13  CBA       33.0120   18.8890   37.4340 C.3   148  HEM148      0.0000
     14  CGA       34.3700   18.2480   36.5060 C.2   148  HEM148      0.0000
     15  O1A       34.0350   18.0220   35.3280 O.co2 148  HEM148      0.0000
     16  O2A       35.5380   18.0950   36.9070 O.co2 148  HEM148      0.0000
     17  NB        27.8000   19.3870   42.5320 N.2   148  HEM148      0.0000
     18  C1B       27.2340   19.1080   41.3120 C.2   148  HEM148      0.0000
     19  C2B       25.7990   19.1690   41.4350 C.2   148  HEM148      0.0000
     20  C3B       25.5110   19.4840   42.7040 C.2   148  HEM148      0.0000
     21  C4B       26.7700   19.6340   43.4000 C.2   148  HEM148      0.0000
     22  CMB       24.8000   18.9330   40.2830 C.3   148  HEM148      0.0000
     23  CAB       24.1180   19.6960   43.3340 C.2   148  HEM148      0.0000
     24  CBB       23.1880   20.4070   42.6860 C.2   148  HEM148      0.0000
     25  NC        29.3390   19.7100   44.8910 N.ar  148  HEM148      0.0000
     26  C1C       28.0980   20.0330   45.3920 C.ar  148  HEM148      0.0000
     27  C2C       28.2320   20.3660   46.7950 C.ar  148  HEM148      0.0000
     28  C3C       29.5250   20.3610   47.0900 C.ar  148  HEM148      0.0000
     29  C4C       30.2450   19.9130   45.9100 C.ar  148  HEM148      0.0000
     30  CMC       27.1120   20.9070   47.7160 C.3   148  HEM148      0.0000
     31  CAC       30.1300   20.6780   48.4730 C.2   148  HEM148      0.0000
     32  CBC       30.2900   19.7090   49.3760 C.2   148  HEM148      0.0000
     33  ND        31.7670   19.2210   43.4440 N.2   148  HEM148      0.0000
     34  C1D       32.3000   19.3880   44.7160 C.2   148  HEM148      0.0000
     35  C2D       33.7240   19.1420   44.6840 C.2   148  HEM148      0.0000
     36  C3D       34.0360   18.7940   43.2420 C.2   148  HEM148      0.0000
     37  C4D       32.7810   18.8850   42.5420 C.2   148  HEM148      0.0000
     38  CMD       34.7280   19.2140   45.8640 C.3   148  HEM148      0.0000
     39  CAD       35.3910   18.4170   42.6270 C.3   148  HEM148      0.0000
     40  CBD       36.0610   19.6980   42.1650 C.3   148  HEM148      0.0000
     41  CGD       37.3850   18.8490   41.2700 C.2   148  HEM148      0.0000
     42  O1D       38.0300   19.6380   40.5570 O.co2 148  HEM148      0.0000
     43  O2D       37.6860   17.6290   41.3450 O.co2 148  HEM148      0.0000
@<TRIPOS>BOND
     1    15    14   ar
     2    14    16   ar
     3    14    13    1
     4    13    12    1
     5    11     9    1
     6    12     8    1
     7     9     8   ar
     8     9    10   ar
     9     8     7   ar
    10    10     3    2
    11    10     6   ar
    12     3    18    1
    13    22    19    1
    14     7     6   ar
    15     7     2    2
    16    42    41   ar
    17     6     1    1
    18     2    37    1
    19    41    43   ar
    20    41    40    1
    21    18    19    1
    22    18    17    2
    23    19    20    2
    24    40    39    1
    25    17     1    1
    26    17    21    1
    27    37    36    1
    28    37    33    2
    29    39    36    1
    30    24    23    2
    31    20    23    1
    32    20    21    1
    33     1    33    1
    34     1    25    1
    35    36    35    2
    36    21     4    2
    37    33    34    1
    38    35    34    1
    39    35    38    1
    40     4    26    1
    41    34     5    2
    42    25    26   ar
    43    25    29   ar
    44    26    27   ar
    45     5    29    1
    46    29    28   ar
    47    27    28   ar
    48    27    30    1
    49    28    31    1
    50    31    32    2
