@<TRIPOS>MOLECULE
1kfy_BRS_B_1.pdb
 22 23 0 0 0
SMALL
GASTEIGER

@<TRIPOS>ATOM
      1  N1        25.3350   14.7020  -52.6310 N.pl3 700  BRS700      0.0609
      2  O2        25.4160   13.6360  -51.9960 O.2   700  BRS700     -0.1260
      3  O3        24.4050   14.7850  -53.4360 O.2   700  BRS700     -0.1260
      4  N4        26.6160   19.3300  -54.1660 N.pl3 700  BRS700      0.0577
      5  O5        27.3360   20.3430  -54.1610 O.2   700  BRS700     -0.1261
      6  O6        25.6620   19.3360  -54.9310 O.2   700  BRS700     -0.1261
      7  C7        26.0690   16.9970  -53.2970 C.ar  700  BRS700      0.0514
      8  C8        26.8970   18.1150  -53.2590 C.ar  700  BRS700      0.1444
      9  C9        27.9910   18.1170  -52.3950 C.ar  700  BRS700      0.0234
     10  C10       28.2620   17.0100  -51.5580 C.ar  700  BRS700      0.0238
     11  C11       27.4520   15.8860  -51.5780 C.ar  700  BRS700      0.2143
     12  C12       26.3150   15.8770  -52.4740 C.ar  700  BRS700      0.1829
     13  O13       27.7670   14.8180  -50.7240 O.3   700  BRS700     -0.2851
     14  C14       31.1630   16.3180  -52.4580 C.ar  700  BRS700     -0.0031
     15  C15       30.7940   17.2530  -51.4560 C.ar  700  BRS700     -0.0183
     16  C16       31.6760   18.3560  -51.2570 C.ar  700  BRS700     -0.0031
     17  C17       32.9040   18.4940  -52.0540 C.ar  700  BRS700      0.0111
     18  C18       33.2360   17.5080  -53.0570 C.ar  700  BRS700      0.0577
     19  C19       32.3560   16.4480  -53.2330 C.ar  700  BRS700      0.0111
     20 CL20       34.7260   17.5660  -54.0890 Cl    700  BRS700     -0.0822
     21  C21       29.4610   17.0260  -50.6320 C.3   700  BRS700      0.0478
     22  C22       29.2310   18.1050  -49.5920 C.3   700  BRS700      0.0095
@<TRIPOS>BOND
     1     6     4    2
     2     4     5    2
     3     4     8    1
     4    20    18    1
     5     3     1    2
     6     7     8   ar
     7     7    12   ar
     8     8     9   ar
     9    19    18   ar
    10    19    14   ar
    11    18    17   ar
    12     1    12    1
    13     1     2    2
    14    12    11   ar
    15    14    15   ar
    16     9    10   ar
    17    17    16   ar
    18    11    10   ar
    19    11    13    1
    20    10    21    1
    21    15    16   ar
    22    15    21    1
    23    21    22    1
