@<TRIPOS>MOLECULE
1kg8_RET_A_1.pdb
 20 20 0 0 0
SMALL
GASTEIGER

@<TRIPOS>ATOM
      1  C1        14.9200   44.9890    0.4160 C.3   301  RET301      0.0183
      2  C2        14.3700   45.8830   -0.6830 C.3   301  RET301      0.0044
      3  C3        14.9600   47.2360   -0.7460 C.3   301  RET301      0.0047
      4  C4        14.8540   47.9460    0.5810 C.3   301  RET301      0.0217
      5  C5        15.2480   47.0790    1.7560 C.2   301  RET301     -0.0479
      6  C6        15.3260   45.7530    1.6930 C.2   301  RET301     -0.0307
      7  C7        15.6840   45.0290    2.9270 C.2   301  RET301     -0.0052
      8  C8        15.9440   43.7310    3.1230 C.2   301  RET301     -0.0046
      9  C9        16.4240   43.0990    4.3410 C.2   301  RET301     -0.0219
     10  C10       16.7160   41.7750    4.4060 C.2   301  RET301     -0.0043
     11  C11       17.1340   41.0340    5.6020 C.2   301  RET301     -0.0007
     12  C12       17.2750   39.6820    5.4400 C.2   301  RET301     -0.0046
     13  C13       17.6460   38.8870    6.6260 C.2   301  RET301     -0.0261
     14  C14       17.7330   37.5440    6.5350 C.2   301  RET301     -0.0300
     15  C15       17.3840   36.6690    5.4060 C.3   301  RET301      0.0304
     16  C16       13.7260   44.0370    0.7010 C.3   301  RET301      0.0043
     17  C17       16.1410   44.2240   -0.1830 C.3   301  RET301      0.0043
     18  C18       15.6180   47.9260    2.9540 C.3   301  RET301      0.0260
     19  C19       16.7140   43.9530    5.5380 C.3   301  RET301      0.0310
     20  C20       18.3160   39.4060    7.8810 C.3   301  RET301      0.0307
@<TRIPOS>BOND
     1     3     2    1
     2     3     4    1
     3     2     1    1
     4    17     1    1
     5     1    16    1
     6     1     6    1
     7     4     5    1
     8     6     5    2
     9     6     7    1
    10     5    18    1
    11     7     8    2
    12     8     9    1
    13     9    10    2
    14     9    19    1
    15    10    11    1
    16    15    14    1
    17    12    11    2
    18    12    13    1
    19    14    13    2
    20    13    20    1
