@<TRIPOS>MOLECULE
1kg9_RET_A_1.pdb
 20 20 0 0 0
SMALL
GASTEIGER

@<TRIPOS>ATOM
      1  C1        14.9930   45.3410    0.1640 C.3   301  RET301      0.0037
      2  C2        14.6850   46.2430   -1.0180 C.3   301  RET301      0.0003
      3  C3        14.1970   47.5920   -0.7060 C.3   301  RET301      0.0000
      4  C4        14.9850   48.2850    0.3740 C.3   301  RET301      0.0003
      5  C5        15.1410   47.3990    1.5920 C.3   301  RET301      0.0040
      6  C6        15.3420   46.0790    1.4680 C.3   301  RET301      0.0220
      7  C7        15.5700   45.3340    2.7110 C.2   301  RET301     -0.0268
      8  C8        15.7970   44.0270    2.9290 C.2   301  RET301     -0.0092
      9  C9        16.2970   43.3580    4.1190 C.2   301  RET301     -0.0261
     10  C10       16.5450   42.0260    3.9800 C.2   301  RET301     -0.0257
     11  C11       17.0030   41.1840    5.0940 C.3   301  RET301      0.0510
     12  C12       17.2360   39.8620    4.8350 C.2   301  RET301     -0.0299
     13  C13       17.5760   38.8640    5.8520 C.2   301  RET301     -0.0478
     14  C14       17.6870   37.5980    5.4180 C.3   301  RET301      0.0217
     15  C15       17.2800   36.3960    6.1570 C.3   301  RET301      0.0047
     16  C16       13.7190   44.4820    0.4040 C.3   301  RET301      0.0003
     17  C17       16.1790   44.4410   -0.3160 C.3   301  RET301      0.0003
     18  C18       15.2850   48.1910    2.8580 C.3   301  RET301      0.0003
     19  C19       16.6120   44.0310    5.4140 C.3   301  RET301      0.0307
     20  C20       17.9280   39.3130    7.2480 C.3   301  RET301      0.0260
@<TRIPOS>BOND
     1     2     3    1
     2     2     1    1
     3     3     4    1
     4    17     1    1
     5     1    16    1
     6     1     6    1
     7     4     5    1
     8     6     5    1
     9     6     7    1
    10     5    18    1
    11     7     8    2
    12     8     9    1
    13    10     9    2
    14    10    11    1
    15     9    19    1
    16    12    11    1
    17    12    13    2
    18    14    13    1
    19    14    15    1
    20    13    20    1
