@<TRIPOS>MOLECULE
1kgb_RET_A_1.pdb
 20 20 0 0 0
SMALL
GASTEIGER

@<TRIPOS>ATOM
      1  C1        14.9230   45.3870    0.2140 C.3   301  RET301      0.0037
      2  C2        14.6510   46.2440   -1.0020 C.3   301  RET301      0.0003
      3  C3        14.1420   47.6070   -0.7610 C.3   301  RET301      0.0000
      4  C4        14.9190   48.2800    0.3410 C.3   301  RET301      0.0003
      5  C5        14.9980   47.4730    1.6050 C.3   301  RET301      0.0040
      6  C6        15.2160   46.1220    1.5210 C.3   301  RET301      0.0220
      7  C7        15.5500   45.4290    2.7440 C.2   301  RET301     -0.0268
      8  C8        15.8060   44.1100    2.9490 C.2   301  RET301     -0.0092
      9  C9        16.2620   43.4550    4.1700 C.2   301  RET301     -0.0264
     10  C10       16.4320   42.1060    4.0440 C.2   301  RET301     -0.0300
     11  C11       16.8600   41.2780    5.1800 C.3   301  RET301      0.0300
     12  C12       17.1290   39.9680    4.7860 C.3   301  RET301      0.0264
     13  C13       17.5700   39.0500    5.8170 C.2   301  RET301     -0.0478
     14  C14       17.4910   37.7570    5.3280 C.2   301  RET301     -0.0342
     15  C15       17.5900   36.5360    6.0930 C.3   301  RET301      0.0300
     16  C16       13.6990   44.4260    0.4260 C.3   301  RET301      0.0003
     17  C17       16.1040   44.4660   -0.2960 C.3   301  RET301      0.0003
     18  C18       15.1690   48.2550    2.8750 C.3   301  RET301      0.0003
     19  C19       16.5290   44.1220    5.4630 C.3   301  RET301      0.0307
     20  C20       17.9480   39.4000    7.1710 C.3   301  RET301      0.0260
@<TRIPOS>BOND
     1     2     3    1
     2     2     1    1
     3     3     4    1
     4    17     1    1
     5     1    16    1
     6     1     6    1
     7     4     5    1
     8     6     5    1
     9     6     7    1
    10     5    18    1
    11     7     8    2
    12     8     9    1
    13    10     9    2
    14    10    11    1
    15     9    19    1
    16    12    11    1
    17    12    13    1
    18    14    13    2
    19    14    15    1
    20    13    20    1
