@<TRIPOS>MOLECULE
1kgi_T4A_C_1.pdb
 22 23 0 0 0
SMALL
GASTEIGER

@<TRIPOS>ATOM
      1  C1        31.1960   77.6040   40.6600 C.ar  128  T4A128     -0.0099
      2  C2        30.3770   77.4670   41.7540 C.ar  128  T4A128      0.0051
      3  C3        30.3580   76.2290   42.4360 C.ar  128  T4A128      0.0647
      4  C4        31.1380   75.1630   42.0290 C.ar  128  T4A128      0.1558
      5  C5        31.9530   75.3040   40.9240 C.ar  128  T4A128      0.0647
      6  C6        31.9960   76.5450   40.2120 C.ar  128  T4A128      0.0051
      7  C7        31.2230   78.9390   39.9520 C.3   128  T4A128      0.1404
      8  C8        32.3140   79.9010   40.3450 C.2   128  T4A128      0.3692
      9  C1'       30.2540   72.9370   42.4280 C.ar  128  T4A128      0.1464
     10  C6'       29.3410   72.9950   41.3510 C.ar  128  T4A128      0.0465
     11  C5'       28.5040   71.8570   41.1360 C.ar  128  T4A128      0.0724
     12  C4'       28.5680   70.7120   41.9520 C.ar  128  T4A128      0.2064
     13  C3'       29.4960   70.7240   43.0010 C.ar  128  T4A128      0.0724
     14  C2'       30.3400   71.8170   43.2530 C.ar  128  T4A128      0.0465
     15  I3        29.0960   76.0730   44.0890 I     128  T4A128     -0.0393
     16  I5        33.1570   73.6890   40.2560 I     128  T4A128     -0.0393
     17  I5'       27.1450   71.9460   39.5300 I     128  T4A128     -0.0391
     18  I3'       29.7130   69.0970   44.3040 I     128  T4A128     -0.0391
     19  O8        33.1770   79.5440   41.1920 O.co2 128  T4A128     -0.2453
     20  O9        32.3490   81.0450   39.8080 O.co2 128  T4A128     -0.2453
     21  O4        31.1050   73.9740   42.7250 O.3   128  T4A128     -0.4526
     22  O4'       27.7570   69.6330   41.7300 O.3   128  T4A128     -0.2857
@<TRIPOS>BOND
     1    17    11    1
     2    20     8   ar
     3     7     8    1
     4     7     1    1
     5     6     1   ar
     6     6     5   ar
     7    16     5    1
     8     8    19   ar
     9     1     2   ar
    10     5     4   ar
    11    11    10   ar
    12    11    12   ar
    13    10     9   ar
    14    22    12    1
    15     2     3   ar
    16    12    13   ar
    17     4     3   ar
    18     4    21    1
    19     9    21    1
    20     9    14   ar
    21     3    15    1
    22    13    14   ar
    23    13    18    1
