@<TRIPOS>MOLECULE
1kgj_FL8_B_1.pdb
 22 24 0 0 0
SMALL
GASTEIGER

@<TRIPOS>ATOM
      1 BR3        42.0240   86.3210   42.2340 Br    328  FL8328     -0.0457
      2 BR5        37.3810   89.3440   42.2800 Br    328  FL8328     -0.0457
      3  O1        43.2830   91.5840   41.4450 O.2   328  FL8328     -0.4536
      4  C2        42.2670   91.7310   42.3840 C.ar  328  FL8328      0.1443
      5  C3        42.1780   92.8580   43.1380 C.ar  328  FL8328      0.0516
      6  C4        43.1460   93.9500   43.0120 C.ar  328  FL8328      0.1976
      7  C4A       44.2090   93.7670   42.0150 C.ar  328  FL8328      0.0764
      8  C5        45.2000   94.7480   41.7920 C.ar  328  FL8328      0.0483
      9  C6        46.1930   94.5220   40.8280 C.ar  328  FL8328      0.1960
     10  C7        46.1820   93.3280   40.1010 C.ar  328  FL8328      0.0452
     11  C8        45.2050   92.3620   40.3190 C.ar  328  FL8328      0.0409
     12  C8A       44.2290   92.5890   41.2730 C.ar  328  FL8328      0.1485
     13  C1'       41.4020   90.4550   42.3380 C.ar  328  FL8328      0.0355
     14  C2'       42.0140   89.1870   42.3100 C.ar  328  FL8328      0.0130
     15  C3'       41.2320   88.0300   42.2670 C.ar  328  FL8328      0.0740
     16  C4'       39.8480   88.0490   42.2510 C.ar  328  FL8328      0.2079
     17  C5'       39.2650   89.3110   42.2840 C.ar  328  FL8328      0.0740
     18  C6'       40.0020   90.5020   42.3260 C.ar  328  FL8328      0.0130
     19  O4'       39.1060   86.8880   42.2080 O.3   328  FL8328     -0.2855
     20  C3B       41.1000   93.1110   44.1340 C.3   328  FL8328      0.0376
     21  O4        43.0970   94.9860   43.6940 O.2   328  FL8328     -0.2867
     22  O6        47.1690   95.4660   40.6000 O.3   328  FL8328     -0.2866
@<TRIPOS>BOND
     1    10    11   ar
     2    10     9   ar
     3    11    12   ar
     4    22     9    1
     5     9     8   ar
     6    12     3   ar
     7    12     7   ar
     8     3     4   ar
     9     8     7   ar
    10     7     6   ar
    11    19    16    1
    12     1    15    1
    13    16    15   ar
    14    16    17   ar
    15    15    14   ar
    16     2    17    1
    17    17    18   ar
    18    14    13   ar
    19    18    13   ar
    20    13     4    1
    21     4     5   ar
    22     6     5   ar
    23     6    21    2
    24     5    20    1
