@<TRIPOS>MOLECULE
1kgq_NPI_A_1.pdb
 12 11 0 0 0
SMALL
GASTEIGER

@<TRIPOS>ATOM
      1  C2        61.2550   87.6300    1.2800 C.3   301  NPI301      0.1943
      2  C3        61.3200   88.7690    0.2620 C.3   301  NPI301      0.0306
      3  C4        61.7620   88.3180   -1.1210 C.3   301  NPI301      0.0026
      4  C5        62.0330   89.4570   -2.1190 C.3   301  NPI301      0.0119
      5  C6        62.3110   88.9600   -3.5280 C.3   301  NPI301      0.1141
      6  C1        62.5660   86.8210    1.3220 C.2   301  NPI301      0.3819
      7  O11       62.7270   85.7930    0.6810 O.co2 301  NPI301     -0.2441
      8  O12       63.5550   87.2330    2.0590 O.co2 301  NPI301     -0.2441
      9  N2        60.9520   88.0980    2.6390 N.3   301  NPI301     -0.1208
     10  C7        62.4070   90.0200   -4.6050 C.2   301  NPI301      0.3649
     11  O71       62.3310   89.7340   -5.7980 O.co2 301  NPI301     -0.2457
     12  O72       62.5870   91.2800   -4.3340 O.co2 301  NPI301     -0.2457
@<TRIPOS>BOND
     1    11    10   ar
     2    10    12   ar
     3    10     5    1
     4     5     4    1
     5     4     3    1
     6     3     2    1
     7     2     1    1
     8     7     6   ar
     9     1     6    1
    10     1     9    1
    11     6     8   ar
