@<TRIPOS>MOLECULE
1kgt_PML_A_1.pdb
 11 10 0 0 0
SMALL
GASTEIGER

@<TRIPOS>ATOM
      1  C1        62.6440   86.9880    1.2460 C.2   301  PML301      0.3649
      2  O11       62.6280   85.8590    0.7510 O.co2 301  PML301     -0.2457
      3  O12       63.6890   87.4430    1.8860 O.co2 301  PML301     -0.2457
      4  C2        61.3760   87.8190    1.2230 C.3   301  PML301      0.1141
      5  C3        61.4150   88.9020    0.1750 C.3   301  PML301      0.0118
      6  C4        61.9600   88.4370   -1.1640 C.3   301  PML301      0.0011
      7  C5        62.1450   89.5740   -2.1800 C.3   301  PML301      0.0118
      8  C6        62.5100   89.0670   -3.5770 C.3   301  PML301      0.1141
      9  C7        62.4800   90.1220   -4.6800 C.2   301  PML301      0.3649
     10  O71       62.1940   89.7860   -5.8330 O.co2 301  PML301     -0.2457
     11  O72       62.7820   91.3690   -4.4110 O.co2 301  PML301     -0.2457
@<TRIPOS>BOND
     1    10     9   ar
     2     9    11   ar
     3     9     8    1
     4     8     7    1
     5     7     6    1
     6     6     5    1
     7     5     4    1
     8     2     1   ar
     9     4     1    1
    10     1     3   ar
