@<TRIPOS>MOLECULE
1kgz_PRP_A_1.pdb
 22 22 0 0 0
SMALL
GASTEIGER

@<TRIPOS>ATOM
      1  C1        21.0360   22.5160    0.0170 C.3   600  PRP600      0.2742
      2  C2        20.2950   21.6450    1.0300 C.3   600  PRP600      0.2408
      3  C3        19.4430   22.4140    1.8660 C.3   600  PRP600      0.2167
      4  C4        19.8590   23.7670    1.7110 C.3   600  PRP600      0.1808
      5  C5        20.3480   24.5890    2.8450 C.3   600  PRP600      0.1859
      6  O1        20.4000   22.3750   -1.3100 O.3   600  PRP600     -0.2857
      7  O2        19.6200   20.5800    0.3370 O.3   600  PRP600     -0.2149
      8  O3        18.0720   22.2090    1.4360 O.3   600  PRP600     -0.2175
      9  O4        20.8580   23.7920    0.5530 O.3   600  PRP600     -0.3255
     10  O5        20.7410   25.9240    2.4810 O.3   600  PRP600     -0.2675
     11  P         20.3450   27.2660    3.3160 P.3   600  PRP600      0.5327
     12  O1P       21.3340   28.3570    2.9390 O.2   600  PRP600     -0.2224
     13  O2P       18.8960   27.6420    2.9870 O.3   600  PRP600     -0.1145
     14  O3P       20.5210   26.8240    4.7730 O.3   600  PRP600     -0.1145
     15  PA        21.0790   21.4660   -2.4780 P.3   600  PRP600      0.2249
     16  O1A       22.3520   20.8900   -2.0050 O.3   600  PRP600     -0.4370
     17  O2A       20.0700   20.4780   -2.9270 O.2   600  PRP600     -0.5169
     18  O3A       21.3760   22.6040   -3.5810 O.3   600  PRP600     -0.2260
     19  PB        20.2850   23.5530   -4.3990 P.3   600  PRP600      0.5373
     20  O1B       20.4690   24.9450   -3.7920 O.3   600  PRP600     -0.1143
     21  O2B       18.9160   22.9690   -4.1490 O.3   600  PRP600     -0.1143
     22  O3B       20.6860   23.4870   -5.8410 O.2   600  PRP600     -0.2221
@<TRIPOS>BOND
     1    22    19    2
     2    19    21    1
     3    19    20    1
     4    19    18    1
     5    18    15    1
     6    17    15    2
     7    15    16    1
     8    15     6    1
     9     6     1    1
    10     1     9    1
    11     1     2    1
    12     7     2    1
    13     9     4    1
    14     2     3    1
    15     8     3    1
    16     4     3    1
    17     4     5    1
    18    10     5    1
    19    10    11    1
    20    12    11    2
    21    13    11    1
    22    11    14    1
