@<TRIPOS>MOLECULE
1kh2_ATP_A_1.pdb
 31 33 0 0 0
SMALL
GASTEIGER

@<TRIPOS>ATOM
      1  PG         3.9980   55.2440   72.5010 P.3   510  ATP510      0.5373
      2  O1G        5.3080   54.5580   72.2880 O.2   510  ATP510     -0.2221
      3  O2G        3.0490   54.5940   73.4610 O.3   510  ATP510     -0.1143
      4  O3G        4.2130   56.6530   72.8490 O.3   510  ATP510     -0.1143
      5  PB         3.1870   54.2530   69.9070 P.3   510  ATP510      0.2277
      6  O1B        1.8640   53.8480   69.4390 O.2   510  ATP510     -0.5168
      7  O2B        4.3930   53.4840   69.5260 O.3   510  ATP510     -0.4368
      8  O3B        3.2200   55.2710   71.1320 O.3   510  ATP510     -0.2258
      9  PA         2.5000   56.0400   67.5950 P.3   510  ATP510      0.2189
     10  O1A        2.0740   55.3510   66.3680 O.2   510  ATP510     -0.5170
     11  O2A        1.8370   57.2680   68.1060 O.3   510  ATP510     -0.4371
     12  O3A        3.4740   55.3510   68.6410 O.3   510  ATP510     -0.2700
     13  O5'        3.6370   56.7840   67.0830 O.3   510  ATP510     -0.3112
     14  C5'        4.6690   57.4440   67.1820 C.3   510  ATP510      0.1813
     15  C4'        5.6040   58.4280   66.7070 C.3   510  ATP510      0.1821
     16  O4'        4.9220   59.6930   66.7150 O.3   510  ATP510     -0.3135
     17  C3'        6.5380   58.3060   67.8240 C.3   510  ATP510      0.2184
     18  O3'        6.5400   57.6820   68.7270 O.3   510  ATP510     -0.2174
     19  C2'        6.0560   59.3780   68.8350 C.3   510  ATP510      0.2570
     20  O2'        7.2110   59.9680   69.3970 O.3   510  ATP510     -0.2130
     21  C1'        5.2100   60.3920   67.9810 C.3   510  ATP510      0.3186
     22  N9         3.8950   60.8790   68.5030 N.pl3 510  ATP510     -0.1439
     23  C8         2.6000   60.3490   68.3500 C.3   510  ATP510      0.3377
     24  N7         1.6630   61.0450   68.9290 N.2   510  ATP510     -0.2095
     25  C5         2.3720   62.0980   69.4940 C.2   510  ATP510      0.2526
     26  C6         1.9700   63.2480   70.2700 C.2   510  ATP510      0.4393
     27  N6         0.7090   63.4710   70.5750 N.pl3 510  ATP510      0.2180
     28  N1         2.9420   64.1430   70.7000 N.2   510  ATP510      0.0021
     29  C2         4.2430   63.9380   70.3950 C.3   510  ATP510      0.5254
     30  N3         4.7460   62.9020   69.6730 N.2   510  ATP510     -0.0055
     31  C4         3.7270   62.0020   69.2460 C.2   510  ATP510      0.3518
@<TRIPOS>BOND
     1    10     9    2
     2    15    16    1
     3    15    14    1
     4    15    17    1
     5    16    21    1
     6    13    14    1
     7    13     9    1
     8     9    11    1
     9     9    12    1
    10    17    18    1
    11    17    19    1
    12    21    22    1
    13    21    19    1
    14    23    22    1
    15    23    24    1
    16    22    31    1
    17    12     5    1
    18    19    20    1
    19    24    25    2
    20    31    25    1
    21    31    30    2
    22     6     5    2
    23    25    26    1
    24     7     5    1
    25    30    29    1
    26     5     8    1
    27    26    27    1
    28    26    28    2
    29    29    28    1
    30     8     1    1
    31     2     1    2
    32     1     4    1
    33     1     3    1
