@<TRIPOS>MOLECULE
1kh3_ANP_A_1.pdb
 31 33 0 0 0
SMALL
GASTEIGER

@<TRIPOS>ATOM
      1  PG         0.5590   52.0570   67.5450 P.3   510  ANP510      0.4884
      2  O1G        0.4630   50.6250   67.0750 O.2   510  ANP510     -0.2331
      3  O2G       -0.5420   52.4830   68.4920 O.3   510  ANP510     -0.1240
      4  O3G        1.9140   52.3650   68.1290 O.3   510  ANP510     -0.1240
      5  PB         1.4830   54.0550   65.4270 P.3   510  ANP510      0.4669
      6  O1B        0.8220   54.4190   64.1090 O.2   510  ANP510     -0.2351
      7  O2B        2.8280   53.5620   65.2420 O.3   510  ANP510     -0.1253
      8  N3B        0.4240   53.0340   66.1220 N.3   510  ANP510     -0.0163
      9  PA         2.3910   55.9640   67.6070 P.3   510  ANP510      0.2220
     10  O1A        1.3540   56.5530   68.5390 O.3   510  ANP510     -0.4370
     11  O2A        3.0300   54.7470   68.2450 O.2   510  ANP510     -0.5170
     12  O3A        1.7100   55.5140   66.2250 O.3   510  ANP510     -0.2360
     13  O5'        3.5060   57.0200   67.4440 O.3   510  ANP510     -0.3111
     14  C5'        4.5740   56.7140   66.5980 C.3   510  ANP510      0.1813
     15  C4'        5.5100   57.8460   66.9950 C.3   510  ANP510      0.1821
     16  O4'        4.9570   59.1090   66.6920 O.3   510  ANP510     -0.3135
     17  C3'        5.6330   57.9630   68.4760 C.3   510  ANP510      0.2184
     18  O3'        6.7070   57.1860   68.8850 O.3   510  ANP510     -0.2174
     19  C2'        5.8840   59.4150   68.7370 C.3   510  ANP510      0.2570
     20  O2'        7.2280   59.8210   68.7330 O.3   510  ANP510     -0.2130
     21  C1'        5.1300   60.1560   67.6790 C.3   510  ANP510      0.3186
     22  N9         3.8340   60.7800   68.1900 N.pl3 510  ANP510     -0.1439
     23  C8         2.5830   60.3060   67.9570 C.3   510  ANP510      0.3377
     24  N7         1.6600   61.0660   68.5260 N.2   510  ANP510     -0.2095
     25  C5         2.3290   62.0500   69.1370 C.2   510  ANP510      0.2526
     26  C6         1.8020   63.1540   69.9040 C.2   510  ANP510      0.4393
     27  N6         0.4590   63.2640   70.0590 N.pl3 510  ANP510      0.2180
     28  N1         2.6800   64.0810   70.4650 N.2   510  ANP510      0.0021
     29  C2         4.0280   63.8780   70.2450 C.3   510  ANP510      0.5254
     30  N3         4.5290   62.8360   69.5180 N.2   510  ANP510     -0.0055
     31  C4         3.7080   61.8940   68.9440 C.2   510  ANP510      0.3518
@<TRIPOS>BOND
     1     6     5    2
     2     7     5    1
     3     5     8    1
     4     5    12    1
     5     8     1    1
     6    12     9    1
     7    14    15    1
     8    14    13    1
     9    16    15    1
    10    16    21    1
    11    15    17    1
    12     2     1    2
    13    13     9    1
    14     1     4    1
    15     1     3    1
    16     9    11    2
    17     9    10    1
    18    21    22    1
    19    21    19    1
    20    23    22    1
    21    23    24    1
    22    22    31    1
    23    17    19    1
    24    17    18    1
    25    24    25    2
    26    20    19    1
    27    31    25    1
    28    31    30    2
    29    25    26    1
    30    30    29    1
    31    26    27    1
    32    26    28    2
    33    29    28    1
