@<TRIPOS>MOLECULE
1kh3_ARG_A_1.pdb
 12 11 0 0 0
SMALL
GASTEIGER

@<TRIPOS>ATOM
      1  N         -1.0130   54.0380   56.9350 N.3   520  ARG520     -0.1208
      2  CA        -1.2660   55.4270   57.4710 C.3   520  ARG520      0.1944
      3  C         -0.3120   56.4080   56.8370 C.2   520  ARG520      0.3819
      4  O          0.5240   55.9610   56.0470 O.co2 520  ARG520     -0.2441
      5  CB        -0.9590   55.4110   58.9580 C.3   520  ARG520      0.0343
      6  CG        -1.8510   54.4880   59.6880 C.3   520  ARG520      0.0490
      7  CD        -1.5230   54.3900   61.1480 C.3   520  ARG520      0.2205
      8  NE        -2.2380   53.2220   61.6110 N.pl3 520  ARG520     -0.0865
      9  CZ        -2.2190   52.7060   62.7890 C.cat 520  ARG520      0.5346
     10  NH1       -1.4760   53.2180   63.7680 N.pl3 520  ARG520      0.1354
     11  NH2       -2.9500   51.6430   62.9890 N.pl3 520  ARG520      0.1354
     12  OXT       -0.4030   57.6060   57.1470 O.co2 520  ARG520     -0.2441
@<TRIPOS>BOND
     1     4     3   ar
     2     3    12   ar
     3     3     2    1
     4     1     2    1
     5     2     5    1
     6     5     6    1
     7     6     7    1
     8     7     8    1
     9     8     9    2
    10     9    11    1
    11     9    10    1
