@<TRIPOS>MOLECULE
1khf_PEP_A_1.pdb
 10 9 0 0 0
SMALL
GASTEIGER

@<TRIPOS>ATOM
      1  C1        46.2640   25.2570   38.4310 C.2   703  PEP703      0.4216
      2  O1        47.0860   26.0850   38.7860 O.co2 703  PEP703     -0.2371
      3  O2'       46.1820   24.2550   39.2000 O.co2 703  PEP703     -0.2371
      4  C2        45.4900   25.3630   37.1230 C.2   703  PEP703      0.2283
      5  C3        44.4500   24.7210   36.6000 C.2   703  PEP703      0.0477
      6  O2        46.1070   26.4090   36.5480 O.2   703  PEP703     -0.3930
      7  P         45.3980   27.2870   35.2550 P.3   703  PEP703      0.5889
      8  O1P       46.1350   28.5460   34.8380 O.3   703  PEP703     -0.1039
      9  O2P       45.2910   26.1320   34.0400 O.2   703  PEP703     -0.2114
     10  O3P       43.7250   27.5750   35.4920 O.3   703  PEP703     -0.1039
@<TRIPOS>BOND
     1     9     7    2
     2     8     7    1
     3     7    10    1
     4     7     6    1
     5     6     4    1
     6     5     4    2
     7     4     1    1
     8     1     2   ar
     9     1     3   ar
