@<TRIPOS>MOLECULE
1khp_III_I_1.pdb
 24 24 0 0 0
SMALL
GASTEIGER

@<TRIPOS>ATOM
      1  N         -2.5220    8.6220   -0.4800 N.3   251  LEU251     -0.1231
      2  CA        -2.9730    7.8250    0.6550 C.3   251  LEU251      0.1693
      3  C         -2.1620    8.0380    1.9280 C.2   251  LEU251      0.2592
      4  O         -1.8150    9.1970    2.2130 O.2   251  LEU251     -0.2718
      5  CB        -3.0440    6.3590    0.3170 C.3   251  LEU251      0.0284
      6  CG        -4.2140    5.5750    0.8690 C.3   251  LEU251      0.0019
      7  CD1       -4.5850    6.1340    2.2470 C.3   251  LEU251      0.0001
      8  CD2       -5.3980    5.6490   -0.1050 C.3   251  LEU251      0.0001
      9  N         -1.8710    6.9720    2.7190 N.am  252  PHE252     -0.1962
     10  CA        -1.4800    7.1600    4.1220 C.3   252  PHE252      0.1771
     11  C         -0.1220    7.8250    4.2370 C.2   252  PHE252      0.2620
     12  O          0.8420    7.1900    3.8090 O.2   252  PHE252     -0.2715
     13  CB        -1.3600    5.8390    4.8920 C.3   252  PHE252      0.0574
     14  CG        -2.6780    5.1190    5.0180 C.ar  252  PHE252     -0.0200
     15  CD1       -3.6220    5.5440    5.9370 C.ar  252  PHE252     -0.0042
     16  CD2       -2.9290    4.0280    4.2040 C.ar  252  PHE252     -0.0042
     17  CE1       -4.8240    4.8580    6.0110 C.ar  252  PHE252     -0.0003
     18  CE2       -4.1370    3.3430    4.2770 C.ar  252  PHE252     -0.0003
     19  CZ        -5.0940    3.7590    5.1940 C.ar  252  PHE252     -0.0000
     20  N         -0.0370    9.0530    4.8060 N.am  253  GLY253     -0.1959
     21  CA         1.2100    9.8360    5.0130 C.3   253  GLY253      0.1792
     22  C          1.8690    9.5320    6.3520 C.2   253  GLY253      0.1729
     23  O          3.0370    9.7300    6.6660 O.2   253  GLY253     -0.2942
     24  C1         1.0380    8.8630    7.4280 C.3   254  0HQ254      0.0742
@<TRIPOS>BOND
     1     1     2    1
     2     8     6    1
     3     5     2    1
     4     5     6    1
     5     2     3    1
     6     6     7    1
     7     3     4    2
     8     3     9   am
     9     9    10    1
    10    12    11    2
    11    10    11    1
    12    10    13    1
    13    16    18   ar
    14    16    14   ar
    15    11    20   am
    16    18    19   ar
    17    20    21    1
    18    13    14    1
    19    21    22    1
    20    14    15   ar
    21    19    17   ar
    22    15    17   ar
    23    22    23    2
    24    22    24    1
