@<TRIPOS>MOLECULE
1khq_III_I_1.pdb
 24 24 0 0 0
SMALL
GASTEIGER

@<TRIPOS>ATOM
      1  N          7.0830   95.2810   26.0080 N.3   251  LEU251     -0.1231
      2  CA         8.3680   95.8450   26.4250 C.3   251  LEU251      0.1693
      3  C          9.5580   94.9950   26.0070 C.2   251  LEU251      0.2592
      4  O         10.2920   95.4780   25.1410 O.2   251  LEU251     -0.2718
      5  CB         8.3830   96.0780   27.9200 C.3   251  LEU251      0.0284
      6  CG         9.2390   97.1510   28.5490 C.3   251  LEU251      0.0019
      7  CD1        8.6640   98.5490   28.3200 C.3   251  LEU251      0.0001
      8  CD2        9.3320   96.8900   30.0480 C.3   251  LEU251      0.0001
      9  N          9.7960   93.7860   26.5660 N.am  252  PHE252     -0.1962
     10  CA        11.0080   92.9970   26.2410 C.3   252  PHE252      0.1771
     11  C         10.7250   91.6680   25.5840 C.2   252  PHE252      0.2620
     12  O         10.1120   90.8140   26.1850 O.2   252  PHE252     -0.2715
     13  CB        11.8910   92.6620   27.4680 C.3   252  PHE252      0.0574
     14  CG        12.3350   93.9410   28.1200 C.ar  252  PHE252     -0.0200
     15  CD1       11.6780   94.3940   29.2560 C.ar  252  PHE252     -0.0042
     16  CD2       13.3610   94.6860   27.5590 C.ar  252  PHE252     -0.0042
     17  CE1       12.0530   95.6020   29.8490 C.ar  252  PHE252     -0.0003
     18  CE2       13.7430   95.8810   28.1430 C.ar  252  PHE252     -0.0003
     19  CZ        13.0850   96.3480   29.2800 C.ar  252  PHE252     -0.0000
     20  N         11.1700   91.4290   24.3660 N.am  253  GLY253     -0.1959
     21  CA        10.8880   90.1500   23.7390 C.3   253  GLY253      0.1792
     22  C         12.1210   89.2850   23.6540 C.2   253  GLY253      0.1729
     23  O         12.1020   88.1210   23.2600 O.2   253  GLY253     -0.2942
     24  C1        13.4800   89.7940   24.1410 C.3   254  0HQ254      0.0742
@<TRIPOS>BOND
     1    23    22    2
     2    22    21    1
     3    22    24    1
     4    21    20    1
     5    20    11   am
     6     4     3    2
     7    11    12    2
     8    11    10    1
     9     3     2    1
    10     3     9   am
    11     1     2    1
    12    10     9    1
    13    10    13    1
    14     2     5    1
    15    13    14    1
    16    16    14   ar
    17    16    18   ar
    18     5     6    1
    19    14    15   ar
    20    18    19   ar
    21     7     6    1
    22     6     8    1
    23    15    17   ar
    24    19    17   ar
