@<TRIPOS>MOLECULE
1khr_COA_A_1.pdb
 48 50 0 0 0
SMALL
GASTEIGER

@<TRIPOS>ATOM
      1  N1A       76.5820    8.4060   19.0770 N.2   301  COA301      0.0021
      2  C2A       77.5080    7.5020   18.6330 C.3   301  COA301      0.5254
      3  N3A       78.1800    6.6330   19.3300 N.2   301  COA301     -0.0055
      4  C4A       77.8660    6.6980   20.6630 C.2   301  COA301      0.3518
      5  C5A       76.9720    7.5300   21.2640 C.2   301  COA301      0.2526
      6  C6A       76.2850    8.4490   20.4200 C.2   301  COA301      0.4393
      7  N6A       75.3840    9.3320   20.8470 N.pl3 301  COA301      0.2180
      8  N7A       76.9600    7.2550   22.6280 N.2   301  COA301     -0.2095
      9  C8A       77.8360    6.2760   22.8220 C.3   301  COA301      0.3377
     10  N9A       78.4060    5.9130   21.6450 N.pl3 301  COA301     -0.1439
     11  C1B       79.3940    4.9330   21.2390 C.3   301  COA301      0.3185
     12  C2B       80.5030    4.7300   22.2440 C.3   301  COA301      0.2543
     13  O2B       81.5240    5.7360   22.0740 O.3   301  COA301     -0.2131
     14  C3B       80.9870    3.2980   21.9650 C.3   301  COA301      0.1928
     15  O3B       82.0830    3.2090   21.0060 O.3   301  COA301     -0.2673
     16  P3B       82.7280    1.7800   20.6500 P.3   301  COA301      0.5327
     17  O7A       81.7430    0.9560   19.9220 O.3   301  COA301     -0.1145
     18  O8A       83.2700    1.1950   21.9020 O.3   301  COA301     -0.1145
     19  O9A       83.8830    2.0160   19.7530 O.2   301  COA301     -0.2224
     20  C4B       79.6840    2.6360   21.5630 C.3   301  COA301      0.1795
     21  O4B       78.7870    3.6890   21.1230 O.3   301  COA301     -0.3136
     22  C5B       78.9420    1.8570   22.6490 C.3   301  COA301      0.1812
     23  O5B       79.6820    1.8670   23.8740 O.3   301  COA301     -0.3112
     24  P1A       78.9900    2.3920   25.2350 P.3   301  COA301      0.2189
     25  O1A       78.9330    3.8840   25.2740 O.2   301  COA301     -0.5170
     26  O2A       79.7130    1.8590   26.4180 O.3   301  COA301     -0.4371
     27  O3A       77.5320    1.7890   25.1670 O.3   301  COA301     -0.2703
     28  P2A       76.1660    2.0440   26.0800 P.3   301  COA301      0.2188
     29  O4A       76.4910    2.4700   27.4630 O.3   301  COA301     -0.4371
     30  O5A       75.3170    0.8390   26.0930 O.2   301  COA301     -0.5170
     31  O6A       75.5230    3.2720   25.2170 O.3   301  COA301     -0.3138
     32  CBP       74.0540    5.3140   26.0610 C.3   301  COA301      0.0645
     33  CCP       75.4400    4.5820   26.0040 C.3   301  COA301      0.1519
     34  CDP       73.6070    5.6430   24.6410 C.3   301  COA301      0.0056
     35  CEP       72.9900    4.4570   26.7290 C.3   301  COA301      0.0056
     36  CAP       74.1630    6.6690   26.8320 C.3   301  COA301      0.2312
     37  OAP       75.1500    7.5270   26.2370 O.3   301  COA301     -0.2131
     38  C9P       72.8850    7.5100   26.7540 C.2   301  COA301      0.2719
     39  O9P       72.5770    8.1130   25.7080 O.2   301  COA301     -0.2706
     40  N8P       72.1380    7.5910   27.8460 N.am  301  COA301     -0.2028
     41  C7P       70.8650    8.3680   27.9190 C.3   301  COA301      0.1248
     42  C6P       70.9490    9.5370   28.9120 C.3   301  COA301      0.1102
     43  C5P       69.7260   10.4790   28.9660 C.2   301  COA301      0.2432
     44  O5P       69.6590   11.4650   28.2330 O.2   301  COA301     -0.2733
     45  N4P       68.8260   10.1380   29.8640 N.am  301  COA301     -0.2044
     46  C3P       67.5840   10.9050   30.1030 C.3   301  COA301      0.1276
     47  C2P       66.4210    9.9410   30.3610 C.3   301  COA301      0.0920
     48  S1P       65.6890   10.1320   32.0650 S.3   301  COA301     -0.0802
@<TRIPOS>BOND
     1     2     1    1
     2     2     3    1
     3     1     6    2
     4     3     4    2
     5    19    16    2
     6    17    16    1
     7     6     7    1
     8     6     5    1
     9    16    15    1
    10    16    18    1
    11     4     5    1
    12     4    10    1
    13    15    14    1
    14    21    11    1
    15    21    20    1
    16    11    10    1
    17    11    12    1
    18     5     8    2
    19    20    14    1
    20    20    22    1
    21    10     9    1
    22    14    12    1
    23    13    12    1
    24     8     9    1
    25    22    23    1
    26    23    24    1
    27    34    32    1
    28    27    24    1
    29    27    28    1
    30    31    33    1
    31    31    28    1
    32    24    25    2
    33    24    26    1
    34    39    38    2
    35    33    32    1
    36    32    35    1
    37    32    36    1
    38    28    30    2
    39    28    29    1
    40    37    36    1
    41    38    36    1
    42    38    40   am
    43    40    41    1
    44    41    42    1
    45    44    43    2
    46    42    43    1
    47    43    45   am
    48    45    46    1
    49    46    47    1
    50    47    48    1
