@<TRIPOS>MOLECULE
1khr_VIR_A_1.pdb
 38 40 0 0 0
SMALL
GASTEIGER

@<TRIPOS>ATOM
      1  C1        66.1980    7.9220   41.1080 C.ar  401  VIR401      0.1428
      2  C10       62.5310   11.5690   39.0140 C.2   401  VIR401      0.2602
      3  C12       62.7860   11.4510   41.1690 C.3   401  VIR401      0.2711
      4  C13       61.9950   12.1790   37.7750 C.3   401  VIR401      0.1633
      5  C14       62.6890   11.7350   36.5580 C.2   401  VIR401      0.1641
      6  C16       62.3810   10.3900   35.9700 C.3   401  VIR401      0.1025
      7  C17       63.5310    9.8310   35.1670 C.3   401  VIR401      0.1810
      8  C19       63.9680    8.4560   35.6160 C.2   401  VIR401      0.0023
      9  C2        67.3770    7.9780   40.4530 C.ar  401  VIR401      0.0257
     10  C20       65.1840    8.0030   35.5680 C.2   401  VIR401     -0.0239
     11  C21       66.3410    8.8200   35.0460 C.3   401  VIR401      0.0308
     12  C22       65.4720    6.6870   36.0590 C.2   401  VIR401     -0.0071
     13  C23       66.7800    6.3030   36.1990 C.2   401  VIR401      0.0005
     14  C24       67.2210    4.9320   36.7610 C.3   401  VIR401      0.1640
     15  C26       67.0300    4.1320   39.0340 C.1   401  VIR401      0.1507
     16  C28       67.6590    4.7260   40.3340 C.2   401  VIR401      0.0892
     17  C29       67.6040    4.0830   41.2570 C.2   401  VIR401     -0.0105
     18  C3        67.3660    9.0710   39.4420 C.ar  401  VIR401      0.0208
     19  C30       68.0730    4.1940   42.7410 C.3   401  VIR401      0.0629
     20  C31       69.5910    4.3810   42.9090 C.3   401  VIR401      0.0084
     21  C32       67.2870    5.3430   43.4070 C.3   401  VIR401      0.1730
     22  C33       68.0100    5.8980   44.6020 C.3   401  VIR401      0.0405
     23  C34       67.1930    7.0340   45.2340 C.3   401  VIR401      0.0037
     24  C35       68.2120    4.7890   45.6500 C.3   401  VIR401      0.0037
     25  C37       65.9320    6.8610   42.1150 C.2   401  VIR401      0.3576
     26  C4        65.9870    9.6810   39.5320 C.ar  401  VIR401      0.0833
     27  C6        64.2330    9.4150   41.3150 C.2   401  VIR401      0.2942
     28  C8        63.4630   10.4320   40.5710 C.2   401  VIR401      0.2121
     29  N25       67.5220    5.0130   38.1650 N.2   401  VIR401     -0.1976
     30  N5        65.2850    8.9230   40.6300 N.ar  401  VIR401     -0.2653
     31  N9        63.2870   10.5200   39.1960 N.2   401  VIR401     -0.3667
     32  O11       62.1820   12.1800   40.1940 O.2   401  VIR401     -0.4465
     33  O15       63.5020   12.5020   36.0430 O.2   401  VIR401     -0.2954
     34  O18       63.0940    9.7240   33.7750 O.3   401  VIR401     -0.2178
     35  O27       66.2650    3.1890   38.7290 O.2   401  VIR401     -0.2222
     36  O36       67.1730    6.4620   42.4780 O.3   401  VIR401     -0.4479
     37  O38       64.8960    6.3930   42.5390 O.2   401  VIR401     -0.2432
     38  O7        63.9090    9.0970   42.4590 O.2   401  VIR401     -0.2640
@<TRIPOS>BOND
     1    34     7    1
     2    11    10    1
     3     7     8    1
     4     7     6    1
     5    10     8    2
     6    10    12    1
     7     6     5    1
     8    33     5    2
     9    12    13    2
    10    13    14    1
    11     5     4    1
    12    14    29    1
    13     4     2    1
    14    29    15    2
    15    35    15    2
    16     2    31    2
    17     2    32    1
    18    15    16    1
    19    31    28    2
    20    18    26   ar
    21    18     9   ar
    22    26    30   ar
    23    32     3    1
    24    16    17    2
    25     9     1   ar
    26    28     3    1
    27    28    27    1
    28    30     1   ar
    29    30    27   am
    30     1    25    1
    31    17    19    1
    32    27    38    2
    33    25    36    1
    34    25    37    2
    35    36    21    1
    36    19    20    1
    37    19    21    1
    38    21    22    1
    39    22    23    1
    40    22    24    1
