@<TRIPOS>MOLECULE
1kht_AMP_B_1.pdb
 23 25 0 0 0
SMALL
GASTEIGER

@<TRIPOS>ATOM
      1  P         26.0570   58.8040  114.5730 P.3   2193  AMP2193     0.5327
      2  O1P       25.1950   58.1730  113.5290 O.2   2193  AMP2193    -0.2224
      3  O2P       25.7300   60.1500  115.0910 O.3   2193  AMP2193    -0.1145
      4  O3P       27.5580   58.8770  113.9870 O.3   2193  AMP2193    -0.1145
      5  O5'       26.1870   57.8090  115.8360 O.3   2193  AMP2193    -0.2675
      6  C5'       26.4000   56.3980  115.6260 C.3   2193  AMP2193     0.1860
      7  C4'       25.5060   55.5780  116.5350 C.3   2193  AMP2193     0.1823
      8  O4'       25.5320   56.1590  117.8540 O.3   2193  AMP2193    -0.3135
      9  C3'       24.0280   55.5910  116.1580 C.3   2193  AMP2193     0.2184
     10  O3'       23.6340   54.7040  115.1220 O.3   2193  AMP2193    -0.2174
     11  C2'       23.4000   55.1970  117.4920 C.3   2193  AMP2193     0.2570
     12  O2'       23.4050   53.7850  117.7640 O.3   2193  AMP2193    -0.2130
     13  C1'       24.2770   55.8910  118.5130 C.3   2193  AMP2193     0.3186
     14  N9        23.6320   57.0550  119.1940 N.pl3 2193  AMP2193    -0.1439
     15  C8        23.8390   58.3840  119.0370 C.3   2193  AMP2193     0.3377
     16  N7        23.1080   59.1240  119.8710 N.2   2193  AMP2193    -0.2095
     17  C5        22.4460   58.2040  120.5850 C.2   2193  AMP2193     0.2526
     18  C6        21.5590   58.4820  121.6170 C.2   2193  AMP2193     0.4393
     19  N6        21.2390   59.7220  122.0130 N.pl3 2193  AMP2193     0.2180
     20  N1        21.0070   57.3840  122.2150 N.2   2193  AMP2193     0.0021
     21  C2        21.2820   56.1240  121.8280 C.3   2193  AMP2193     0.5254
     22  N3        22.1540   55.8840  120.8450 N.2   2193  AMP2193    -0.0055
     23  C4        22.7580   56.9110  120.2010 C.2   2193  AMP2193     0.3518
@<TRIPOS>BOND
     1     2     1    2
     2     4     1    1
     3     1     3    1
     4     1     5    1
     5    10     9    1
     6     6     5    1
     7     6     7    1
     8     9     7    1
     9     9    11    1
    10     7     8    1
    11    11    12    1
    12    11    13    1
    13     8    13    1
    14    13    14    1
    15    15    14    1
    16    15    16    1
    17    14    23    1
    18    16    17    2
    19    23    17    1
    20    23    22    2
    21    17    18    1
    22    22    21    1
    23    18    19    1
    24    18    20    2
    25    21    20    1
