@<TRIPOS>MOLECULE
1khz_ADV_B_1.pdb
 36 39 0 0 0
SMALL
GASTEIGER

@<TRIPOS>ATOM
      1  PA        35.6870   33.4650   10.9050 P.3   402  ADV402      0.3820
      2  O5'       34.9940   33.5330    9.5680 O.3   402  ADV402     -0.2896
      3  C5'       34.5310   32.3270    8.8470 C.3   402  ADV402      0.1836
      4  C4'       34.0900   32.7850    7.5380 C.3   402  ADV402      0.1822
      5  O4'       35.2530   32.9260    6.6760 O.3   402  ADV402     -0.3135
      6  C3'       33.2330   31.7580    6.8690 C.3   402  ADV402      0.2184
      7  O3'       31.8300   32.0840    7.0220 O.3   402  ADV402     -0.2174
      8  C2'       33.6720   31.8060    5.3190 C.3   402  ADV402      0.2570
      9  O2'       32.9140   32.9070    4.6310 O.3   402  ADV402     -0.2130
     10  C1'       35.1480   32.2350    5.3610 C.3   402  ADV402      0.3186
     11  N9        36.0570   30.9790    5.3730 N.pl3 402  ADV402     -0.1439
     12  C8        36.3450   30.1030    6.3860 C.3   402  ADV402      0.3377
     13  N7        37.0880   29.0820    5.9900 N.2   402  ADV402     -0.2095
     14  C5        37.2440   29.2710    4.6250 C.2   402  ADV402      0.2526
     15  C6        37.8300   28.4630    3.5680 C.2   402  ADV402      0.4393
     16  N6        38.2580   27.2170    3.7680 N.pl3 402  ADV402      0.2180
     17  N1        37.8010   28.9690    2.2450 N.2   402  ADV402      0.0021
     18  C2        37.0530   30.1200    1.9750 C.3   402  ADV402      0.5254
     19  N3        36.3840   30.8620    2.8680 N.2   402  ADV402     -0.0055
     20  C4        36.5630   30.4210    4.2040 C.2   402  ADV402      0.3518
     21  CX        36.9620   32.3360   10.8070 C.3   402  ADV402      0.2353
     22  PB        37.0210   30.7030   11.2200 P.3   402  ADV402      0.3820
     23  O1B       36.4470   29.9400   10.0900 O.2   402  ADV402     -0.2548
     24  OR5       38.5960   30.2630   11.3720 O.3   402  ADV402     -0.2896
     25  CR5       39.2250   30.4640   12.8250 C.3   402  ADV402      0.1836
     26  CR4       39.7950   29.0920   13.4000 C.3   402  ADV402      0.1808
     27  OR4       38.6670   27.9910   13.4280 O.3   402  ADV402     -0.3237
     28  CR3       40.8770   28.5970   12.3750 C.3   402  ADV402      0.2168
     29  OR3       42.0030   28.1040   13.0530 O.3   402  ADV402     -0.2175
     30  CR2       40.1850   27.4550   11.5920 C.3   402  ADV402      0.2433
     31  OR2       41.0660   26.4770   11.2740 O.3   402  ADV402     -0.2148
     32  CR1       39.0760   26.8880   12.5200 C.3   402  ADV402      0.3023
     33  OR1       39.6280   25.8250   13.3230 O.3   402  ADV402     -0.1869
     34  O2A       36.1970   34.7660   11.2030 O.2   402  ADV402     -0.2548
     35  O2B       36.2410   30.4260   12.4380 O.3   402  ADV402     -0.1392
     36  O1A       34.7640   33.0950   11.8920 O.3   402  ADV402     -0.1392
@<TRIPOS>BOND
     1    18    17    1
     2    18    19    1
     3    17    15    2
     4    19    20    2
     5    15    16    1
     6    15    14    1
     7    20    14    1
     8    20    11    1
     9    14    13    2
    10     9     8    1
    11     8    10    1
    12     8     6    1
    13    10    11    1
    14    10     5    1
    15    11    12    1
    16    13    12    1
    17     5     4    1
    18     6     7    1
    19     6     4    1
    20     4     3    1
    21     3     2    1
    22     2     1    1
    23    23    22    2
    24    21     1    1
    25    21    22    1
    26     1    34    2
    27     1    36    1
    28    22    24    1
    29    22    35    1
    30    31    30    1
    31    24    25    1
    32    30    28    1
    33    30    32    1
    34    28    29    1
    35    28    26    1
    36    32    33    1
    37    32    27    1
    38    25    26    1
    39    26    27    1
