@<TRIPOS>MOLECULE
1ki0_BCN_A_1.pdb
 11 10 0 0 0
SMALL
GASTEIGER

@<TRIPOS>ATOM
      1  N1        34.6320   18.3540   53.5950 N.3   335  BCN335     -0.2587
      2  C1        35.1920   18.9350   52.3830 C.3   335  BCN335      0.1879
      3  C2        36.4350   18.1970   51.9610 C.2   335  BCN335      0.3809
      4  O21       37.0990   18.6600   51.0170 O.co2 335  BCN335     -0.2441
      5  O22       36.7620   17.1550   52.5630 O.co2 335  BCN335     -0.2441
      6  C3        33.1750   18.4770   53.4580 C.3   335  BCN335      0.1086
      7  C4        32.5080   17.1680   53.7740 C.3   335  BCN335      0.1994
      8  O4        31.4400   17.4520   54.6590 O.3   335  BCN335     -0.2189
      9  C5        35.2130   19.1190   54.7530 C.3   335  BCN335      0.1086
     10  C6        34.3520   19.2040   55.9920 C.3   335  BCN335      0.1994
     11  O6        33.3290   20.1410   55.7990 O.3   335  BCN335     -0.2189
@<TRIPOS>BOND
     1     4     3   ar
     2     3     2    1
     3     3     5   ar
     4     2     1    1
     5     6     1    1
     6     6     7    1
     7     1     9    1
     8     7     8    1
     9     9    10    1
    10    11    10    1
