@<TRIPOS>MOLECULE
1ki2_GA2_A_1.pdb
 18 19 0 0 0
SMALL
GASTEIGER

@<TRIPOS>ATOM
      1  N1        43.5520   86.1360   55.2210 N.2     1  GA21       -0.2485
      2  C2        44.1730   85.2210   54.3940 C.1     1  GA21        0.2531
      3  C4        46.0050   85.4310   55.6270 C.2     1  GA21        0.2300
      4  C8        47.3710   85.9510   57.1860 C.3     1  GA21        0.2246
      5  C4'       51.4780   85.4650   56.0310 C.3     1  GA21        0.2142
      6  O4'       50.9550   85.9970   57.2640 O.3     1  GA21       -0.2176
      7  C3'       50.9220   84.4700   53.8870 C.3     1  GA21        0.2142
      8  O3'       51.0560   83.0710   54.0850 O.3     1  GA21       -0.2176
      9  C2'       50.3380   85.0880   55.1750 C.3     1  GA21        0.1828
     10  O1'       49.4090   84.2890   55.9910 O.3     1  GA21       -0.3313
     11  C1'       48.1510   84.2650   55.3580 C.3     1  GA21        0.2438
     12  N9        47.2590   85.1930   56.0440 N.pl3   1  GA21       -0.2341
     13  N3        45.4350   84.8280   54.5360 N.2     1  GA21       -0.3074
     14  N2        43.5100   84.7070   53.3850 N.pl3   1  GA21       -0.0226
     15  C6        44.1260   86.7310   56.3110 C.1     1  GA21        0.2372
     16  O6        43.4750   87.5100   56.9750 O.2     1  GA21       -0.2069
     17  C5        45.4490   86.3130   56.5150 C.2     1  GA21        0.2182
     18  N7        46.3450   86.6370   57.5350 N.2     1  GA21       -0.2322
@<TRIPOS>BOND
     1    14     2    1
     2     7     8    1
     3     7     9    1
     4     2    13    2
     5     2     1    2
     6    13     3    2
     7     9    10    1
     8     9     5    1
     9     1    15    2
    10    11    10    1
    11    11    12    1
    12     3    12    1
    13     3    17    1
    14     5     6    1
    15    12     4    1
    16    15    17    1
    17    15    16    2
    18    17    18    2
    19     4    18    1
