@<TRIPOS>MOLECULE
1ki3_PE2_A_1.pdb
 18 19 0 0 0
SMALL
GASTEIGER

@<TRIPOS>ATOM
      1  C2        43.7820   84.9180   54.0320 C.1     1  PE21        0.2531
      2  C4        45.5620   85.1640   55.3970 C.2     1  PE21        0.2282
      3  C5        44.8980   86.0070   56.2830 C.2     1  PE21        0.2181
      4  C4'       50.0930   82.1860   53.3420 C.3     1  PE21        0.1847
      5  O4'       51.0830   81.4290   54.0660 O.3     1  PE21       -0.2203
      6  C3'       50.8880   84.1840   54.2580 C.3     1  PE21        0.1847
      7  O3'       51.3170   84.3360   52.8480 O.3     1  PE21       -0.2203
      8  C2'       49.7830   83.2010   54.3400 C.3     1  PE21        0.0677
      9  C12       48.4790   83.8510   54.0490 C.3     1  PE21        0.0268
     10  C1'       47.9910   84.1700   55.4610 C.3     1  PE21        0.0952
     11  N9        46.8390   84.9920   55.9310 N.pl3   1  PE21       -0.2602
     12  N3        45.0750   84.5790   54.2330 N.2     1  PE21       -0.3075
     13  N2        43.1930   84.3930   52.9340 N.pl3   1  PE21       -0.0226
     14  N1        43.0530   85.7900   54.8810 N.2     1  PE21       -0.2485
     15  C6        43.5490   86.3930   56.0470 C.1     1  PE21        0.2372
     16  O6        42.9050   87.1620   56.7820 O.2     1  PE21       -0.2069
     17  N7        45.7270   86.3800   57.3400 N.2     1  PE21       -0.2323
     18  C8        46.8010   85.7380   57.0630 C.3     1  PE21        0.2228
@<TRIPOS>BOND
     1     7     6    1
     2    13     1    1
     3     4     5    1
     4     4     8    1
     5     1    12    2
     6     1    14    2
     7     9     8    1
     8     9    10    1
     9    12     2    2
    10     6     8    1
    11    14    15    2
    12     2    11    1
    13     2     3    1
    14    10    11    1
    15    11    18    1
    16    15     3    1
    17    15    16    2
    18     3    17    2
    19    18    17    1
