@<TRIPOS>MOLECULE
1ki4_BTD_A_1.pdb
 22 24 0 0 0
SMALL
GASTEIGER

@<TRIPOS>ATOM
      1  O5'       49.9220   81.6280   53.5310 O.3     1  BTD1       -0.2176
      2  C5'       50.5790   82.8810   53.2450 C.3     1  BTD1        0.2141
      3  C4'       50.2990   83.9400   54.2240 C.3     1  BTD1        0.1802
      4  O4'       48.9710   84.5010   54.1360 O.3     1  BTD1       -0.3338
      5  C1'       48.0170   83.9350   55.1230 C.3     1  BTD1        0.2090
      6  N1        46.7040   83.6750   54.4960 N.am    1  BTD1       -0.1791
      7  C6        46.6230   82.7550   53.5360 C.2     1  BTD1        0.0925
      8  C2        45.5820   84.4520   54.8310 C.1     1  BTD1        0.2844
      9  O2        45.5670   85.3410   55.6650 O.2     1  BTD1       -0.1918
     10  N3        44.4620   84.1620   54.1570 N.2     1  BTD1       -0.2452
     11  C4        44.3630   83.1840   53.1920 C.1     1  BTD1        0.2179
     12  O4        43.2730   82.9780   52.6310 O.2     1  BTD1       -0.2085
     13  C5        45.5240   82.4450   52.9310 C.2     1  BTD1        0.1170
     14  C55       45.4710   81.5910   51.9070 C.ar    1  BTD1        0.0432
     15  C44       46.5020   81.3570   51.0110 C.ar    1  BTD1        0.0083
     16  C33       46.1750   80.4900   49.9950 C.ar    1  BTD1        0.0138
     17  C22       44.8530   80.0590   50.0490 C.ar    1  BTD1        0.0638
     18  S11       43.9740   80.7770   51.4170 S.2     1  BTD1       -0.0793
     19 BR         43.9480   78.9510   48.9260 Br      1  BTD1       -0.0419
     20  C2'       48.8160   82.7780   55.7450 C.3     1  BTD1        0.0874
     21  C3'       50.2890   83.2900   55.6260 C.3     1  BTD1        0.1858
     22  O3'       50.5870   84.3320   56.5210 O.3     1  BTD1       -0.2203
@<TRIPOS>BOND
     1    19    17    1
     2    16    17   ar
     3    16    15   ar
     4    17    18   ar
     5    15    14   ar
     6    18    14   ar
     7    14    13    1
     8    12    11    2
     9    13    11    1
    10    13     7    2
    11    11    10    2
    12     2     1    1
    13     2     3    1
    14     7     6    1
    15     4     3    1
    16     4     5    1
    17    10     8    2
    18     3    21    1
    19     6     8   am
    20     6     5    1
    21     8     9    2
    22     5    20    1
    23    21    20    1
    24    21    22    1
