@<TRIPOS>MOLECULE
1ki6_AHU_A_1.pdb
 18 19 0 0 0
SMALL
GASTEIGER

@<TRIPOS>ATOM
      1  C4'       50.5740   83.7250   54.5550 C.3     1  AHU1        0.1783
      2  C7'       50.5120   82.8320   53.4030 C.3     1  AHU1        0.2140
      3  O7'       50.6940   81.5690   54.0090 O.3     1  AHU1       -0.2176
      4  O5'       49.8830   84.9770   54.3050 O.3     1  AHU1       -0.3492
      5  C6'       48.5660   84.7680   53.8270 C.3     1  AHU1        0.1632
      6  C1'       47.6610   84.1190   54.8760 C.3     1  AHU1        0.1220
      7  C2'       48.3580   82.8840   55.4340 C.3     1  AHU1        0.0590
      8  C3'       49.8270   83.0750   55.6870 C.3     1  AHU1        0.1833
      9  O3'       50.1730   83.8420   56.7490 O.3     1  AHU1       -0.2204
     10  N1        46.4000   83.8350   54.2000 N.am    1  AHU1       -0.2021
     11  C6        46.2870   82.8540   53.2210 C.2     1  AHU1        0.0955
     12  C2        45.3360   84.5990   54.6420 C.1     1  AHU1        0.2826
     13  O2        45.3840   85.4550   55.5250 O.2     1  AHU1       -0.1919
     14  N3        44.1970   84.2580   53.9910 N.2     1  AHU1       -0.2448
     15  C4        44.0290   83.2970   52.9840 C.1     1  AHU1        0.2229
     16  O4        42.8920   83.2180   52.5420 O.2     1  AHU1       -0.2081
     17  C5        45.2050   82.5640   52.5870 C.2     1  AHU1        0.1404
     18  I         45.2930   81.1410   51.1000 I       1  AHU1       -0.0273
@<TRIPOS>BOND
     1    18    17    1
     2    16    15    2
     3    17    15    1
     4    17    11    2
     5    15    14    2
     6    11    10    1
     7     2     3    1
     8     2     1    1
     9     5     4    1
    10     5     6    1
    11    14    12    2
    12    10    12   am
    13    10     6    1
    14     4     1    1
    15     1     8    1
    16    12    13    2
    17     6     7    1
    18     7     8    1
    19     8     9    1
