@<TRIPOS>MOLECULE
1ki7_ID2_A_1.pdb
 17 18 0 0 0
SMALL
GASTEIGER

@<TRIPOS>ATOM
      1  C2        45.4900   84.6150   54.6470 C.1     1  ID21        0.2845
      2  C4        44.2990   83.2730   52.9440 C.1     1  ID21        0.2229
      3  C5        45.5110   82.6620   52.6490 C.2     1  ID21        0.1405
      4  C6        46.6490   83.0110   53.3330 C.2     1  ID21        0.0979
      5  O2        45.3330   85.5090   55.5000 O.2     1  ID21       -0.1918
      6  O5'       49.7210   81.8830   53.3150 O.3     1  ID21       -0.2176
      7  C5'       50.6490   82.9020   53.1400 C.3     1  ID21        0.2141
      8  C4'       50.2190   84.0180   54.1080 C.3     1  ID21        0.1802
      9  O4'       48.8670   84.4010   53.8300 O.3     1  ID21       -0.3338
     10  C1'       47.9450   84.3040   54.9560 C.3     1  ID21        0.2090
     11  N1        46.6630   83.9530   54.3200 N.am    1  ID21       -0.1786
     12  N3        44.4030   84.2040   53.9290 N.2     1  ID21       -0.2448
     13  O4        43.2180   83.0280   52.3940 O.2     1  ID21       -0.2081
     14  I         45.5170   81.2190   51.1000 I       1  ID21       -0.0273
     15  C2'       48.6570   83.2240   55.7490 C.3     1  ID21        0.0874
     16  C3'       50.1230   83.4780   55.5440 C.3     1  ID21        0.1858
     17  O3'       50.5320   84.4100   56.4580 O.3     1  ID21       -0.2203
@<TRIPOS>BOND
     1    14     3    1
     2    13     2    2
     3     3     2    1
     4     3     4    2
     5     2    12    2
     6     7     6    1
     7     7     8    1
     8     4    11    1
     9     9     8    1
    10     9    10    1
    11    12     1    2
    12     8    16    1
    13    11     1   am
    14    11    10    1
    15     1     5    2
    16    10    15    1
    17    16    15    1
    18    16    17    1
