@<TRIPOS>MOLECULE
1ki8_BVD_A_1.pdb
 19 20 0 0 0
SMALL
GASTEIGER

@<TRIPOS>ATOM
      1  O5'       49.9620   82.1260   52.8920 O.3     1  BVD1       -0.2176
      2  C5'       50.8040   83.2820   52.9440 C.3     1  BVD1        0.2141
      3  C4'       50.3550   84.2890   54.0370 C.3     1  BVD1        0.1802
      4  O4'       48.9890   84.7470   53.8470 O.3     1  BVD1       -0.3338
      5  C1'       47.9880   84.1970   54.7650 C.3     1  BVD1        0.2090
      6  N1        46.6660   83.8370   54.0930 N.am    1  BVD1       -0.1791
      7  C6        46.6210   82.8830   53.1080 C.2     1  BVD1        0.0920
      8  C2        45.5360   84.5120   54.4350 C.1     1  BVD1        0.2844
      9  O2        45.4400   85.2990   55.3690 O.2     1  BVD1       -0.1918
     10  N3        44.4760   84.2490   53.7050 N.2     1  BVD1       -0.2452
     11  C4        44.3540   83.2510   52.7830 C.1     1  BVD1        0.2175
     12  O4        43.2320   82.9460   52.4050 O.2     1  BVD1       -0.2085
     13  C5        45.5540   82.6110   52.3770 C.2     1  BVD1        0.1115
     14  C5A       45.6360   81.6060   51.4280 C.2     1  BVD1        0.0212
     15  C5B       44.7300   81.4950   50.4230 C.2     1  BVD1        0.0416
     16 BR         44.9170   80.1890   49.0100 Br      1  BVD1       -0.0485
     17  C2'       48.8110   83.1240   55.4510 C.3     1  BVD1        0.0874
     18  C3'       50.2660   83.6940   55.4400 C.3     1  BVD1        0.1858
     19  O3'       50.2960   84.8200   56.2760 O.3     1  BVD1       -0.2203
@<TRIPOS>BOND
     1    16    15    1
     2    15    14    2
     3    14    13    1
     4    13    11    1
     5    13     7    2
     6    12    11    2
     7    11    10    2
     8     1     2    1
     9     2     3    1
    10     7     6    1
    11    10     8    2
    12     4     3    1
    13     4     5    1
    14     3    18    1
    15     6     8   am
    16     6     5    1
    17     8     9    2
    18     5    17    1
    19    18    17    1
    20    18    19    1
