@<TRIPOS>MOLECULE
1kia_SAM_A_1.pdb
 27 29 0 0 0
SMALL
GASTEIGER

@<TRIPOS>ATOM
      1  N         36.7960   96.6790  110.4550 N.3   293  SAM293     -0.1208
      2  CA        38.2260   96.4860  110.8180 C.3   293  SAM293      0.1952
      3  C         38.5210   95.0200  110.9630 C.2   293  SAM293      0.3819
      4  O         37.6080   94.1960  110.7980 O.co2 293  SAM293     -0.2441
      5  OXT       39.7250   94.7570  111.2600 O.co2 293  SAM293     -0.2441
      6  CB        38.5250   97.1480  112.1540 C.3   293  SAM293      0.0414
      7  CG        37.5600   98.2250  112.4860 C.3   293  SAM293      0.0503
      8  SD        37.8260   99.0320  114.0760 S.3   293  SAM293     -0.1761
      9  CE        37.3610   97.8060  115.3160 C.3   293  SAM293      0.0590
     10  C5'       36.5810  100.2480  114.1900 C.3   293  SAM293      0.0806
     11  C4'       36.7550  101.3960  113.2370 C.3   293  SAM293      0.1622
     12  O4'       35.6720  102.3310  113.4300 O.3   293  SAM293     -0.3153
     13  C3'       38.0020  102.2120  113.5220 C.3   293  SAM293      0.2168
     14  O3'       38.9330  101.8390  112.4690 O.3   293  SAM293     -0.2175
     15  C2'       37.5920  103.6590  113.3570 C.3   293  SAM293      0.2569
     16  O2'       38.3840  104.5560  112.6240 O.3   293  SAM293     -0.2130
     17  C1'       36.1210  103.5430  112.9080 C.3   293  SAM293      0.3185
     18  N9        35.3000  104.6470  113.3760 N.pl3 293  SAM293     -0.1439
     19  C8        34.9250  104.9990  114.6520 C.3   293  SAM293      0.3377
     20  N7        34.1620  106.0630  114.7100 N.2   293  SAM293     -0.2095
     21  C5        34.0210  106.4420  113.3800 C.2   293  SAM293      0.2526
     22  C6        33.3170  107.5080  112.7400 C.2   293  SAM293      0.4393
     23  N6        32.5950  108.4220  113.4240 N.pl3 293  SAM293      0.2180
     24  N1        33.3760  107.6110  111.3710 N.2   293  SAM293      0.0021
     25  C2        34.1010  106.6890  110.6860 C.3   293  SAM293      0.5254
     26  N3        34.8000  105.6430  111.1810 N.2   293  SAM293     -0.0055
     27  C4        34.7200  105.5740  112.5460 C.2   293  SAM293      0.3518
@<TRIPOS>BOND
     1     1     2    1
     2    25    26    1
     3    25    24    1
     4     4     3   ar
     5     2     3    1
     6     2     6    1
     7     3     5   ar
     8    26    27    2
     9    24    22    2
    10     6     7    1
    11    14    13    1
    12     7     8    1
    13    27    18    1
    14    27    21    1
    15    16    15    1
    16    22    21    1
    17    22    23    1
    18    17    15    1
    19    17    18    1
    20    17    12    1
    21    11    12    1
    22    11    13    1
    23    11    10    1
    24    15    13    1
    25    18    19    1
    26    21    20    2
    27     8    10    1
    28     8     9    1
    29    19    20    1
