@<TRIPOS>MOLECULE
1kib_HEM_A_1.pdb
 43 50 0 0 0
SMALL
GASTEIGER

@<TRIPOS>ATOM
      1 FE         10.5100   27.8890    7.5610 Fe     90  HEM90       0.0000
      2  CHA       10.4540   30.8910    9.1890 C.2    90  HEM90       0.0000
      3  CHB       13.6010   28.5270    6.4590 C.2    90  HEM90       0.0000
      4  CHC       10.7680   24.7870    6.3740 C.2    90  HEM90       0.0000
      5  CHD        7.3290   27.3020    8.5570 C.2    90  HEM90       0.0000
      6  NA        11.6850   29.3750    7.7120 N.ar   90  HEM90       0.0000
      7  C1A       11.5020   30.5810    8.3720 C.ar   90  HEM90       0.0000
      8  C2A       12.6440   31.4330    8.1720 C.ar   90  HEM90       0.0000
      9  C3A       13.5630   30.7430    7.4910 C.ar   90  HEM90       0.0000
     10  C4A       12.9650   29.4740    7.1950 C.ar   90  HEM90       0.0000
     11  CMA       14.9490   31.2410    7.1300 C.3    90  HEM90       0.0000
     12  CAA       12.8030   32.8700    8.6050 C.3    90  HEM90       0.0000
     13  CBA       11.8510   33.7780    7.8630 C.3    90  HEM90       0.0000
     14  CGA       11.6810   35.0960    8.5540 C.2    90  HEM90       0.0000
     15  O1A       11.7650   35.1160    9.8000 O.co2  90  HEM90       0.0000
     16  O2A       11.4480   36.0970    7.8570 O.co2  90  HEM90       0.0000
     17  NB        11.8550   26.9090    6.6100 N.2    90  HEM90       0.0000
     18  C1B       13.0460   27.3480    6.1500 C.2    90  HEM90       0.0000
     19  C2B       13.7310   26.3700    5.3930 C.2    90  HEM90       0.0000
     20  C3B       13.0280   25.2240    5.4630 C.2    90  HEM90       0.0000
     21  C4B       11.8330   25.6060    6.2050 C.2    90  HEM90       0.0000
     22  CMB       14.9710   26.5980    4.5530 C.3    90  HEM90       0.0000
     23  CAB       13.3820   23.9790    4.9220 C.3    90  HEM90       0.0000
     24  CBB       14.3450   23.1330    5.4310 C.3    90  HEM90       0.0000
     25  NC         9.3450   26.3650    7.5560 N.ar   90  HEM90       0.0000
     26  C1C        9.6030   25.1540    6.9940 C.ar   90  HEM90       0.0000
     27  C2C        8.4370   24.3440    6.9130 C.ar   90  HEM90       0.0000
     28  C3C        7.4110   25.0220    7.4960 C.ar   90  HEM90       0.0000
     29  C4C        8.0180   26.2780    7.9380 C.ar   90  HEM90       0.0000
     30  CMC        8.3490   23.0500    6.0830 C.3    90  HEM90       0.0000
     31  CAC        6.0270   24.7110    7.4100 C.3    90  HEM90       0.0000
     32  CBC        5.3430   23.8940    8.2850 C.3    90  HEM90       0.0000
     33  ND         9.2050   28.8680    8.6080 N.2    90  HEM90       0.0000
     34  C1D        7.8840   28.5170    8.8650 C.2    90  HEM90       0.0000
     35  C2D        7.2460   29.4800    9.7100 C.2    90  HEM90       0.0000
     36  C3D        8.1540   30.4270   10.0040 C.2    90  HEM90       0.0000
     37  C4D        9.3700   30.0620    9.2990 C.2    90  HEM90       0.0000
     38  CMD        5.8280   29.4680   10.2230 C.3    90  HEM90       0.0000
     39  CAD        7.9410   31.6220   10.9360 C.3    90  HEM90       0.0000
     40  CBD        8.1490   31.2100   12.3880 C.3    90  HEM90       0.0000
     41  CGD        8.3450   32.3980   13.3180 C.2    90  HEM90       0.0000
     42  O1D        9.3430   33.1560   13.1360 O.co2  90  HEM90       0.0000
     43  O2D        7.4940   32.5570   14.2270 O.co2  90  HEM90       0.0000
@<TRIPOS>BOND
     1    22    19    1
     2    23    24    1
     3    23    20    1
     4    19    20    2
     5    19    18    1
     6    20    21    1
     7    30    27    1
     8    18     3    1
     9    18    17    2
    10    21     4    2
    11    21    17    1
    12     4    26    1
    13     3    10    2
    14    17     1    1
    15    27    26   ar
    16    27    28   ar
    17    26    25   ar
    18    11     9    1
    19    10     9   ar
    20    10     6   ar
    21    31    28    1
    22    31    32    1
    23     9     8   ar
    24    28    29   ar
    25    25     1    1
    26    25    29   ar
    27     1     6    1
    28     1    33    1
    29     6     7   ar
    30    16    14   ar
    31    13    14    1
    32    13    12    1
    33    29     5    1
    34     8     7   ar
    35     8    12    1
    36     7     2    2
    37    14    15   ar
    38     5    34    2
    39    33    34    1
    40    33    37    2
    41    34    35    1
    42     2    37    1
    43    37    36    1
    44    35    36    2
    45    35    38    1
    46    36    39    1
    47    39    40    1
    48    40    41    1
    49    42    41   ar
    50    41    43   ar
