@<TRIPOS>MOLECULE
1kic_NOS_A_1.pdb
 19 21 0 0 0
SMALL
GASTEIGER

@<TRIPOS>ATOM
      1  N9        -0.1470    3.6430   31.1240 N.pl3 801  NOS801     -0.1435
      2  C4         0.7180    3.4640   32.1710 C.2   801  NOS801      0.3528
      3  N3         2.0690    3.1830   32.1800 N.2   801  NOS801     -0.0334
      4  C2         2.5790    3.0760   33.4230 C.3   801  NOS801      0.4017
      5  N1         1.8110    3.2340   34.5640 N.2   801  NOS801     -0.1458
      6  C6         0.4370    3.5160   34.5830 C.1   801  NOS801      0.1792
      7  O6        -0.1440    3.6280   35.6640 O.2   801  NOS801     -0.2203
      8  C5        -0.1150    3.6390   33.2730 C.2   801  NOS801      0.2446
      9  N7        -1.4020    3.9070   32.8990 N.2   801  NOS801     -0.2054
     10  C8        -1.4120    3.9100   31.5520 C.3   801  NOS801      0.3382
     11  C5'       -2.7890    2.4570   28.8470 C.3   801  NOS801      0.2143
     12  O5'       -3.6800    3.5460   29.1430 O.3   801  NOS801     -0.2176
     13  C4'       -1.6590    2.9990   27.9630 C.3   801  NOS801      0.1851
     14  O4'       -0.9270    4.0800   28.6620 O.3   801  NOS801     -0.3134
     15  C1'        0.2110    3.5580   29.3780 C.3   801  NOS801      0.3186
     16  C2'        0.4320    2.1370   28.7030 C.3   801  NOS801      0.2570
     17  O2'        1.7730    2.0220   28.1320 O.3   801  NOS801     -0.2130
     18  C3'       -0.6490    1.9530   27.5830 C.3   801  NOS801      0.2186
     19  O3'       -0.0970    2.2320   26.2420 O.3   801  NOS801     -0.2174
@<TRIPOS>BOND
     1    19    18    1
     2    18    13    1
     3    18    16    1
     4    13    14    1
     5    13    11    1
     6    17    16    1
     7    14    15    1
     8    16    15    1
     9    11    12    1
    10    15     1    1
    11     1    10    1
    12     1     2    1
    13    10     9    1
    14     2     3    2
    15     2     8    1
    16     3     4    1
    17     9     8    2
    18     8     6    1
    19     4     5    1
    20     5     6    2
    21     6     7    2
