@<TRIPOS>MOLECULE
1kie_AD3_A_1.pdb
 19 21 0 0 0
SMALL
GASTEIGER

@<TRIPOS>ATOM
      1  O5'       -3.6040    3.5860   28.7630 O.3   801  AD3801     -0.2176
      2  C5'       -2.8830    2.4020   28.4250 C.3   801  AD3801      0.2142
      3  C4'       -1.7400    3.1160   27.7060 C.3   801  AD3801      0.1825
      4  O4'       -0.6700    4.0450   28.0900 O.3   801  AD3801     -0.3353
      5  C3'       -0.7700    2.0800   27.1340 C.3   801  AD3801      0.2156
      6  O3'        0.0270    2.2690   25.9630 O.3   801  AD3801     -0.2176
      7  C2'        0.3950    2.1550   28.1410 C.3   801  AD3801      0.2272
      8  O2'        1.6520    1.5480   27.8240 O.3   801  AD3801     -0.2161
      9  C1'        0.3590    3.5060   28.9050 C.3   801  AD3801      0.2115
     10  N9         0.6840    3.3760   30.4110 N.3   801  AD3801     -0.2195
     11  C8         1.9150    2.9710   30.9730 C.3   801  AD3801      0.2032
     12  N7         1.9360    2.9330   32.2890 N.2   801  AD3801     -0.2473
     13  C5         0.6400    3.3400   32.6480 C.2   801  AD3801      0.1645
     14  C6        -0.0370    3.5220   33.9390 C.2   801  AD3801      0.4302
     15  N6         0.5570    3.2960   35.1100 N.pl3 801  AD3801      0.2177
     16  N1        -1.3560    3.9460   33.9220 N.2   801  AD3801     -0.0279
     17  C2        -1.9930    4.1830   32.7330 C.2   801  AD3801      0.2332
     18  C3        -1.4860    4.0520   31.4630 C.2   801  AD3801      0.0464
     19  C4        -0.1400    3.6190   31.4960 C.3   801  AD3801      0.1351
@<TRIPOS>BOND
     1     6     5    1
     2     5     3    1
     3     5     7    1
     4     3     4    1
     5     3     2    1
     6     8     7    1
     7     4     9    1
     8     7     9    1
     9     2     1    1
    10     9    10    1
    11    10    11    1
    12    10    19    1
    13    11    12    1
    14    18    19    1
    15    18    17    2
    16    19    13    1
    17    12    13    2
    18    13    14    1
    19    17    16    1
    20    16    14    2
    21    14    15    1
