@<TRIPOS>MOLECULE
1kij_NOV_A_1.pdb
 44 47 0 0 0
SMALL
GASTEIGER

@<TRIPOS>ATOM
      1  C1        12.0070    3.1900   40.5080 C.3   400  NOV400      0.1743
      2  O1        13.2200    2.6300   40.9420 O.3   400  NOV400     -0.3474
      3  N1        12.6760   -2.0950   39.8600 N.am  400  NOV400     -0.0475
      4  C12       13.8270   -1.4220   40.0020 C.2   400  NOV400      0.4411
      5  O4        14.8040   -1.9590   40.4450 O.2   400  NOV400     -0.2228
      6  O5        13.7300   -0.1460   39.5540 O.3   400  NOV400     -0.4307
      7  C27       14.2710    2.4690   40.0450 C.3   400  NOV400      0.1826
      8  C28       14.7340    0.9740   39.8050 C.3   400  NOV400      0.2362
      9  C29       15.9120    0.9630   38.8430 C.3   400  NOV400      0.2636
     10  O6        15.6080    1.3840   37.5770 O.3   400  NOV400     -0.2123
     11  C30       17.0200    1.7620   39.4320 C.3   400  NOV400      0.3228
     12  O7        16.6360    3.1060   39.7760 O.3   400  NOV400     -0.3209
     13  C31       15.4600    3.3850   40.5050 C.3   400  NOV400      0.1248
     14  C23       15.7840    3.2630   41.9710 C.3   400  NOV400      0.0324
     15  C26       15.1850    4.8550   40.1940 C.3   400  NOV400      0.0324
     16  O8        17.2810    0.9920   40.5560 O.3   400  NOV400     -0.4507
     17  C3        18.4330    1.2010   41.2810 C.ar  400  NOV400      0.1403
     18  C4        18.6420    0.2810   42.3170 C.ar  400  NOV400      0.0469
     19  C2        17.6370   -0.7820   42.6450 C.3   400  NOV400      0.0374
     20  C5        19.8790    0.3370   42.9750 C.ar  400  NOV400      0.1507
     21  C9        20.8740    1.3230   42.6830 C.ar  400  NOV400      0.0750
     22  C10       20.6290    2.2670   41.6780 C.ar  400  NOV400      0.0094
     23  C11       19.4140    2.2130   41.0230 C.ar  400  NOV400      0.0370
     24  O10       20.1490   -0.5790   43.9540 O.2   400  NOV400     -0.4202
     25  C6        21.3220   -0.5680   44.6630 C.ar  400  NOV400      0.3645
     26  O11       21.4070   -1.3960   45.6230 O.2   400  NOV400     -0.2429
     27  C7        22.3180    0.3400   44.4030 C.ar  400  NOV400      0.1882
     28  C8        22.0860    1.3030   43.4340 C.ar  400  NOV400      0.2201
     29  O9        23.0570    2.2410   43.2600 O.3   400  NOV400     -0.2848
     30  N2        23.4740    0.3720   45.1680 N.am  400  NOV400     -0.1656
     31  C13       23.6550    0.5520   46.5150 C.2   400  NOV400      0.2693
     32  O2        24.5950    0.0090   47.0350 O.2   400  NOV400     -0.2680
     33  C14       22.7490    1.3750   47.3320 C.ar  400  NOV400      0.0553
     34  C15       22.3450    2.6120   46.8590 C.ar  400  NOV400      0.0038
     35  C16       21.3750    3.3320   47.5250 C.ar  400  NOV400      0.0212
     36  C17       20.9220    2.8680   48.8020 C.ar  400  NOV400      0.1920
     37  O3        20.0610    3.6560   49.5390 O.3   400  NOV400     -0.2869
     38  C18       21.4320    1.6990   49.3950 C.ar  400  NOV400      0.0419
     39  C19       22.2890    0.9150   48.6150 C.ar  400  NOV400      0.0078
     40  C20       20.9440    4.6210   46.8440 C.3   400  NOV400      0.0549
     41  C21       19.4220    4.6980   46.7590 C.2   400  NOV400     -0.0298
     42  C22       18.7430    4.4310   45.6300 C.2   400  NOV400     -0.0475
     43  C24       17.2850    4.7010   45.5300 C.3   400  NOV400      0.0260
     44  C25       19.3170    3.9290   44.3250 C.3   400  NOV400      0.0260
@<TRIPOS>BOND
     1    10     9    1
     2     9    11    1
     3     9     8    1
     4    11    12    1
     5    11    16    1
     6     6     8    1
     7     6     4    1
     8    12    13    1
     9     8     7    1
    10     3     4   am
    11     4     5    2
    12     7    13    1
    13     7     2    1
    14    15    13    1
    15    13    14    1
    16     1     2    1
    17    16    17    1
    18    23    17   ar
    19    23    22   ar
    20    17    18   ar
    21    22    21   ar
    22    18    19    1
    23    18    20   ar
    24    21    20   ar
    25    21    28   ar
    26    20    24   ar
    27    29    28    1
    28    28    27   ar
    29    24    25   ar
    30    44    42    1
    31    27    25   ar
    32    27    30    1
    33    25    26    2
    34    30    31   am
    35    43    42    1
    36    42    41    2
    37    31    32    2
    38    31    33    1
    39    41    40    1
    40    40    35    1
    41    34    33   ar
    42    34    35   ar
    43    33    39   ar
    44    35    36   ar
    45    39    38   ar
    46    36    38   ar
    47    36    37    1
