@<TRIPOS>MOLECULE
1kim_THM_A_1.pdb
 17 18 0 0 0
SMALL
GASTEIGER

@<TRIPOS>ATOM
      1  O5'       49.8620   81.4890   53.3950 O.3     1  THM1       -0.2176
      2  C5'       50.6530   82.6960   53.1460 C.3     1  THM1        0.2141
      3  C4'       50.2100   83.8730   53.9780 C.3     1  THM1        0.1802
      4  O4'       48.8690   84.3150   53.7850 O.3     1  THM1       -0.3338
      5  C3'       50.0970   83.5000   55.4340 C.3     1  THM1        0.1858
      6  O3'       50.1920   84.7150   56.1060 O.3     1  THM1       -0.2203
      7  C2'       48.6470   83.0620   55.5660 C.3     1  THM1        0.0874
      8  C1'       47.8840   84.1120   54.8510 C.3     1  THM1        0.2090
      9  N1        46.5950   83.7900   54.2130 N.am    1  THM1       -0.1794
     10  C2        45.5000   84.4820   54.5160 C.1     1  THM1        0.2844
     11  O2        45.4190   85.3720   55.3520 O.2     1  THM1       -0.1918
     12  N3        44.3790   84.1180   53.7800 N.2     1  THM1       -0.2455
     13  C4        44.2580   83.0990   52.8250 C.1     1  THM1        0.2134
     14  O4        43.1510   82.8440   52.3020 O.2     1  THM1       -0.2088
     15  C5        45.4650   82.4340   52.6150 C.2     1  THM1        0.0891
     16  C5M       45.5600   81.2770   51.6420 C.3     1  THM1        0.0462
     17  C6        46.5560   82.7900   53.3050 C.2     1  THM1        0.0877
@<TRIPOS>BOND
     1    16    15    1
     2    14    13    2
     3    15    13    1
     4    15    17    2
     5    13    12    2
     6     2     1    1
     7     2     3    1
     8    17     9    1
     9    12    10    2
    10     4     3    1
    11     4     8    1
    12     3     5    1
    13     9    10   am
    14     9     8    1
    15    10    11    2
    16     8     7    1
    17     5     7    1
    18     5     6    1
