@<TRIPOS>MOLECULE
1kiu_MMA_B_1.pdb
 13 13 0 0 0
SMALL
GASTEIGER

@<TRIPOS>ATOM
      1  C1        85.8460  -12.8840    3.2710 C.3   500  MMA500      0.2695
      2  C2        84.9210  -11.6010    3.1130 C.3   500  MMA500      0.2406
      3  C3        85.6290  -10.4480    3.7590 C.3   500  MMA500      0.2198
      4  C4        85.9140  -10.7520    5.2200 C.3   500  MMA500      0.2144
      5  C5        86.8080  -11.9780    5.3170 C.3   500  MMA500      0.1835
      6  C6        87.0580  -12.2930    6.7870 C.3   500  MMA500      0.2142
      7  C7        87.2700  -13.6330    1.5490 C.3   500  MMA500      0.1769
      8  O1        87.0960  -12.6580    2.5410 O.3   500  MMA500     -0.3259
      9  O2        83.6740  -11.7470    3.7620 O.3   500  MMA500     -0.2149
     10  O3        84.8220   -9.3060    3.6580 O.3   500  MMA500     -0.2174
     11  O4        86.5630   -9.6250    5.7600 O.3   500  MMA500     -0.2176
     12  O5        86.1320  -13.0970    4.7130 O.3   500  MMA500     -0.3256
     13  O6        85.8090  -12.5300    7.4090 O.3   500  MMA500     -0.2176
@<TRIPOS>BOND
     1     7     8    1
     2     8     1    1
     3     2     1    1
     4     2     3    1
     5     2     9    1
     6     1    12    1
     7    10     3    1
     8     3     4    1
     9    12     5    1
    10     4     5    1
    11     4    11    1
    12     5     6    1
    13     6    13    1
