@<TRIPOS>MOLECULE
1kj1_MAN_A_1.pdb
 12 12 0 0 0
SMALL
GASTEIGER

@<TRIPOS>ATOM
      1  C1        74.8120   -2.5510   29.5250 C.3   300  MAN300      0.3024
      2  C2        74.4850   -1.5480   28.4080 C.3   300  MAN300      0.2434
      3  C3        74.2200   -2.2860   27.0850 C.3   300  MAN300      0.2199
      4  C4        75.3760   -3.2340   26.7640 C.3   300  MAN300      0.2144
      5  C5        75.5800   -4.1710   27.9540 C.3   300  MAN300      0.1836
      6  C6        76.6920   -5.1790   27.7670 C.3   300  MAN300      0.2142
      7  O1        73.7140   -3.3650   29.7640 O.3   300  MAN300     -0.1869
      8  O2        75.5640   -0.6390   28.2520 O.3   300  MAN300     -0.2148
      9  O3        74.0700   -1.3470   26.0330 O.3   300  MAN300     -0.2174
     10  O4        75.0830   -3.9810   25.5940 O.3   300  MAN300     -0.2176
     11  O5        75.9000   -3.3930   29.1270 O.3   300  MAN300     -0.3236
     12  O6        77.0460   -5.7810   29.0030 O.3   300  MAN300     -0.2176
@<TRIPOS>BOND
     1    10     4    1
     2     9     3    1
     3     4     3    1
     4     4     5    1
     5     3     2    1
     6     6     5    1
     7     6    12    1
     8     5    11    1
     9     8     2    1
    10     2     1    1
    11    11     1    1
    12     1     7    1
