@<TRIPOS>MOLECULE
1kj2_SIA_A_1.pdb
 20 20 0 0 0
SMALL
GASTEIGER

@<TRIPOS>ATOM
      1  C1        37.5380  -18.5250   67.4370 C.2   207  SIA207      0.3914
      2  C2        38.3990  -19.5950   68.1140 C.3   207  SIA207      0.2203
      3  C3        39.8760  -19.3980   67.7160 C.3   207  SIA207      0.0760
      4  C4        40.4270  -18.0710   68.2620 C.3   207  SIA207      0.1773
      5  C5        40.1470  -17.9500   69.7660 C.3   207  SIA207      0.1552
      6  C6        38.6380  -18.1220   69.9890 C.3   207  SIA207      0.1710
      7  C7        38.2320  -17.9100   71.4470 C.3   207  SIA207      0.2134
      8  C8        36.7100  -18.0750   71.6130 C.3   207  SIA207      0.2173
      9  C9        36.2790  -17.6660   73.0200 C.3   207  SIA207      0.2175
     10  C10       41.7610  -16.5540   70.8860 C.2   207  SIA207      0.2420
     11  C11       41.7290  -16.0770   72.3290 C.3   207  SIA207      0.0964
     12  N5        40.5960  -16.6590   70.2520 N.am  207  SIA207     -0.2020
     13  O1A       36.4520  -18.2000   67.9730 O.co2 207  SIA207     -0.2430
     14  O1B       37.9490  -18.0020   66.3760 O.co2 207  SIA207     -0.2430
     15  O4        41.8270  -17.9940   68.0270 O.3   207  SIA207     -0.2211
     16  O6        38.2330  -19.4380   69.5360 O.3   207  SIA207     -0.3429
     17  O7        38.9200  -18.8400   72.2750 O.3   207  SIA207     -0.2176
     18  O8        36.0290  -17.2700   70.6580 O.3   207  SIA207     -0.2175
     19  O9        34.8700  -17.7890   73.1500 O.3   207  SIA207     -0.2175
     20  O10       42.8370  -16.8370   70.3580 O.2   207  SIA207     -0.2733
@<TRIPOS>BOND
     1    14     1   ar
     2     1    13   ar
     3     1     2    1
     4     3     2    1
     5     3     4    1
     6    15     4    1
     7     2    16    1
     8     4     5    1
     9    16     6    1
    10     5     6    1
    11     5    12    1
    12     6     7    1
    13    12    10   am
    14    20    10    2
    15    18     8    1
    16    10    11    1
    17     7     8    1
    18     7    17    1
    19     8     9    1
    20     9    19    1
