@<TRIPOS>MOLECULE
1kj8_ATP_A_1.pdb
 31 33 0 0 0
SMALL
GASTEIGER

@<TRIPOS>ATOM
      1  PG        30.5400   46.6080   25.9760 P.3     1  ATP1        0.5373
      2  O1G       29.1610   46.1550   25.4410 O.3     1  ATP1       -0.1143
      3  O2G       31.5600   46.6050   24.8720 O.2     1  ATP1       -0.2221
      4  O3G       31.0020   45.7310   27.2460 O.3     1  ATP1       -0.1143
      5  PB        30.8350   48.8390   27.8120 P.3     1  ATP1        0.2277
      6  O1B       29.6230   49.2590   28.5930 O.3     1  ATP1       -0.4368
      7  O2B       31.8180   48.0080   28.5720 O.2     1  ATP1       -0.5168
      8  O3B       30.3790   48.1470   26.4660 O.3     1  ATP1       -0.2258
      9  PA        33.0430   50.4090   26.7510 P.3     1  ATP1        0.2189
     10  O1A       33.9840   50.5860   27.8860 O.3     1  ATP1       -0.4371
     11  O2A       33.4910   49.3090   25.8300 O.2     1  ATP1       -0.5170
     12  O3A       31.5830   50.1460   27.3550 O.3     1  ATP1       -0.2700
     13  O5'       32.8520   51.8240   26.0090 O.3     1  ATP1       -0.3112
     14  C5'       31.9340   51.8540   24.8740 C.3     1  ATP1        0.1813
     15  C4'       32.5020   52.7370   23.7770 C.3     1  ATP1        0.1821
     16  O4'       32.7490   54.0970   24.3030 O.3     1  ATP1       -0.3135
     17  C3'       33.8600   52.3080   23.2290 C.3     1  ATP1        0.2184
     18  O3'       33.7730   51.2350   22.2990 O.3     1  ATP1       -0.2174
     19  C2'       34.3740   53.6500   22.6870 C.3     1  ATP1        0.2570
     20  O2'       33.7210   53.9940   21.4700 O.3     1  ATP1       -0.2130
     21  C1'       33.9570   54.6110   23.8120 C.3     1  ATP1        0.3186
     22  N9        34.9800   54.6550   24.8920 N.pl3   1  ATP1       -0.1439
     23  C8        35.0370   53.9680   26.0710 C.3     1  ATP1        0.3377
     24  N7        36.0710   54.3500   26.8340 N.2     1  ATP1       -0.2095
     25  C5        36.7420   55.2880   26.0950 C.2     1  ATP1        0.2526
     26  C6        37.8850   56.0880   26.4180 C.2     1  ATP1        0.4393
     27  N6        38.5740   56.0810   27.4880 N.pl3   1  ATP1        0.2180
     28  N1        38.2020   56.9220   25.3790 N.2     1  ATP1        0.0021
     29  C2        37.5360   57.0500   24.1870 C.3     1  ATP1        0.5254
     30  N3        36.4550   56.3610   23.9100 N.2     1  ATP1       -0.0055
     31  C4        36.1100   55.4700   24.8820 C.2     1  ATP1        0.3518
@<TRIPOS>BOND
     1    20    19    1
     2    18    17    1
     3    19    17    1
     4    19    21    1
     5    17    15    1
     6    15    16    1
     7    15    14    1
     8    21    16    1
     9    21    22    1
    10    30    29    1
    11    30    31    2
    12    29    28    1
    13     3     1    2
    14    14    13    1
    15    31    22    1
    16    31    25    1
    17    22    23    1
    18    28    26    2
    19     2     1    1
    20    11     9    2
    21     1     8    1
    22     1     4    1
    23    13     9    1
    24    23    24    1
    25    25    26    1
    26    25    24    2
    27    26    27    1
    28     8     5    1
    29     9    12    1
    30     9    10    1
    31    12     5    1
    32     5     7    2
    33     5     6    1
