@<TRIPOS>MOLECULE
1kj8_GAR_A_1.pdb
 18 18 0 0 0
SMALL
GASTEIGER

@<TRIPOS>ATOM
      1  C1        23.6440   39.0060   26.1800 C.3   399  GAR399      0.2159
      2  O6        23.0000   37.7830   26.6060 O.3   399  GAR399     -0.2175
      3  C2        24.6910   38.9110   25.0760 C.3   399  GAR399      0.2325
      4  O8        24.3490   37.8950   24.1110 O.3   399  GAR399     -0.2157
      5  C3        24.6320   40.2980   24.4730 C.3   399  GAR399      0.2447
      6  O4        23.3650   40.8310   24.7610 O.3   399  GAR399     -0.3316
      7  C5        22.5990   39.9320   25.5650 C.3   399  GAR399      0.1801
      8  C10       21.6270   40.7080   26.4140 C.3   399  GAR399      0.1859
      9  O12       20.6540   41.4060   25.6270 O.3   399  GAR399     -0.2675
     10  N19       25.5960   41.1650   25.1120 N.am  399  GAR399     -0.1738
     11  C21       26.3160   42.1220   24.5110 C.2   399  GAR399      0.2629
     12  O22       26.2370   42.3070   23.3210 O.2   399  GAR399     -0.2716
     13  C23       27.2340   42.9640   25.3330 C.3   399  GAR399      0.1956
     14  N24       28.0570   43.8310   24.4570 N.3   399  GAR399     -0.1210
     15  P15       19.2870   41.9660   26.2840 P.3   399  GAR399      0.5327
     16  O16       19.7140   43.1710   27.1430 O.3   399  GAR399     -0.1145
     17  O17       18.5370   40.9020   27.0560 O.3   399  GAR399     -0.1145
     18  O18       18.4780   42.4070   25.0410 O.2   399  GAR399     -0.2224
@<TRIPOS>BOND
     1    12    11    2
     2     4     3    1
     3    14    13    1
     4     5     6    1
     5     5     3    1
     6     5    10    1
     7    11    10   am
     8    11    13    1
     9     6     7    1
    10    18    15    2
    11     3     1    1
    12     7     1    1
    13     7     8    1
    14     9    15    1
    15     9     8    1
    16     1     2    1
    17    15    17    1
    18    15    16    1
