@<TRIPOS>MOLECULE
1kj9_ATP_A_1.pdb
 31 33 0 0 0
SMALL
GASTEIGER

@<TRIPOS>ATOM
      1  PG        30.2090   47.1290   25.9730 P.3     1  ATP1        0.5373
      2  O1G       28.8300   46.7800   25.4710 O.3     1  ATP1       -0.1143
      3  O2G       31.2520   47.1490   24.9090 O.2     1  ATP1       -0.2221
      4  O3G       30.6670   46.2860   27.2270 O.3     1  ATP1       -0.1143
      5  PB        30.5790   49.3250   27.8500 P.3     1  ATP1        0.2277
      6  O1B       29.4580   49.7760   28.7370 O.3     1  ATP1       -0.4368
      7  O2B       31.5990   48.4890   28.5900 O.2     1  ATP1       -0.5168
      8  O3B       30.0950   48.6510   26.4830 O.3     1  ATP1       -0.2258
      9  PA        32.7750   50.8400   26.7210 P.3     1  ATP1        0.2189
     10  O1A       33.8470   50.9810   27.8040 O.3     1  ATP1       -0.4371
     11  O2A       33.0470   49.7390   25.7240 O.2     1  ATP1       -0.5170
     12  O3A       31.3350   50.6600   27.4090 O.3     1  ATP1       -0.2700
     13  O5'       32.7140   52.2020   25.8810 O.3     1  ATP1       -0.3112
     14  C5'       31.7200   52.2750   24.8450 C.3     1  ATP1        0.1813
     15  C4'       32.2720   53.1440   23.7280 C.3     1  ATP1        0.1821
     16  O4'       32.6100   54.4780   24.2410 O.3     1  ATP1       -0.3135
     17  C3'       33.5700   52.6250   23.1270 C.3     1  ATP1        0.2184
     18  O3'       33.3430   51.5160   22.2330 O.3     1  ATP1       -0.2174
     19  C2'       34.1560   53.9570   22.5810 C.3     1  ATP1        0.2570
     20  O2'       33.5060   54.3490   21.3660 O.3     1  ATP1       -0.2130
     21  C1'       33.7990   54.9560   23.6780 C.3     1  ATP1        0.3186
     22  N9        34.8370   55.0260   24.7220 N.pl3   1  ATP1       -0.1439
     23  C8        34.9180   54.2980   25.8910 C.3     1  ATP1        0.3377
     24  N7        35.9560   54.6750   26.6630 N.2     1  ATP1       -0.2095
     25  C5        36.6120   55.6590   25.9290 C.2     1  ATP1        0.2526
     26  C6        37.7880   56.4310   26.2420 C.2     1  ATP1        0.4393
     27  N6        38.4860   56.3880   27.3000 N.pl3   1  ATP1        0.2180
     28  N1        38.1060   57.2970   25.2360 N.2     1  ATP1        0.0021
     29  C2        37.3940   57.4560   24.0670 C.3     1  ATP1        0.5254
     30  N3        36.3040   56.7870   23.7700 N.2     1  ATP1       -0.0055
     31  C4        35.9540   55.8740   24.7280 C.2     1  ATP1        0.3518
@<TRIPOS>BOND
     1    20    19    1
     2    18    17    1
     3    19    17    1
     4    19    21    1
     5    17    15    1
     6    21    16    1
     7    21    22    1
     8    15    16    1
     9    15    14    1
    10    30    29    1
    11    30    31    2
    12    29    28    1
    13    22    31    1
    14    22    23    1
    15    31    25    1
    16    14    13    1
    17     3     1    2
    18    28    26    2
    19     2     1    1
    20    11     9    2
    21    13     9    1
    22    23    24    1
    23    25    26    1
    24    25    24    2
    25     1     8    1
    26     1     4    1
    27    26    27    1
    28     8     5    1
    29     9    12    1
    30     9    10    1
    31    12     5    1
    32     5     7    2
    33     5     6    1
