@<TRIPOS>MOLECULE
1kji_ACP_A_1.pdb
 31 33 0 0 0
SMALL
GASTEIGER

@<TRIPOS>ATOM
      1  PG        30.1190   47.1190   26.4030 P.3     1  ACP1        0.1295
      2  O1G       28.7720   46.6320   25.9600 O.3     1  ACP1       -0.3567
      3  O2G       31.0360   47.0460   25.2150 O.2     1  ACP1       -0.4595
      4  O3G       30.6720   46.1220   27.5380 O.3     1  ACP1       -0.3567
      5  PB        30.6720   49.2370   28.1140 P.3     1  ACP1        0.3815
      6  O1B       29.6270   49.5630   29.1530 O.3     1  ACP1       -0.1391
      7  O2B       31.7810   48.4180   28.7620 O.2     1  ACP1       -0.2547
      8  C3B       29.9990   48.6070   26.8500 C.3     1  ACP1        0.1768
      9  PA        32.7930   50.8830   26.9670 P.3     1  ACP1        0.2209
     10  O1A       33.8920   50.9850   27.9870 O.3     1  ACP1       -0.4371
     11  O2A       33.1540   49.7640   26.0540 O.2     1  ACP1       -0.5170
     12  O3A       31.3650   50.6420   27.6640 O.3     1  ACP1       -0.2483
     13  O5'       32.7220   52.2070   26.0880 O.3     1  ACP1       -0.3111
     14  C5'       31.7700   52.2640   24.9930 C.3     1  ACP1        0.1813
     15  C4'       32.3210   53.1980   23.9120 C.3     1  ACP1        0.1821
     16  O4'       32.6600   54.5530   24.4040 O.3     1  ACP1       -0.3135
     17  C3'       33.6110   52.6960   23.2780 C.3     1  ACP1        0.2184
     18  O3'       33.3870   51.5330   22.4370 O.3     1  ACP1       -0.2174
     19  C2'       34.1730   54.0240   22.7180 C.3     1  ACP1        0.2570
     20  O2'       33.4490   54.4190   21.5470 O.3     1  ACP1       -0.2130
     21  C1'       33.8430   55.0140   23.8270 C.3     1  ACP1        0.3186
     22  N9        34.8850   55.0580   24.8630 N.pl3   1  ACP1       -0.1439
     23  C8        35.0050   54.3180   25.9990 C.3     1  ACP1        0.3377
     24  N7        36.0290   54.6840   26.7900 N.2     1  ACP1       -0.2095
     25  C5        36.6330   55.7070   26.0800 C.2     1  ACP1        0.2526
     26  C6        37.7630   56.5090   26.4000 C.2     1  ACP1        0.4393
     27  N6        38.4860   56.4630   27.4350 N.pl3   1  ACP1        0.2180
     28  N1        38.0180   57.3970   25.3930 N.2     1  ACP1        0.0021
     29  C2        37.3060   57.5760   24.2170 C.3     1  ACP1        0.5254
     30  N3        36.2560   56.8500   23.9110 N.2     1  ACP1       -0.0055
     31  C4        35.9610   55.9240   24.8740 C.2     1  ACP1        0.3518
@<TRIPOS>BOND
     1    20    19    1
     2    18    17    1
     3    19    17    1
     4    19    21    1
     5    17    15    1
     6    21    16    1
     7    21    22    1
     8    30    29    1
     9    30    31    2
    10    15    16    1
    11    15    14    1
    12    29    28    1
    13    22    31    1
    14    22    23    1
    15    31    25    1
    16    14    13    1
    17     3     1    2
    18    28    26    2
    19     2     1    1
    20    23    24    1
    21    11     9    2
    22    25    26    1
    23    25    24    2
    24    13     9    1
    25    26    27    1
    26     1     8    1
    27     1     4    1
    28     8     5    1
    29     9    12    1
    30     9    10    1
    31    12     5    1
    32     5     7    2
    33     5     6    1
