@<TRIPOS>MOLECULE
1kjj_AGS_A_1.pdb
 31 33 0 0 0
SMALL
GASTEIGER

@<TRIPOS>ATOM
      1  PG        29.9270   47.4650   25.9830 P.3     1  AGS1        0.4340
      2  S1G       28.4840   46.8620   25.3970 S.3     1  AGS1        0.0416
      3  O2G       30.9430   47.5340   24.8580 O.2     1  AGS1       -0.2423
      4  O3G       30.4480   46.5460   27.2030 O.3     1  AGS1       -0.1305
      5  PB        30.1730   49.5400   27.9070 P.3     1  AGS1        0.2262
      6  O1B       29.0410   49.8290   28.8750 O.3     1  AGS1       -0.4369
      7  O2B       31.1000   48.5450   28.5610 O.2     1  AGS1       -0.5168
      8  O3B       29.6600   48.9500   26.5230 O.3     1  AGS1       -0.2405
      9  PA        32.4170   50.9530   26.9150 P.3     1  AGS1        0.2189
     10  O1A       33.5340   51.0160   27.9210 O.3     1  AGS1       -0.4371
     11  O2A       32.7780   49.8440   25.9920 O.2     1  AGS1       -0.5170
     12  O3A       30.9880   50.8780   27.5730 O.3     1  AGS1       -0.2701
     13  O5'       32.3630   52.3140   26.1160 O.3     1  AGS1       -0.3112
     14  C5'       31.3580   52.5070   25.0710 C.3     1  AGS1        0.1813
     15  C4'       31.9360   53.2770   23.8780 C.3     1  AGS1        0.1821
     16  O4'       32.3000   54.6310   24.2900 O.3     1  AGS1       -0.3135
     17  C3'       33.2150   52.7180   23.2670 C.3     1  AGS1        0.2184
     18  O3'       32.9420   51.6340   22.3830 O.3     1  AGS1       -0.2174
     19  C2'       33.8320   53.9950   22.6930 C.3     1  AGS1        0.2570
     20  O2'       33.1220   54.3440   21.5130 O.3     1  AGS1       -0.2130
     21  C1'       33.5100   55.0470   23.7540 C.3     1  AGS1        0.3186
     22  N9        34.5040   55.1500   24.8400 N.pl3   1  AGS1       -0.1439
     23  C8        34.6170   54.4030   25.9790 C.3     1  AGS1        0.3377
     24  N7        35.6660   54.7770   26.7710 N.2     1  AGS1       -0.2095
     25  C5        36.2680   55.8060   26.0810 C.2     1  AGS1        0.2526
     26  C6        37.4140   56.5840   26.3880 C.2     1  AGS1        0.4393
     27  N6        38.1550   56.5440   27.4000 N.pl3   1  AGS1        0.2180
     28  N1        37.6600   57.4680   25.3740 N.2     1  AGS1        0.0021
     29  C2        36.9440   57.6780   24.2110 C.3     1  AGS1        0.5254
     30  N3        35.8980   56.9550   23.9200 N.2     1  AGS1       -0.0055
     31  C4        35.5660   56.0520   24.8820 C.2     1  AGS1        0.3518
@<TRIPOS>BOND
     1    20    19    1
     2    18    17    1
     3    19    17    1
     4    19    21    1
     5    17    15    1
     6    21    16    1
     7    21    22    1
     8    15    16    1
     9    15    14    1
    10    30    29    1
    11    30    31    2
    12    29    28    1
    13    22    31    1
    14    22    23    1
    15     3     1    2
    16    31    25    1
    17    14    13    1
    18    28    26    2
    19     2     1    1
    20    23    24    1
    21     1     8    1
    22     1     4    1
    23    11     9    2
    24    25    26    1
    25    25    24    2
    26    13     9    1
    27    26    27    1
    28     8     5    1
    29     9    12    1
    30     9    10    1
    31    12     5    1
    32     5     7    2
    33     5     6    1
