@<TRIPOS>MOLECULE
1kjl_GAL_A_1.pdb
 11 11 0 0 0
SMALL
GASTEIGER

@<TRIPOS>ATOM
      1  C1        -2.1080   -8.7320    1.3150 C.3   501  GAL501      0.1777
      2  C2        -0.6240   -9.0960    1.2430 C.3   501  GAL501      0.2141
      3  C3         0.2600   -7.8790    1.5660 C.3   501  GAL501      0.2173
      4  C4        -0.1280   -6.7110    0.6860 C.3   501  GAL501      0.2142
      5  C5        -1.6310   -6.4330    0.8290 C.3   501  GAL501      0.1810
      6  C6        -2.1040   -5.3380   -0.0850 C.3   501  GAL501      0.2141
      7  O2        -0.3490  -10.1410    2.1690 O.3   501  GAL501     -0.2176
      8  O3         1.6220   -8.2100    1.3110 O.3   501  GAL501     -0.2175
      9  O4         0.1870   -7.0310   -0.6720 O.3   501  GAL501     -0.2176
     10  O5        -2.3850   -7.6040    0.4600 O.3   501  GAL501     -0.3481
     11  O6        -3.4690   -5.0370    0.1750 O.3   501  GAL501     -0.2176
@<TRIPOS>BOND
     1     9     4    1
     2     6    11    1
     3     6     5    1
     4    10     5    1
     5    10     1    1
     6     4     5    1
     7     4     3    1
     8     2     1    1
     9     2     3    1
    10     2     7    1
    11     8     3    1
