@<TRIPOS>MOLECULE
1kjl_NAG_A_1.pdb
 15 15 0 0 0
SMALL
GASTEIGER

@<TRIPOS>ATOM
      1  C1        -6.8200  -11.1440    1.0470 C.3   502  NAG502      0.2917
      2  C2        -6.4840  -10.2090   -0.1460 C.3   502  NAG502      0.1871
      3  C3        -4.9510  -10.1090   -0.3120 C.3   502  NAG502      0.2095
      4  C4        -4.2910   -9.7030    1.0130 C.3   502  NAG502      0.2136
      5  C5        -4.7340  -10.6920    2.1040 C.3   502  NAG502      0.1835
      6  C6        -4.1840  -10.3470    3.4640 C.3   502  NAG502      0.2142
      7  C7        -8.3660  -10.6370   -1.6330 C.2   502  NAG502      0.2421
      8  C8        -8.8880  -11.2980   -2.9130 C.3   502  NAG502      0.0964
      9  N2        -7.0590  -10.7250   -1.3750 N.am  502  NAG502     -0.1991
     10  O1        -8.1720  -11.0880    1.3100 O.3   502  NAG502     -0.1879
     11  O3        -4.6210   -9.1710   -1.3430 O.3   502  NAG502     -0.2183
     12  O4        -2.8680   -9.7910    0.8600 O.3   502  NAG502     -0.2176
     13  O5        -6.1640  -10.6820    2.2220 O.3   502  NAG502     -0.3242
     14  O6        -4.3960   -8.9890    3.7730 O.3   502  NAG502     -0.2176
     15  O7        -9.1670  -10.0460   -0.8920 O.2   502  NAG502     -0.2733
@<TRIPOS>BOND
     1     8     7    1
     2     7     9   am
     3     7    15    2
     4     9     2    1
     5    11     3    1
     6     3     2    1
     7     3     4    1
     8     2     1    1
     9    12     4    1
    10     4     5    1
    11     1    10    1
    12     1    13    1
    13     5    13    1
    14     5     6    1
    15     6    14    1
