@<TRIPOS>MOLECULE
1kjp_GLU_A_1.pdb
 10 9 0 0 0
SMALL
GASTEIGER

@<TRIPOS>ATOM
      1  N         35.0920   40.7200   61.1890 N.3   1317  GLU1317    -0.1208
      2  CA        35.4670   40.8350   59.8270 C.3   1317  GLU1317     0.1949
      3  C         35.7920   42.3180   59.5850 C.2   1317  GLU1317     0.3819
      4  O         34.9880   43.1670   60.0540 O.co2 1317  GLU1317    -0.2441
      5  CB        34.4330   40.2360   58.8650 C.3   1317  GLU1317     0.0424
      6  CG        34.7760   40.3260   57.3390 C.3   1317  GLU1317     0.1161
      7  CD        33.6410   39.8700   56.4400 C.2   1317  GLU1317     0.3649
      8  OE1       32.6750   40.6380   56.3470 O.co2 1317  GLU1317    -0.2457
      9  OE2       33.7420   38.7650   55.8440 O.co2 1317  GLU1317    -0.2457
     10  OXT       36.8390   42.5550   58.9320 O.co2 1317  GLU1317    -0.2441
@<TRIPOS>BOND
     1     9     7   ar
     2     8     7   ar
     3     7     6    1
     4     6     5    1
     5     5     2    1
     6    10     3   ar
     7     3     2    1
     8     3     4   ar
     9     2     1    1
