@<TRIPOS>MOLECULE
1kjq_ADP_A_1.pdb
 27 29 0 0 0
SMALL
GASTEIGER

@<TRIPOS>ATOM
      1  PB        -0.7120   48.5650   10.7430 P.3     1  ADP1        0.5373
      2  O1B        0.4930   49.4320   10.8240 O.3     1  ADP1       -0.1143
      3  O2B       -0.6960   47.6210    9.5750 O.2     1  ADP1       -0.2221
      4  O3B       -1.1290   47.9210   12.1130 O.3     1  ADP1       -0.1143
      5  PA        -3.0810   50.1070   11.2300 P.3     1  ADP1        0.2231
      6  O1A       -4.2410   50.4090   10.3070 O.2     1  ADP1       -0.5169
      7  O2A       -3.3860   49.1460   12.3510 O.3     1  ADP1       -0.4370
      8  O3A       -1.8700   49.5990   10.3780 O.3     1  ADP1       -0.2261
      9  O5'       -2.6110   51.5560   11.7010 O.3     1  ADP1       -0.3111
     10  C5'       -1.6010   51.7070   12.7460 C.3     1  ADP1        0.1813
     11  C4'       -2.0380   52.6110   13.9080 C.3     1  ADP1        0.1821
     12  O4'       -2.2610   53.9560   13.4120 O.3     1  ADP1       -0.3135
     13  C3'       -3.3610   52.2650   14.5910 C.3     1  ADP1        0.2184
     14  O3'       -3.1010   51.2120   15.5410 O.3     1  ADP1       -0.2174
     15  C2'       -3.7360   53.6220   15.2050 C.3     1  ADP1        0.2570
     16  O2'       -2.8920   53.9870   16.3020 O.3     1  ADP1       -0.2130
     17  C1'       -3.3720   54.5730   14.0500 C.3     1  ADP1        0.3186
     18  N9        -4.5020   54.6790   13.0660 N.pl3   1  ADP1       -0.1439
     19  C8        -4.6590   53.9650   11.9290 C.3     1  ADP1        0.3377
     20  N7        -5.7300   54.3480   11.2140 N.2     1  ADP1       -0.2095
     21  C5        -6.2860   55.3360   11.9650 C.2     1  ADP1        0.2526
     22  C6        -7.4330   56.1620   11.7220 C.2     1  ADP1        0.4393
     23  N6        -8.1920   56.1290   10.6830 N.pl3   1  ADP1        0.2180
     24  N1        -7.6650   57.0690   12.7150 N.2     1  ADP1        0.0021
     25  C2        -6.8700   57.1860   13.8330 C.3     1  ADP1        0.5254
     26  N3        -5.8180   56.4290   14.0790 N.2     1  ADP1       -0.0055
     27  C4        -5.5520   55.5440   13.1200 C.2     1  ADP1        0.3518
@<TRIPOS>BOND
     1     3     1    2
     2     6     5    2
     3     8     1    1
     4     8     5    1
     5    23    22    1
     6     1     2    1
     7     1     4    1
     8    20    19    1
     9    20    21    2
    10     5     9    1
    11     5     7    1
    12     9    10    1
    13    22    21    1
    14    22    24    2
    15    19    18    1
    16    21    27    1
    17    24    25    1
    18    10    11    1
    19    18    27    1
    20    18    17    1
    21    27    26    2
    22    12    11    1
    23    12    17    1
    24    25    26    1
    25    11    13    1
    26    17    15    1
    27    13    15    1
    28    13    14    1
    29    15    16    1
