@<TRIPOS>MOLECULE
1kjr_NAG_A_1.pdb
 15 15 0 0 0
SMALL
GASTEIGER

@<TRIPOS>ATOM
      1  C1        -6.9250  -11.3630    1.2440 C.3   502  NAG502      0.2917
      2  C2        -6.7210  -10.4140    0.0340 C.3   502  NAG502      0.1871
      3  C3        -5.1990  -10.3290   -0.1730 C.3   502  NAG502      0.2095
      4  C4        -4.4900   -9.8840    1.1130 C.3   502  NAG502      0.2136
      5  C5        -4.8440  -10.8490    2.2350 C.3   502  NAG502      0.1835
      6  C6        -4.2030  -10.4790    3.5600 C.3   502  NAG502      0.2142
      7  C7        -8.4650  -10.3970   -1.6860 C.2   502  NAG502      0.2421
      8  C8        -9.0160  -11.0320   -2.9560 C.3   502  NAG502      0.0964
      9  N2        -7.3870  -10.9760   -1.1430 N.am  502  NAG502     -0.1991
     10  O1        -8.2690  -11.4640    1.5530 O.3   502  NAG502     -0.1879
     11  O3        -4.8580   -9.4470   -1.2430 O.3   502  NAG502     -0.2183
     12  O4        -3.0990   -9.9760    0.9050 O.3   502  NAG502     -0.2176
     13  O5        -6.2610  -10.8290    2.3950 O.3   502  NAG502     -0.3242
     14  O6        -4.5500   -9.1600    3.9020 O.3   502  NAG502     -0.2176
     15  O7        -9.0280   -9.3990   -1.2220 O.2   502  NAG502     -0.2733
@<TRIPOS>BOND
     1     8     7    1
     2     7    15    2
     3     7     9   am
     4    11     3    1
     5     9     2    1
     6     3     2    1
     7     3     4    1
     8     2     1    1
     9    12     4    1
    10     4     5    1
    11     1    10    1
    12     1    13    1
    13     5    13    1
    14     5     6    1
    15     6    14    1
