@<TRIPOS>MOLECULE
1kjr_GAL_A_1.pdb
 10 10 0 0 0
SMALL
GASTEIGER

@<TRIPOS>ATOM
      1  C1        -2.2820   -8.9560    1.3620 C.3   501  GAL501      0.1750
      2  C2        -0.8600   -9.4000    1.1410 C.3   501  GAL501      0.1840
      3  C3         0.1110   -8.2710    1.3610 C.3   501  GAL501      0.0710
      4  C4        -0.3190   -6.9710    0.6680 C.3   501  GAL501      0.1841
      5  C5        -1.7690   -6.6680    0.9560 C.3   501  GAL501      0.1784
      6  C6        -2.3000   -5.4840    0.1980 C.3   501  GAL501      0.2140
      7  O2        -0.5360  -10.4400    2.0540 O.3   501  GAL501     -0.2204
      8  O4        -0.1090   -7.1380   -0.7080 O.3   501  GAL501     -0.2204
      9  O5        -2.5880   -7.7960    0.5840 O.3   501  GAL501     -0.3483
     10  O6        -3.6860   -5.3160    0.4510 O.3   501  GAL501     -0.2176
@<TRIPOS>BOND
     1     8     4    1
     2     6    10    1
     3     6     5    1
     4     9     5    1
     5     9     1    1
     6     4     5    1
     7     4     3    1
     8     2     3    1
     9     2     1    1
    10     2     7    1
