@<TRIPOS>MOLECULE
1kjr_BEK_A_1.pdb
 15 15 0 0 0
SMALL
GASTEIGER

@<TRIPOS>ATOM
      1  C1         2.6590   -8.2880    1.5890 C.2   500  BEK500      0.2887
      2  O          2.5350   -7.6440    2.7720 O.2   500  BEK500     -0.2665
      3  N          1.4680   -8.5870    0.9860 N.am  500  BEK500     -0.0836
      4  C2         3.7870   -8.7550    0.9030 C.ar  500  BEK500      0.1161
      5  C3         4.7170   -9.5220    1.7030 C.ar  500  BEK500      0.1772
      6  C7         4.0600   -8.4890   -0.5510 C.ar  500  BEK500      0.1772
      7  F3         4.5020   -9.7230    2.8510 F     500  BEK500     -0.2015
      8  F7         3.3160   -7.8610   -1.2350 F     500  BEK500     -0.2015
      9  C4         5.9010  -10.0330    1.1040 C.ar  500  BEK500      0.2036
     10  C6         5.2700   -9.0100   -1.1410 C.ar  500  BEK500      0.2036
     11  C5         6.2220   -9.7970   -0.3160 C.ar  500  BEK500      0.1977
     12  F4         6.5870  -10.6120    1.7440 F     500  BEK500     -0.1985
     13  F6         5.4670   -8.8140   -2.2160 F     500  BEK500     -0.1985
     14  O5         7.2250  -10.2610   -0.6760 O.3   500  BEK500     -0.4667
     15  C8         7.8410  -10.2180   -1.9470 C.3   500  BEK500      0.2527
@<TRIPOS>BOND
     1    13    10    1
     2    15    14    1
     3     8     6    1
     4    10     6   ar
     5    10    11   ar
     6    14    11    1
     7     6     4   ar
     8    11     9   ar
     9     4     1    1
    10     4     5   ar
    11     3     1   am
    12     9     5   ar
    13     9    12    1
    14     1     2    2
    15     5     7    1
