@<TRIPOS>MOLECULE
1kjx_IMP_A_1.pdb
 23 25 0 0 0
SMALL
GASTEIGER

@<TRIPOS>ATOM
      1  P        -16.5600   54.3760   50.2570 P.3   440  IMP440      0.5327
      2  O1P      -18.0060   54.3560   50.5990 O.3   440  IMP440     -0.1145
      3  O2P      -16.1230   53.0180   49.8500 O.3   440  IMP440     -0.1145
      4  O3P      -16.5000   55.4330   48.9240 O.2   440  IMP440     -0.2224
      5  O5'      -15.6410   55.0480   51.3970 O.3   440  IMP440     -0.2675
      6  C5'      -15.4850   54.5840   52.7670 C.3   440  IMP440      0.1860
      7  C4'      -14.0430   54.4800   53.1670 C.3   440  IMP440      0.1823
      8  O4'      -13.3110   53.3860   52.6410 O.3   440  IMP440     -0.3135
      9  C3'      -13.2790   55.7330   52.8550 C.3   440  IMP440      0.2184
     10  O3'      -12.4600   56.0180   53.9860 O.3   440  IMP440     -0.2174
     11  C2'      -12.3010   55.3490   51.8110 C.3   440  IMP440      0.2570
     12  O2'      -10.9650   55.6640   52.3580 O.3   440  IMP440     -0.2130
     13  C1'      -12.1040   53.8950   52.0860 C.3   440  IMP440      0.3186
     14  N9       -11.8460   53.3290   50.8410 N.pl3 440  IMP440     -0.1435
     15  C8       -12.6750   52.5370   50.0610 C.3   440  IMP440      0.3382
     16  N7       -12.0850   51.8260   49.1660 N.2   440  IMP440     -0.2054
     17  C5       -10.7360   52.1510   49.3390 C.2   440  IMP440      0.2446
     18  C6        -9.6020   51.6720   48.6380 C.1   440  IMP440      0.1792
     19  O6        -9.6070   50.7970   47.7730 O.2   440  IMP440     -0.2203
     20  N1        -8.4220   52.2410   49.0930 N.2   440  IMP440     -0.1458
     21  C2        -8.3470   53.1620   50.1180 C.3   440  IMP440      0.4017
     22  N3        -9.4060   53.6290   50.8050 N.2   440  IMP440     -0.0334
     23  C4       -10.5700   53.0750   50.3540 C.2   440  IMP440      0.3528
@<TRIPOS>BOND
     1    19    18    2
     2    18    20    2
     3    18    17    1
     4     4     1    2
     5    20    21    1
     6    16    17    2
     7    16    15    1
     8    17    23    1
     9     3     1    1
    10    15    14    1
    11    21    22    1
    12     1     2    1
    13     1     5    1
    14    23    22    2
    15    23    14    1
    16    14    13    1
    17     5     6    1
    18    11    13    1
    19    11    12    1
    20    11     9    1
    21    13     8    1
    22     8     7    1
    23     6     7    1
    24     9     7    1
    25     9    10    1
