@<TRIPOS>MOLECULE
1kjy_GDP_A_1.pdb
 28 30 0 0 0
SMALL
GASTEIGER

@<TRIPOS>ATOM
      1  PB        18.8840    9.3560   20.4180 P.3   356  GDP356      0.5373
      2  O1B       18.9260   10.7120   19.9130 O.3   356  GDP356     -0.1143
      3  O2B       18.4170    9.1950   21.8320 O.3   356  GDP356     -0.1143
      4  O3B       17.9230    8.4170   19.7160 O.2   356  GDP356     -0.2221
      5  O3A       20.5210    8.9080   20.5620 O.3   356  GDP356     -0.2261
      6  PA        21.5540    8.8190   19.2800 P.3   356  GDP356      0.2231
      7  O1A       22.8640    8.5140   19.9630 O.3   356  GDP356     -0.4370
      8  O2A       21.2830    8.9100   17.8590 O.2   356  GDP356     -0.5169
      9  O5'       21.4670    7.2300   19.3580 O.3   356  GDP356     -0.3111
     10  C5'       20.5760    6.2360   18.9290 C.3   356  GDP356      0.1813
     11  C4'       21.4690    4.9340   18.9480 C.3   356  GDP356      0.1799
     12  O4'       21.3820    4.0890   17.7410 O.3   356  GDP356     -0.3326
     13  C3'       23.0180    5.1590   18.9600 C.3   356  GDP356      0.2158
     14  O3'       23.5740    3.9340   19.5110 O.3   356  GDP356     -0.2175
     15  C2'       23.3890    5.2890   17.4780 C.3   356  GDP356      0.2310
     16  O2'       24.7530    5.0120   17.2240 O.3   356  GDP356     -0.2158
     17  C1'       22.5000    4.2670   16.8560 C.3   356  GDP356      0.2293
     18  N9        21.9110    4.6900   15.5470 N.pl3 356  GDP356     -0.2354
     19  C8        21.2460    5.8190   15.1530 C.3   356  GDP356      0.2246
     20  N7        20.8700    5.7850   13.9080 N.2   356  GDP356     -0.2322
     21  C5        21.3070    4.5570   13.4390 C.2   356  GDP356      0.2182
     22  C6        21.1970    3.9150   12.1640 C.1   356  GDP356      0.2372
     23  O6        20.6480    4.3550   11.1540 O.2   356  GDP356     -0.2069
     24  N1        21.8040    2.6320   12.1380 N.2   356  GDP356     -0.2485
     25  C2        22.4400    2.0420   13.2040 C.1   356  GDP356      0.2531
     26  N2        22.9490    0.8350   12.9990 N.pl3 356  GDP356     -0.0226
     27  N3        22.5500    2.6370   14.4200 N.2   356  GDP356     -0.3074
     28  C4        21.9660    3.8620   14.4410 C.2   356  GDP356      0.2300
@<TRIPOS>BOND
     1    23    22    2
     2    24    22    2
     3    24    25    2
     4    22    21    1
     5    26    25    1
     6    25    27    2
     7    21    20    2
     8    21    28    1
     9    20    19    1
    10    27    28    2
    11    28    18    1
    12    19    18    1
    13    18    17    1
    14    17    15    1
    15    17    12    1
    16    16    15    1
    17    15    13    1
    18    12    11    1
    19     8     6    2
    20    10    11    1
    21    10     9    1
    22    11    13    1
    23    13    14    1
    24     6     9    1
    25     6     7    1
    26     6     5    1
    27     4     1    2
    28     2     1    1
    29     1     5    1
    30     1     3    1
