@<TRIPOS>MOLECULE
1kk1_GNP_A_1.pdb
 32 34 0 0 0
SMALL
GASTEIGER

@<TRIPOS>ATOM
      1  PG       -15.6400   -7.3540   17.0590 P.3   412  GNP412      0.4884
      2  O1G      -16.8000   -6.4120   17.2200 O.3   412  GNP412     -0.1240
      3  O2G      -14.7890   -7.4140   18.3080 O.3   412  GNP412     -0.1240
      4  O3G      -14.8230   -7.0230   15.8700 O.2   412  GNP412     -0.2331
      5  N3B      -16.4210   -8.8700   16.8590 N.3   412  GNP412     -0.0163
      6  PB       -15.5510  -10.3060   16.7040 P.3   412  GNP412      0.4669
      7  O1B      -14.8470  -10.4010   15.4320 O.2   412  GNP412     -0.2351
      8  O2B      -14.7660  -10.4270   17.9720 O.3   412  GNP412     -0.1253
      9  O3A      -16.7570  -11.3640   16.6850 O.3   412  GNP412     -0.2360
     10  PA       -17.3470  -12.2390   17.7960 P.3   412  GNP412      0.2220
     11  O1A      -16.3960  -13.2820   18.2360 O.2   412  GNP412     -0.5170
     12  O2A      -17.9290  -11.2800   18.8250 O.3   412  GNP412     -0.4370
     13  O5'      -18.4760  -12.9250   17.0590 O.3   412  GNP412     -0.3111
     14  C5'      -19.5550  -12.1830   16.4700 C.3   412  GNP412      0.1813
     15  C4'      -20.7290  -13.0930   16.2720 C.3   412  GNP412      0.1799
     16  O4'      -20.5160  -14.1890   15.4350 O.3   412  GNP412     -0.3326
     17  C3'      -21.2280  -13.6960   17.6170 C.3   412  GNP412      0.2158
     18  O3'      -22.6700  -13.7280   17.6740 O.3   412  GNP412     -0.2175
     19  C2'      -20.6280  -15.0930   17.5850 C.3   412  GNP412      0.2310
     20  O2'      -21.2400  -16.0080   18.4660 O.3   412  GNP412     -0.2158
     21  C1'      -20.8190  -15.3910   16.1140 C.3   412  GNP412      0.2293
     22  N9       -19.9220  -16.4870   15.6800 N.pl3 412  GNP412     -0.2354
     23  C8       -18.4830  -16.5060   15.9230 C.3   412  GNP412      0.2246
     24  N7       -17.9570  -17.6120   15.4360 N.2   412  GNP412     -0.2322
     25  C5       -19.1050  -18.3470   14.8460 C.2   412  GNP412      0.2182
     26  C6       -19.1240  -19.6540   14.1690 C.1   412  GNP412      0.2372
     27  O6       -18.2320  -20.4030   13.9610 O.2   412  GNP412     -0.2069
     28  N1       -20.4150  -19.9800   13.7420 N.2   412  GNP412     -0.2485
     29  C2       -21.4540  -19.0980   14.0110 C.1   412  GNP412      0.2531
     30  N2       -22.6790  -19.6260   13.4950 N.pl3 412  GNP412     -0.0226
     31  N3       -21.5120  -17.9500   14.6120 N.2   412  GNP412     -0.3074
     32  C4       -20.2460  -17.6250   15.0140 C.2   412  GNP412      0.2300
@<TRIPOS>BOND
     1    30    29    1
     2    28    29    2
     3    28    26    2
     4    27    26    2
     5    29    31    2
     6    26    25    1
     7    31    32    2
     8    25    32    1
     9    25    24    2
    10    32    22    1
    11     7     6    2
    12    16    21    1
    13    16    15    1
    14    24    23    1
    15    22    23    1
    16    22    21    1
    17     4     1    2
    18    21    19    1
    19    15    14    1
    20    15    17    1
    21    14    13    1
    22     9     6    1
    23     9    10    1
    24     6     5    1
    25     6     8    1
    26     5     1    1
    27    13    10    1
    28     1     2    1
    29     1     3    1
    30    19    17    1
    31    19    20    1
    32    17    18    1
    33    10    11    2
    34    10    12    1
