@<TRIPOS>MOLECULE
1kk2_GDP_A_1.pdb
 28 30 0 0 0
SMALL
GASTEIGER

@<TRIPOS>ATOM
      1  PB       -15.4790  -10.1540   16.3100 P.3   412  GDP412      0.5373
      2  O1B      -16.5270   -9.1430   16.1330 O.3   412  GDP412     -0.1143
      3  O2B      -14.5860  -10.4200   15.1410 O.2   412  GDP412     -0.2221
      4  O3B      -14.4070   -9.8590   17.3690 O.3   412  GDP412     -0.1143
      5  O3A      -16.1960  -11.6970   16.4880 O.3   412  GDP412     -0.2261
      6  PA       -17.2800  -12.0840   17.6660 P.3   412  GDP412      0.2231
      7  O1A      -16.4610  -13.1980   18.2220 O.2   412  GDP412     -0.5169
      8  O2A      -17.7830  -11.1040   18.6520 O.3   412  GDP412     -0.4370
      9  O5'      -18.3740  -12.8040   16.7430 O.3   412  GDP412     -0.3111
     10  C5'      -19.3940  -12.1590   16.0030 C.3   412  GDP412      0.1813
     11  C4'      -20.6760  -12.9840   16.1420 C.3   412  GDP412      0.1799
     12  O4'      -20.7300  -14.2430   15.3550 O.3   412  GDP412     -0.3326
     13  C3'      -21.0020  -13.5050   17.5970 C.3   412  GDP412      0.2158
     14  O3'      -22.4450  -13.4270   17.7220 O.3   412  GDP412     -0.2175
     15  C2'      -20.5600  -14.9670   17.6110 C.3   412  GDP412      0.2310
     16  O2'      -21.2730  -15.8150   18.5040 O.3   412  GDP412     -0.2158
     17  C1'      -20.7360  -15.3900   16.1780 C.3   412  GDP412      0.2293
     18  N9       -19.6950  -16.4120   15.7660 N.pl3 412  GDP412     -0.2354
     19  C8       -18.3400  -16.5000   15.9600 C.3   412  GDP412      0.2246
     20  N7       -17.8210  -17.5860   15.4590 N.2   412  GDP412     -0.2322
     21  C5       -18.8870  -18.2760   14.8920 C.2   412  GDP412      0.2182
     22  C6       -18.9700  -19.5390   14.2090 C.1   412  GDP412      0.2372
     23  O6       -18.0430  -20.3340   13.9690 O.2   412  GDP412     -0.2069
     24  N1       -20.2980  -19.8470   13.7950 N.2   412  GDP412     -0.2485
     25  C2       -21.4080  -19.0470   14.0150 C.1   412  GDP412      0.2531
     26  N2       -22.5640  -19.5060   13.5480 N.pl3 412  GDP412     -0.0226
     27  N3       -21.3460  -17.8580   14.6670 N.2   412  GDP412     -0.3074
     28  C4       -20.0700  -17.5650   15.0670 C.2   412  GDP412      0.2300
@<TRIPOS>BOND
     1    26    25    1
     2    24    25    2
     3    24    22    2
     4    23    22    2
     5    25    27    2
     6    22    21    1
     7    27    28    2
     8    21    28    1
     9    21    20    2
    10    28    18    1
    11     3     1    2
    12    12    11    1
    13    12    17    1
    14    20    19    1
    15    18    19    1
    16    18    17    1
    17    10    11    1
    18    10     9    1
    19     2     1    1
    20    11    13    1
    21    17    15    1
    22     1     5    1
    23     1     4    1
    24     5     6    1
    25     9     6    1
    26    13    15    1
    27    13    14    1
    28    15    16    1
    29     6     7    2
    30     6     8    1
