@<TRIPOS>MOLECULE
1kk3_GDP_A_1.pdb
 28 30 0 0 0
SMALL
GASTEIGER

@<TRIPOS>ATOM
      1  PB       -15.6330  -10.0200   16.4080 P.3   412  GDP412      0.5373
      2  O1B      -16.6610   -8.9700   16.2930 O.3   412  GDP412     -0.1143
      3  O2B      -14.7600  -10.2310   15.2110 O.2   412  GDP412     -0.2221
      4  O3B      -14.5460   -9.8110   17.4780 O.3   412  GDP412     -0.1143
      5  O3A      -16.3620  -11.5600   16.4870 O.3   412  GDP412     -0.2261
      6  PA       -17.4290  -11.9910   17.6400 P.3   412  GDP412      0.2231
      7  O1A      -16.5730  -13.0960   18.1480 O.2   412  GDP412     -0.5169
      8  O2A      -17.9230  -11.0500   18.6730 O.3   412  GDP412     -0.4370
      9  O5'      -18.5250  -12.7050   16.7180 O.3   412  GDP412     -0.3111
     10  C5'      -19.5670  -12.0520   16.0180 C.3   412  GDP412      0.1813
     11  C4'      -20.8470  -12.8970   16.1420 C.3   412  GDP412      0.1799
     12  O4'      -20.8880  -14.1420   15.3450 O.3   412  GDP412     -0.3326
     13  C3'      -21.1810  -13.4400   17.5860 C.3   412  GDP412      0.2158
     14  O3'      -22.6300  -13.4030   17.6880 O.3   412  GDP412     -0.2175
     15  C2'      -20.7060  -14.8900   17.5860 C.3   412  GDP412      0.2310
     16  O2'      -21.3970  -15.7620   18.4790 O.3   412  GDP412     -0.2158
     17  C1'      -20.8860  -15.2930   16.1540 C.3   412  GDP412      0.2293
     18  N9       -19.8600  -16.3180   15.7310 N.pl3 412  GDP412     -0.2354
     19  C8       -18.5010  -16.4110   15.8930 C.3   412  GDP412      0.2246
     20  N7       -18.0010  -17.5060   15.3840 N.2   412  GDP412     -0.2322
     21  C5       -19.0900  -18.1940   14.8550 C.2   412  GDP412      0.2182
     22  C6       -19.2040  -19.4600   14.1640 C.1   412  GDP412      0.2372
     23  O6       -18.3030  -20.2640   13.9080 O.2   412  GDP412     -0.2069
     24  N1       -20.5390  -19.7660   13.7880 N.2   412  GDP412     -0.2485
     25  C2       -21.6350  -18.9550   14.0240 C.1   412  GDP412      0.2531
     26  N2       -22.8020  -19.4140   13.5860 N.pl3 412  GDP412     -0.0226
     27  N3       -21.5490  -17.7580   14.6790 N.2   412  GDP412     -0.3074
     28  C4       -20.2590  -17.4640   15.0360 C.2   412  GDP412      0.2300
@<TRIPOS>BOND
     1    26    25    1
     2    24    25    2
     3    24    22    2
     4    23    22    2
     5    25    27    2
     6    22    21    1
     7    27    28    2
     8    21    28    1
     9    21    20    2
    10    28    18    1
    11     3     1    2
    12    12    11    1
    13    12    17    1
    14    20    19    1
    15    18    19    1
    16    18    17    1
    17    10    11    1
    18    10     9    1
    19    11    13    1
    20    17    15    1
    21     2     1    1
    22     1     5    1
    23     1     4    1
    24     5     6    1
    25     9     6    1
    26    15    13    1
    27    15    16    1
    28    13    14    1
    29     6     7    2
    30     6     8    1
