@<TRIPOS>MOLECULE
1kk8_ADP_A_1.pdb
 27 29 0 0 0
SMALL
GASTEIGER

@<TRIPOS>ATOM
      1  PB         3.4070    4.8980    1.0940 P.3   996  ADP996      0.5373
      2  O1B        3.2620    4.3400   -0.2350 O.2   996  ADP996     -0.2221
      3  O2B        2.2340    4.8190    1.9490 O.3   996  ADP996     -0.1143
      4  O3B        4.6080    4.1990    1.7970 O.3   996  ADP996     -0.1143
      5  PA         3.0640    7.7260    1.0620 P.3   996  ADP996      0.2231
      6  O1A        1.7210    7.8770    0.5270 O.2   996  ADP996     -0.5169
      7  O2A        3.0930    7.9270    2.5020 O.3   996  ADP996     -0.4370
      8  O3A        3.6930    6.3560    0.6410 O.3   996  ADP996     -0.2261
      9  O5'        3.9290    8.7050    0.4560 O.3   996  ADP996     -0.3111
     10  C5'        5.3030    9.0910    0.8200 C.3   996  ADP996      0.1813
     11  C4'        5.4360   10.5350    0.7860 C.3   996  ADP996      0.1821
     12  O4'        5.5020   10.9650   -0.6070 O.3   996  ADP996     -0.3135
     13  C3'        4.3000   11.3670    1.3540 C.3   996  ADP996      0.2184
     14  O3'        4.5420   11.5240    2.7420 O.3   996  ADP996     -0.2174
     15  C2'        4.4240   12.6450    0.5600 C.3   996  ADP996      0.2570
     16  O2'        5.4240   13.5500    1.0390 O.3   996  ADP996     -0.2130
     17  C1'        4.7870   12.2060   -0.8300 C.3   996  ADP996      0.3186
     18  N9         3.5790   11.9650   -1.6920 N.pl3 996  ADP996     -0.1439
     19  C8         3.1000   10.7730   -2.2420 C.3   996  ADP996      0.3377
     20  N7         2.1170   10.9160   -3.0680 N.2   996  ADP996     -0.2095
     21  C5         1.8950   12.2900   -3.0260 C.2   996  ADP996      0.2526
     22  C6         0.9400   13.1230   -3.6900 C.2   996  ADP996      0.4393
     23  N6         0.0450   12.6110   -4.5170 N.pl3 996  ADP996      0.2180
     24  N1         0.9720   14.4750   -3.4500 N.2   996  ADP996      0.0021
     25  C2         1.8930   14.9640   -2.6130 C.3   996  ADP996      0.5254
     26  N3         2.8430   14.3090   -1.9320 N.2   996  ADP996     -0.0055
     27  C4         2.7790   12.9260   -2.1910 C.2   996  ADP996      0.3518
@<TRIPOS>BOND
     1    23    22    1
     2    22    24    2
     3    22    21    1
     4    24    25    1
     5    20    21    2
     6    20    19    1
     7    21    27    1
     8    25    26    1
     9    19    18    1
    10    27    26    2
    11    27    18    1
    12    18    17    1
    13    17    12    1
    14    17    15    1
    15    12    11    1
    16     2     1    2
    17     9    10    1
    18     9     5    1
    19     6     5    2
    20    15    16    1
    21    15    13    1
    22     8     5    1
    23     8     1    1
    24    11    10    1
    25    11    13    1
    26     5     7    1
    27     1     4    1
    28     1     3    1
    29    13    14    1
