@<TRIPOS>MOLECULE
1kkb_IMP_A_1.pdb
 23 25 0 0 0
SMALL
GASTEIGER

@<TRIPOS>ATOM
      1  P        -16.2030   53.8670   50.3990 P.3   440  IMP440      0.5327
      2  O1P      -17.6230   53.5700   50.6660 O.3   440  IMP440     -0.1145
      3  O2P      -15.5360   52.6800   49.7560 O.3   440  IMP440     -0.1145
      4  O3P      -16.1870   55.1970   49.5150 O.2   440  IMP440     -0.2224
      5  O5'      -15.3410   54.6640   51.4920 O.3   440  IMP440     -0.2675
      6  C5'      -15.2470   54.3030   52.8590 C.3   440  IMP440      0.1860
      7  C4'      -13.8190   53.9960   53.2300 C.3   440  IMP440      0.1823
      8  O4'      -13.3290   53.0120   52.2760 O.3   440  IMP440     -0.3135
      9  C3'      -12.8200   55.1680   53.2680 C.3   440  IMP440      0.2184
     10  O3'      -11.8550   55.0240   54.3620 O.3   440  IMP440     -0.2174
     11  C2'      -12.1680   54.8780   51.9300 C.3   440  IMP440      0.2570
     12  O2'      -10.8920   55.4550   51.7480 O.3   440  IMP440     -0.2130
     13  C1'      -11.9900   53.3810   51.9650 C.3   440  IMP440      0.3186
     14  N9       -11.6100   52.9130   50.7100 N.pl3 440  IMP440     -0.1435
     15  C8       -12.4950   52.5170   49.6910 C.3   440  IMP440      0.3382
     16  N7       -11.9580   51.8330   48.7560 N.2   440  IMP440     -0.2054
     17  C5       -10.6170   51.7350   49.1300 C.2   440  IMP440      0.2446
     18  C6        -9.6170   51.0860   48.4750 C.1   440  IMP440      0.1792
     19  O6        -9.8130   50.3040   47.5430 O.2   440  IMP440     -0.2203
     20  N1        -8.3860   51.2110   49.0990 N.2   440  IMP440     -0.1458
     21  C2        -8.1540   51.8640   50.2910 C.3   440  IMP440      0.4017
     22  N3        -9.1170   52.4690   50.9450 N.2   440  IMP440     -0.0334
     23  C4       -10.3380   52.3790   50.3050 C.2   440  IMP440      0.3528
@<TRIPOS>BOND
     1    19    18    2
     2    18    20    2
     3    18    17    1
     4    16    17    2
     5    16    15    1
     6    20    21    1
     7    17    23    1
     8     4     1    2
     9    15    14    1
    10     3     1    1
    11    21    22    1
    12    23    14    1
    13    23    22    2
    14     1     2    1
    15     1     5    1
    16    14    13    1
    17     5     6    1
    18    12    11    1
    19    11    13    1
    20    11     9    1
    21    13     8    1
    22     8     7    1
    23     6     7    1
    24     7     9    1
    25     9    10    1
