@<TRIPOS>MOLECULE
1kkf_IMP_A_1.pdb
 23 25 0 0 0
SMALL
GASTEIGER

@<TRIPOS>ATOM
      1  P        -16.0470   53.9150   50.1350 P.3   440  IMP440      0.5327
      2  O1P      -17.4430   53.9190   50.5980 O.3   440  IMP440     -0.1145
      3  O2P      -15.6570   52.5400   49.7660 O.3   440  IMP440     -0.1145
      4  O3P      -15.9930   55.0490   49.0010 O.2   440  IMP440     -0.2224
      5  O5'      -14.9760   54.4560   51.1680 O.3   440  IMP440     -0.2675
      6  C5'      -15.1170   54.0490   52.5430 C.3   440  IMP440      0.1860
      7  C4'      -13.7690   53.8060   53.2030 C.3   440  IMP440      0.1823
      8  O4'      -13.0510   52.7610   52.5770 O.3   440  IMP440     -0.3135
      9  C3'      -12.8830   55.0300   53.1580 C.3   440  IMP440      0.2184
     10  O3'      -11.9600   54.9050   54.2130 O.3   440  IMP440     -0.2174
     11  C2'      -12.1400   54.7430   51.8780 C.3   440  IMP440      0.2570
     12  O2'      -10.9570   55.5230   51.7570 O.3   440  IMP440     -0.2130
     13  C1'      -11.7980   53.2920   52.0530 C.3   440  IMP440      0.3186
     14  N9       -11.4980   52.7350   50.8120 N.pl3 440  IMP440     -0.1435
     15  C8       -12.4090   52.4610   49.8080 C.3   440  IMP440      0.3382
     16  N7       -11.9830   51.7910   48.7800 N.2   440  IMP440     -0.2054
     17  C5       -10.6680   51.5750   49.0990 C.2   440  IMP440      0.2446
     18  C6        -9.7510   50.8900   48.3430 C.1   440  IMP440      0.1792
     19  O6       -10.0590   50.1590   47.4050 O.2   440  IMP440     -0.2203
     20  N1        -8.4960   50.8950   48.9300 N.2   440  IMP440     -0.1458
     21  C2        -8.2240   51.4480   50.1680 C.3   440  IMP440      0.4017
     22  N3        -9.1300   52.0960   50.9260 N.2   440  IMP440     -0.0334
     23  C4       -10.3240   52.1360   50.3220 C.2   440  IMP440      0.3528
@<TRIPOS>BOND
     1    19    18    2
     2    18    20    2
     3    18    17    1
     4    16    17    2
     5    16    15    1
     6    20    21    1
     7     4     1    2
     8    17    23    1
     9     3     1    1
    10    15    14    1
    11     1     2    1
    12     1     5    1
    13    21    22    1
    14    23    14    1
    15    23    22    2
    16    14    13    1
    17     5     6    1
    18    12    11    1
    19    11    13    1
    20    11     9    1
    21    13     8    1
    22     6     7    1
    23     8     7    1
    24     9     7    1
    25     9    10    1
