@<TRIPOS>MOLECULE
1kkj_PLP_A_1.pdb
 15 15 0 0 0
SMALL
GASTEIGER

@<TRIPOS>ATOM
      1  N1         9.5490    9.4540   22.8520 N.ar  501  PLP501     -0.2452
      2  C2        10.1870   10.4400   22.1900 C.ar  501  PLP501      0.0978
      3  C2A       11.4440   10.9950   22.7500 C.3   501  PLP501      0.0555
      4  C3         9.5360   10.8530   20.9880 C.ar  501  PLP501      0.2049
      5  O3        10.0100   11.8020   20.2000 O.3   501  PLP501     -0.2857
      6  C4         8.3110   10.1710   20.6240 C.ar  501  PLP501      0.0182
      7  C4A        7.7870   10.6610   19.3580 C.3   501  PLP501      0.0342
      8  C5         7.6940    9.1610   21.3530 C.ar  501  PLP501      0.0261
      9  C6         8.3720    8.7960   22.5360 C.ar  501  PLP501      0.0965
     10  C5A        6.4240    8.4500   21.0750 C.3   501  PLP501      0.1815
     11  O4P        6.1500    7.9570   19.7910 O.3   501  PLP501     -0.2653
     12  P          4.7430    7.5820   19.2140 P.3   501  PLP501      0.5329
     13  O1P        4.0170    6.9140   20.3190 O.3   501  PLP501     -0.1145
     14  O2P        4.1160    9.0040   18.8900 O.3   501  PLP501     -0.1145
     15  O3P        4.9830    6.8440   17.9580 O.2   501  PLP501     -0.2224
@<TRIPOS>BOND
     1    15    12    2
     2    14    12    1
     3    12    11    1
     4    12    13    1
     5     7     6    1
     6    11    10    1
     7     5     4    1
     8     6     4   ar
     9     6     8   ar
    10     4     2   ar
    11    10     8    1
    12     8     9   ar
    13     2     3    1
    14     2     1   ar
    15     9     1   ar
