@<TRIPOS>MOLECULE
1kkp_PLP_A_1.pdb
 15 15 0 0 0
SMALL
GASTEIGER

@<TRIPOS>ATOM
      1  N1         9.6360    9.3880   22.4160 N.ar  501  PLP501     -0.2452
      2  C2        10.0260   10.5960   21.9440 C.ar  501  PLP501      0.0978
      3  C2A       11.3900   11.0190   22.3750 C.3   501  PLP501      0.0555
      4  C3         9.0920   11.2980   21.1110 C.ar  501  PLP501      0.2049
      5  O3         9.3700   12.4850   20.6060 O.3   501  PLP501     -0.2857
      6  C4         7.8140   10.6850   20.8440 C.ar  501  PLP501      0.0182
      7  C4A        6.8580   11.3810   20.0020 C.3   501  PLP501      0.0342
      8  C5         7.4770    9.4240   21.3740 C.ar  501  PLP501      0.0261
      9  C6         8.4200    8.7650   22.1920 C.ar  501  PLP501      0.0965
     10  C5A        6.1860    8.7110   21.1720 C.3   501  PLP501      0.1815
     11  O4P        5.9780    8.0970   19.9240 O.3   501  PLP501     -0.2653
     12  P          4.5850    7.6790   19.3410 P.3   501  PLP501      0.5329
     13  O1P        3.8610    7.0560   20.4780 O.3   501  PLP501     -0.1145
     14  O2P        3.9750    9.0730   18.9000 O.3   501  PLP501     -0.1145
     15  O3P        4.8370    6.8730   18.1300 O.2   501  PLP501     -0.2224
@<TRIPOS>BOND
     1    15    12    2
     2    14    12    1
     3    12    11    1
     4    12    13    1
     5    11    10    1
     6     7     6    1
     7     5     4    1
     8     6     4   ar
     9     6     8   ar
    10     4     2   ar
    11    10     8    1
    12     8     9   ar
    13     2     3    1
    14     2     1   ar
    15     9     1   ar
