@<TRIPOS>MOLECULE
1kkq_471_A_1.pdb
 45 48 0 0 0
SMALL
GASTEIGER

@<TRIPOS>ATOM
      1  N         73.3010   29.3380   26.3950 N.pl3 775  471775     -0.2414
      2  CA        72.7480   29.0630   27.7190 C.3   775  471775      0.1180
      3  CB        73.8590   28.9180   28.7580 C.3   775  471775      0.0497
      4  CG        75.1810   28.3010   28.3640 C.ar  775  471775     -0.0202
      5  CD1       76.1160   29.0330   27.7400 C.ar  775  471775     -0.0011
      6  CD2       75.4560   27.0130   28.6190 C.ar  775  471775     -0.0011
      7  CE1       77.2910   28.4990   27.3750 C.ar  775  471775      0.0366
      8  CE2       76.6310   26.4790   28.2550 C.ar  775  471775      0.0366
      9  CZ        77.5640   27.2100   27.6250 C.ar  775  471775      0.1385
     10  OH        78.7660   26.6740   27.2410 O.3   775  471775     -0.4750
     11  C1A       72.9910   28.7860   25.1550 C.2   775  471775      0.0466
     12  C1F       73.6520   29.1940   24.0740 C.2   775  471775      0.0537
     13  C1B       71.9440   27.7310   24.9480 C.3   775  471775      0.0489
     14  C1H       75.3750   30.5410   22.7220 C.ar  775  471775      0.0390
     15  C1I       74.7370   30.7140   21.5550 C.ar  775  471775      0.0031
     16  C1J       75.4150   31.0310   20.4420 C.ar  775  471775      0.0040
     17  C1K       76.7480   31.1860   20.4490 C.ar  775  471775      0.0714
     18  C1N       77.5390   31.5450   19.2120 C.3   775  471775      0.4186
     19  F1Q       76.7870   31.5670   18.0750 F     775  471775     -0.1659
     20  F1P       78.0850   32.7870   19.3410 F     775  471775     -0.1659
     21  F1O       78.5640   30.6760   18.9850 F     775  471775     -0.1659
     22  C1L       77.3830   31.0100   21.6170 C.ar  775  471775      0.0040
     23  C1M       76.7070   30.6930   22.7320 C.ar  775  471775      0.0031
     24  C1G       74.7450   30.2120   23.9300 C.2   775  471775      0.1966
     25  O1G       75.1210   30.8060   24.9390 O.2   775  471775     -0.2865
     26  O3F       80.4760   25.6080   21.7450 O.2   775  471775     -0.4486
     27  C3G       80.3680   24.2810   22.0700 C.2   775  471775      0.2771
     28  N3H       80.2490   24.1640   23.4410 N.2   775  471775     -0.3728
     29  C3C       80.2860   25.4400   23.9660 C.2   775  471775      0.1336
     30  C3D       80.4280   26.3320   22.9070 C.3   775  471775      0.2161
     31  C3E       80.5220   27.8390   22.9190 C.3   775  471775      0.0549
     32  C3I       80.3820   23.3000   21.1560 C.ar  775  471775      0.0660
     33  C3N       80.2790   22.0010   21.4770 C.ar  775  471775      0.0058
     34  C3M       80.2990   21.0430   20.5370 C.ar  775  471775      0.0002
     35  C3L       80.4240   21.3730   19.2440 C.ar  775  471775      0.0000
     36  C3K       80.5270   22.6660   18.9030 C.ar  775  471775      0.0002
     37  C3J       80.5060   23.6090   19.8560 C.ar  775  471775      0.0058
     38  C3A       78.7840   26.0100   25.9790 C.3   775  471775      0.2126
     39  C3B       80.1870   25.7310   25.4450 C.3   775  471775      0.1055
     40  C4A       71.7930   30.1840   28.1210 C.3   775  471775      0.1369
     41  N4B       70.3870   29.8840   27.8630 N.am  775  471775     -0.2036
     42  C4C       69.6470   30.4980   26.9570 C.2   775  471775      0.2414
     43  O4C       70.0640   31.3960   26.2270 O.2   775  471775     -0.2733
     44  C4D       68.2010   30.0440   26.8410 C.3   775  471775      0.0868
     45  C4E       67.9990   28.8270   25.9410 C.3   775  471775      0.0101
@<TRIPOS>BOND
     1    19    18    1
     2    36    35   ar
     3    36    37   ar
     4    21    18    1
     5    18    20    1
     6    18    17    1
     7    35    34   ar
     8    37    32   ar
     9    16    17   ar
    10    16    15   ar
    11    17    22   ar
    12    34    33   ar
    13    32    33   ar
    14    32    27    1
    15    15    14   ar
    16    22    23   ar
    17    26    27    1
    18    26    30    1
    19    27    28    2
    20    14    23   ar
    21    14    24    1
    22    30    31    1
    23    30    29    1
    24    28    29    2
    25    24    12    1
    26    24    25    2
    27    29    39    1
    28    12    11    2
    29    13    11    1
    30    11     1    1
    31    39    38    1
    32    45    44    1
    33    38    10    1
    34    43    42    2
    35     1     2    1
    36    44    42    1
    37    42    41   am
    38    10     9    1
    39     7     9   ar
    40     7     5   ar
    41     9     8   ar
    42     2    40    1
    43     2     3    1
    44     5     4   ar
    45    41    40    1
    46     8     6   ar
    47     4     6   ar
    48     4     3    1
