@<TRIPOS>MOLECULE
1kkr_2AS_A_1.pdb
 10 9 0 0 0
SMALL
GASTEIGER

@<TRIPOS>ATOM
      1  C        -33.7680 -143.2260  -57.7410 C.2   801  2AS801      0.3824
      2  O        -33.1750 -143.7430  -58.6920 O.co2 801  2AS801     -0.2440
      3  CA       -33.0560 -142.2800  -56.7520 C.3   801  2AS801      0.2049
      4  N        -31.5970 -142.4930  -56.6740 N.3   801  2AS801     -0.1202
      5  CB       -33.4750 -140.8030  -57.0350 C.3   801  2AS801      0.1319
      6  CG       -32.9690 -139.8620  -55.9620 C.2   801  2AS801      0.3663
      7  OD1      -33.4370 -138.7380  -55.7890 O.co2 801  2AS801     -0.2456
      8  C4       -33.0610 -140.1970  -58.3740 C.3   801  2AS801      0.0139
      9  OD2      -32.0920 -140.2740  -55.2250 O.co2 801  2AS801     -0.2456
     10  OXT      -34.9680 -143.4750  -57.5960 O.co2 801  2AS801     -0.2440
@<TRIPOS>BOND
     1     2     1   ar
     2     8     5    1
     3     1    10   ar
     4     1     3    1
     5     5     3    1
     6     5     6    1
     7     3     4    1
     8     6     7   ar
     9     6     9   ar
