@<TRIPOS>MOLECULE
1kkt_MAN_A_1.pdb
 11 11 0 0 0
SMALL
GASTEIGER

@<TRIPOS>ATOM
      1  C1        60.9810   39.5680  -51.0700 C.3   704  MAN704      0.1777
      2  C2        60.8400   40.4380  -52.3210 C.3   704  MAN704      0.2141
      3  C3        59.3610   40.6500  -52.6430 C.3   704  MAN704      0.2173
      4  C4        58.6660   39.2940  -52.8000 C.3   704  MAN704      0.2142
      5  C5        58.8900   38.4380  -51.5490 C.3   704  MAN704      0.1810
      6  C6        58.3570   37.0250  -51.7110 C.3   704  MAN704      0.2141
      7  O2        61.4720   39.7900  -53.4170 O.3   704  MAN704     -0.2176
      8  O3        59.2390   41.3950  -53.8460 O.3   704  MAN704     -0.2175
      9  O4        57.2740   39.4890  -53.0060 O.3   704  MAN704     -0.2176
     10  O5        60.3060   38.3260  -51.2610 O.3   704  MAN704     -0.3481
     11  O6        58.8480   36.1700  -50.6870 O.3   704  MAN704     -0.2176
@<TRIPOS>BOND
     1     8     3    1
     2     7     2    1
     3     9     4    1
     4     4     3    1
     5     4     5    1
     6     3     2    1
     7     2     1    1
     8     6     5    1
     9     6    11    1
    10     5    10    1
    11    10     1    1
