@<TRIPOS>MOLECULE
1kkt_NAG_A_1.pdb
 14 14 0 0 0
SMALL
GASTEIGER

@<TRIPOS>ATOM
      1  C1        10.3780   20.5000  -38.4710 C.3   600  NAG600      0.1665
      2  C2        10.7180   20.0900  -37.0430 C.3   600  NAG600      0.1576
      3  C3         9.9520   18.8290  -36.6370 C.3   600  NAG600      0.2069
      4  C4         8.4550   18.9360  -36.9840 C.3   600  NAG600      0.2134
      5  C5         8.2560   19.4230  -38.4190 C.3   600  NAG600      0.1809
      6  C6         6.7950   19.6900  -38.7280 C.3   600  NAG600      0.2141
      7  C7        12.8240   20.2620  -35.8980 C.2   600  NAG600      0.2420
      8  C8        13.4600   19.2010  -35.0170 C.3   600  NAG600      0.0964
      9  N2        12.1410   19.8400  -36.9540 N.am  600  NAG600     -0.2019
     10  O3        10.0990   18.6370  -35.2380 O.3   600  NAG600     -0.2184
     11  O4         7.8200   17.6510  -36.8370 O.3   600  NAG600     -0.2176
     12  O5         8.9680   20.6590  -38.6250 O.3   600  NAG600     -0.3489
     13  O6         6.3680   18.9290  -39.8460 O.3   600  NAG600     -0.2176
     14  O7        12.9480   21.4530  -35.6160 O.2   600  NAG600     -0.2733
@<TRIPOS>BOND
     1    13     6    1
     2     6     5    1
     3    12     1    1
     4    12     5    1
     5     1     2    1
     6     5     4    1
     7     2     9    1
     8     2     3    1
     9     4    11    1
    10     4     3    1
    11     9     7   am
    12     3    10    1
    13     7    14    2
    14     7     8    1
