@<TRIPOS>MOLECULE
1kl1_PLP_A_1.pdb
 15 15 0 0 0
SMALL
GASTEIGER

@<TRIPOS>ATOM
      1  N1         9.7050    9.3300   22.4350 N.ar  501  PLP501     -0.2452
      2  C2        10.1070   10.5360   21.9890 C.ar  501  PLP501      0.0978
      3  C2A       11.4460   10.9920   22.4510 C.3   501  PLP501      0.0555
      4  C3         9.1940   11.2260   21.1190 C.ar  501  PLP501      0.2049
      5  O3         9.4850   12.4070   20.6260 O.3   501  PLP501     -0.2857
      6  C4         7.9320   10.5800   20.8210 C.ar  501  PLP501      0.0182
      7  C4A        7.0030   11.2840   19.9570 C.3   501  PLP501      0.0342
      8  C5         7.5950    9.3130   21.3320 C.ar  501  PLP501      0.0261
      9  C6         8.5240    8.6660   22.1820 C.ar  501  PLP501      0.0965
     10  C5A        6.3260    8.5580   21.1280 C.3   501  PLP501      0.1815
     11  O4P        6.1030    7.9970   19.8600 O.3   501  PLP501     -0.2653
     12  P          4.7130    7.6290   19.2560 P.3   501  PLP501      0.5329
     13  O1P        3.9560    6.9530   20.3380 O.3   501  PLP501     -0.1145
     14  O2P        4.1000    9.0180   18.8620 O.3   501  PLP501     -0.1145
     15  O3P        4.9610    6.8420   18.0160 O.2   501  PLP501     -0.2224
@<TRIPOS>BOND
     1    15    12    2
     2    14    12    1
     3    12    11    1
     4    12    13    1
     5    11    10    1
     6     7     6    1
     7     5     4    1
     8     6     4   ar
     9     6     8   ar
    10     4     2   ar
    11    10     8    1
    12     8     9   ar
    13     2     1   ar
    14     2     3    1
    15     9     1   ar
