@<TRIPOS>MOLECULE
1kl2_FON_A_1.pdb
 29 31 0 0 0
SMALL
GASTEIGER

@<TRIPOS>ATOM
      1  N1        21.4980   -7.9700   22.6450 N.2   505  FON505     -0.2723
      2  C2        22.6430   -7.5930   23.2530 C.1   505  FON505      0.2603
      3  NA2       23.4110   -8.2110   24.1270 N.pl3 505  FON505     -0.0221
      4  N3        23.0960   -6.3160   22.8800 N.2   505  FON505     -0.2512
      5  C4        22.5050   -5.4450   21.9820 C.1   505  FON505      0.2256
      6  O4        22.9990   -4.3080   21.7090 O.2   505  FON505     -0.2106
      7  C4A       21.2390   -5.9370   21.3620 C.3   505  FON505      0.2939
      8  N5        20.4890   -5.1000   20.4190 N.am  505  FON505     -0.2448
      9  C6        19.3640   -5.7070   19.7760 C.3   505  FON505      0.1243
     10  C7        18.9430   -6.9810   20.3370 C.3   505  FON505      0.1586
     11  N8        19.6320   -7.7460   21.1980 N.2   505  FON505     -0.2090
     12  C8A       20.8020   -7.1910   21.7310 C.1   505  FON505      0.1088
     13  C9        19.8500   -6.2430   18.3370 C.3   505  FON505      0.1340
     14  N10       21.1860   -5.6740   17.9930 N.pl3 505  FON505     -0.2358
     15  C11       24.2170   -6.7150   15.4290 C.ar  505  FON505      0.0551
     16  C12       23.1510   -5.9070   14.9280 C.ar  505  FON505      0.0059
     17  C13       22.0530   -5.7250   15.7330 C.ar  505  FON505      0.0162
     18  C14       22.1040   -6.3790   17.0210 C.ar  505  FON505      0.0654
     19  C15       23.0750   -7.1470   17.5480 C.ar  505  FON505      0.0162
     20  C16       24.1720   -7.3040   16.6780 C.ar  505  FON505      0.0059
     21  C         25.5500   -6.8160   14.7000 C.2   505  FON505      0.2653
     22  O         26.5540   -7.2310   15.3160 O.2   505  FON505     -0.2684
     23  N         25.5630   -7.0170   13.3660 N.am  505  FON505     -0.1894
     24  CA        26.7000   -6.6470   12.5030 C.3   505  FON505      0.2288
     25  CT        26.3070   -6.4400   11.0730 C.2   505  FON505      0.3865
     26  O1        25.1240   -6.2660   10.7170 O.co2 505  FON505     -0.2437
     27  O2        27.2320   -6.0510   10.2910 O.co2 505  FON505     -0.2437
     28  CP1       21.0980   -3.9080   20.1680 C.2   505  FON505      0.3045
     29  O3        20.6460   -3.0640   19.3850 O.2   505  FON505     -0.2649
@<TRIPOS>BOND
     1    27    25   ar
     2    26    25   ar
     3    25    24    1
     4    24    23    1
     5    23    21   am
     6    21    22    2
     7    21    15    1
     8    16    15   ar
     9    16    17   ar
    10    15    20   ar
    11    17    18   ar
    12    20    19   ar
    13    18    19   ar
    14    18    14    1
    15    14    13    1
    16    13     9    1
    17    29    28    2
    18     9    10    1
    19     9     8    1
    20    28     8   am
    21    10    11    1
    22     8     7    1
    23    11    12    2
    24     7    12    1
    25     7     5    1
    26     6     5    2
    27    12     1    2
    28     5     4    2
    29     1     2    2
    30     4     2    2
    31     2     3    1
