@<TRIPOS>MOLECULE
1kl2_PLP_A_1.pdb
 15 15 0 0 0
SMALL
GASTEIGER

@<TRIPOS>ATOM
      1  N1        21.2840    1.7740   24.9310 N.ar  501  PLP501     -0.2452
      2  C2        20.7690    0.5940   25.3290 C.ar  501  PLP501      0.0978
      3  C2A       21.2540    0.0090   26.6050 C.3   501  PLP501      0.0555
      4  C3        19.7780    0.0100   24.4610 C.ar  501  PLP501      0.2049
      5  O3        19.2450   -1.1440   24.8350 O.3   501  PLP501     -0.2857
      6  C4        19.4160    0.7120   23.2520 C.ar  501  PLP501      0.0182
      7  C4A       18.4330    0.0700   22.3960 C.3   501  PLP501      0.0342
      8  C5        19.9890    1.9470   22.8960 C.ar  501  PLP501      0.0261
      9  C6        20.9690    2.4740   23.7910 C.ar  501  PLP501      0.0965
     10  C5A       19.8230    2.8120   21.7030 C.3   501  PLP501      0.1815
     11  O4P       18.5920    3.2070   21.1960 O.3   501  PLP501     -0.2653
     12  P         18.1240    3.6790   19.8080 P.3   501  PLP501      0.5329
     13  O1P       19.3390    4.3020   19.2150 O.3   501  PLP501     -0.1145
     14  O2P       17.6820    2.3560   19.0910 O.2   501  PLP501     -0.2224
     15  O3P       16.9230    4.5550   19.8930 O.3   501  PLP501     -0.1145
@<TRIPOS>BOND
     1    14    12    2
     2    13    12    1
     3    12    15    1
     4    12    11    1
     5    11    10    1
     6    10     8    1
     7     7     6    1
     8     8     6   ar
     9     8     9   ar
    10     6     4   ar
    11     9     1   ar
    12     4     5    1
    13     4     2   ar
    14     1     2   ar
    15     2     3    1
