@<TRIPOS>MOLECULE
1kl5_III_E_1.pdb
 43 45 0 0 0
SMALL
GASTEIGER

@<TRIPOS>ATOM
      1  N         11.5330    0.3250   34.0670 N.3     3  SER3       -0.1202
      2  CA        11.5370    1.8240   34.1380 C.3     3  SER3        0.2020
      3  C         12.7320    2.4260   33.3920 C.2     3  SER3        0.2619
      4  O         13.8220    2.5500   33.9280 O.2     3  SER3       -0.2717
      5  CB        11.6100    2.3360   35.5780 C.3     3  SER3        0.2103
      6  OG        12.9430    2.1940   36.0450 O.3     3  SER3       -0.2182
      7  N         12.5810    2.7670   32.1270 N.am    4  HIS4       -0.1962
      8  CA        13.6590    3.4450   31.4150 C.3     4  HIS4        0.1769
      9  C         13.5460    4.9750   31.4110 C.2     4  HIS4        0.2462
     10  O         12.4530    5.5460   31.2940 O.2     4  HIS4       -0.2730
     11  CB        13.5930    2.9100   30.0040 C.3     4  HIS4        0.0744
     12  CG        14.7960    3.2450   29.1830 C.2     4  HIS4        0.0653
     13  ND1       14.9630    4.4830   28.6020 N.2     4  HIS4       -0.2310
     14  CD2       15.8710    2.4960   28.8330 C.3     4  HIS4        0.1683
     15  CE1       16.1070    4.4870   27.9450 C.2     4  HIS4        0.1939
     16  NE2       16.6820    3.3000   28.0720 N.2     4  HIS4       -0.2440
     17  N         14.6790    5.6720   31.5000 N.am    5  PRO5       -0.2716
     18  CA        14.6570    7.1400   31.5420 C.3     5  PRO5        0.1536
     19  C         14.0300    7.8020   30.3250 C.2     5  PRO5        0.2598
     20  O         13.5740    8.9220   30.4820 O.2     5  PRO5       -0.2715
     21  CB        16.1210    7.5520   31.5070 C.3     5  PRO5        0.0310
     22  CG        16.8870    6.3370   31.6880 C.3     5  PRO5        0.0237
     23  CD        16.0530    5.1360   31.5340 C.3     5  PRO5        0.0939
     24  N         14.0150    7.2070   29.1430 N.am    6  GLN6       -0.1964
     25  CA        13.3190    7.8620   28.0330 C.3     6  GLN6        0.1733
     26  C         11.8200    8.0350   28.3270 C.2     6  GLN6        0.2616
     27  O         11.1940    8.9550   27.7750 O.2     6  GLN6       -0.2715
     28  CB        13.4280    7.0220   26.7540 C.3     6  GLN6        0.0408
     29  CG        12.9670    7.7140   25.4960 C.3     6  GLN6        0.0908
     30  CD        13.3060    6.8750   24.2520 C.2     6  GLN6        0.2608
     31  OE1       12.6210    6.8810   23.2180 O.2     6  GLN6       -0.2717
     32  NE2       14.3380    6.1310   24.3830 N.am    6  GLN6       -0.0878
     33  N         11.2610    7.1800   29.1940 N.am    7  PHE7       -0.1974
     34  CA         9.8290    7.2140   29.5000 C.3     7  PHE7        0.1639
     35  C          9.5290    7.4700   30.9770 C.2     7  PHE7        0.2290
     36  O          8.4290    7.1090   31.3880 O.2     7  PHE7       -0.2864
     37  CB         9.1770    5.8920   29.0840 C.3     7  PHE7        0.0560
     38  CG         9.6880    5.3960   27.7690 C.ar    7  PHE7       -0.0200
     39  CD1        9.4040    6.1200   26.6290 C.ar    7  PHE7       -0.0042
     40  CD2       10.4510    4.2450   27.6770 C.ar    7  PHE7       -0.0042
     41  CE1        9.8760    5.6900   25.4070 C.ar    7  PHE7       -0.0003
     42  CE2       10.9220    3.8150   26.4540 C.ar    7  PHE7       -0.0003
     43  CZ        10.6400    4.5350   25.3100 C.ar    7  PHE7       -0.0000
@<TRIPOS>BOND
     1    31    30    2
     2    30    32   am
     3    30    29    1
     4    43    41   ar
     5    43    42   ar
     6    41    39   ar
     7    29    28    1
     8    42    40   ar
     9    39    38   ar
    10    28    25    1
    11    40    38   ar
    12    38    37    1
    13    27    26    2
    14    15    16    2
    15    15    13    1
    16    25    26    1
    17    25    24    1
    18    16    14    1
    19    26    33   am
    20    13    12    2
    21    14    12    1
    22    37    34    1
    23    24    19   am
    24    12    11    1
    25    33    34    1
    26    34    35    1
    27    11     8    1
    28    19    20    2
    29    19    18    1
    30    35    36    2
    31    10     9    2
    32     9     8    1
    33     9    17   am
    34     8     7    1
    35    17    23    1
    36    17    18    1
    37    21    18    1
    38    21    22    1
    39    23    22    1
    40     7     3   am
    41     3     4    2
    42     3     2    1
    43     1     2    1
    44     2     5    1
    45     5     6    1
