@<TRIPOS>MOLECULE
1kl7_PLP_A_1.pdb
 15 15 0 0 0
SMALL
GASTEIGER

@<TRIPOS>ATOM
      1  N1        45.2790   25.1630   32.2150 N.ar  1400  PLP1400    -0.2452
      2  C2        45.6610   24.0470   31.4840 C.ar  1400  PLP1400     0.0978
      3  C2A       46.3940   22.9770   32.2540 C.3   1400  PLP1400     0.0555
      4  C3        45.3190   24.0410   30.0740 C.ar  1400  PLP1400     0.2049
      5  O3        45.7620   22.9160   29.4080 O.3   1400  PLP1400    -0.2857
      6  C4        44.6250   25.1350   29.5170 C.ar  1400  PLP1400     0.0182
      7  C4A       44.3110   25.0340   28.1220 C.3   1400  PLP1400     0.0342
      8  C5        44.2400   26.3050   30.4000 C.ar  1400  PLP1400     0.0261
      9  C6        44.5970   26.2640   31.7390 C.ar  1400  PLP1400     0.0965
     10  C5A       43.3650   27.4800   29.7930 C.3   1400  PLP1400     0.1815
     11  O4P       41.8820   27.3240   29.7910 O.3   1400  PLP1400    -0.2653
     12  P         40.8790   28.3800   28.9100 P.3   1400  PLP1400     0.5329
     13  O1P       39.6540   27.6470   28.6140 O.3   1400  PLP1400    -0.1145
     14  O2P       41.5970   28.5150   27.5770 O.2   1400  PLP1400    -0.2224
     15  O3P       40.7640   29.6060   29.7050 O.3   1400  PLP1400    -0.1145
@<TRIPOS>BOND
     1    14    12    2
     2     7     6    1
     3    13    12    1
     4    12    15    1
     5    12    11    1
     6     5     4    1
     7     6     4   ar
     8     6     8   ar
     9    11    10    1
    10    10     8    1
    11     4     2   ar
    12     8     9   ar
    13     2     1   ar
    14     2     3    1
    15     9     1   ar
