@<TRIPOS>MOLECULE
1klf_MAN_B_1.pdb
 12 12 0 0 0
SMALL
GASTEIGER

@<TRIPOS>ATOM
      1  C1        85.5790  -13.6290    3.0200 C.3   1500  MAN1500     0.3024
      2  C2        84.6140  -12.5210    2.6130 C.3   1500  MAN1500     0.2434
      3  C3        85.2500  -11.1630    2.8900 C.3   1500  MAN1500     0.2199
      4  C4        85.6530  -11.0750    4.3550 C.3   1500  MAN1500     0.2144
      5  C5        86.5780  -12.2370    4.7220 C.3   1500  MAN1500     0.1836
      6  C6        86.9030  -12.2500    6.1990 C.3   1500  MAN1500     0.2142
      7  O1        86.7320  -13.5100    2.2670 O.3   1500  MAN1500    -0.1869
      8  O2        83.4130  -12.6420    3.3410 O.3   1500  MAN1500    -0.2148
      9  O3        84.3490  -10.1090    2.5780 O.3   1500  MAN1500    -0.2174
     10  O4        86.3060   -9.8430    4.5870 O.3   1500  MAN1500    -0.2176
     11  O5        85.9370  -13.5030    4.4120 O.3   1500  MAN1500    -0.3236
     12  O6        85.8650  -12.8740    6.9440 O.3   1500  MAN1500    -0.2176
@<TRIPOS>BOND
     1     7     1    1
     2     9     3    1
     3     2     3    1
     4     2     1    1
     5     2     8    1
     6     3     4    1
     7     1    11    1
     8     4    10    1
     9     4     5    1
    10    11     5    1
    11     5     6    1
    12     6    12    1
