@<TRIPOS>MOLECULE
1klk_PMD_A_1.pdb
 28 32 0 0 0
SMALL
GASTEIGER

@<TRIPOS>ATOM
      1  C2B       10.4280    2.3360   11.6530 C.1   653  PMD653      0.2519
      2  C4B       11.2440    3.8480   13.3410 C.2   653  PMD653      0.2728
      3  C4        12.4910    3.9500   12.6560 C.2   653  PMD653      0.2518
      4  C6B       14.7430    4.7590   12.4280 C.2   653  PMD653      0.1333
      5  C7B       14.8660    3.9970   11.2110 C.3   653  PMD653      0.1930
      6  C8        12.6420    3.1830   11.4420 C.1   653  PMD653      0.1314
      7  C9B       15.9900    5.5790   12.9390 C.3   653  PMD653      0.1521
      8  C0'       18.1610    6.5300   12.3670 C.ar  653  PMD653      0.0519
      9  C1'       18.4220    6.2660   13.7700 C.ar  653  PMD653      0.0148
     10  C2'       19.7390    6.3230   14.2830 C.ar  653  PMD653      0.0013
     11  C3'       20.8170    6.5670   13.4070 C.ar  653  PMD653      0.0001
     12  C4'       20.5880    6.7990   12.0330 C.ar  653  PMD653      0.0012
     13  C5'       19.2800    6.8530   11.4780 C.ar  653  PMD653      0.0136
     14  C6'       19.1950    7.0730    9.9570 C.2   653  PMD653      0.0013
     15  C6        18.1240    7.4530    9.2210 C.2   653  PMD653      0.0013
     16  C7'       16.7080    7.7490    9.7220 C.ar  653  PMD653      0.0136
     17  C8'       15.8660    8.4810    8.8090 C.ar  653  PMD653      0.0012
     18  C9'       14.5220    8.8140    9.1370 C.ar  653  PMD653      0.0001
     19  CA'       13.9650    8.4020   10.3790 C.ar  653  PMD653      0.0013
     20  CB'       14.7310    7.6040   11.2610 C.ar  653  PMD653      0.0148
     21  CC'       16.1060    7.2490   10.9720 C.ar  653  PMD653      0.0519
     22  N1'       11.6080    2.4180   10.9740 N.2   653  PMD653     -0.2684
     23  N2'        9.4430    1.5440   11.1790 N.pl3 653  PMD653     -0.0226
     24  N3'       10.2560    3.0510   12.8080 N.2   653  PMD653     -0.3033
     25  N4'       11.0270    4.5250   14.4890 N.pl3 653  PMD653     -0.0887
     26  N5'       13.5600    4.7170   13.1260 N.2   653  PMD653     -0.3917
     27  N8'       13.8210    3.2440   10.7540 N.2   653  PMD653     -0.1998
     28  N0'       16.8340    6.2410   11.8210 N.pl3 653  PMD653     -0.2803
@<TRIPOS>BOND
     1    17    18   ar
     2    17    16   ar
     3    18    19   ar
     4    15    16    1
     5    15    14    2
     6    16    21   ar
     7    14    13    1
     8    19    20   ar
     9    27     5    1
    10    27     6    2
    11    21    20   ar
    12    21    28    1
    13    22     6    2
    14    22     1    2
    15    23     1    1
    16     5     4    1
    17     6     3    1
    18    13    12   ar
    19    13     8   ar
    20     1    24    2
    21    28     8    1
    22    28     7    1
    23    12    11   ar
    24     8     9   ar
    25     4     7    1
    26     4    26    2
    27     3    26    2
    28     3     2    1
    29    24     2    2
    30     2    25    1
    31    11    10   ar
    32     9    10   ar
