@<TRIPOS>MOLECULE
1klk_NDP_A_1.pdb
 48 52 0 0 0
SMALL
GASTEIGER

@<TRIPOS>ATOM
      1  PA        15.5920    9.0950   22.8030 P.3   207  NDP207      0.2189
      2  O1A       14.9450    9.4470   21.5150 O.2   207  NDP207     -0.5170
      3  O2A       14.7440    8.4110   23.7920 O.3   207  NDP207     -0.4371
      4  O5B       16.0610   10.4820   23.3890 O.3   207  NDP207     -0.3112
      5  C5B       16.1680   10.6460   24.7870 C.3   207  NDP207      0.1813
      6  C4B       16.4620   12.0670   24.9810 C.3   207  NDP207      0.1820
      7  O4B       15.1680   12.6240   24.5250 O.3   207  NDP207     -0.3136
      8  C3B       16.6340   12.5160   26.4270 C.3   207  NDP207      0.2157
      9  O3B       18.0070   12.7490   26.8420 O.3   207  NDP207     -0.2175
     10  C2B       15.7230   13.7660   26.4320 C.3   207  NDP207      0.2314
     11  O2B       16.1760   15.1510   26.6630 O.3   207  NDP207     -0.2630
     12  C1B       14.5460   13.4240   25.5810 C.3   207  NDP207      0.3158
     13  N9A       13.4250   12.6360   26.2520 N.pl3 207  NDP207     -0.1439
     14  C8A       13.1970   11.2920   26.1800 C.3   207  NDP207      0.3377
     15  N7A       12.1300   10.9100   26.8840 N.2   207  NDP207     -0.2095
     16  C5A       11.6870   12.0390   27.4090 C.2   207  NDP207      0.2526
     17  C6A       10.5490   12.1600   28.2460 C.2   207  NDP207      0.4393
     18  N6A        9.8430   11.0690   28.5670 N.pl3 207  NDP207      0.2180
     19  N1A       10.2240   13.4270   28.7090 N.2   207  NDP207      0.0021
     20  C2A       10.9810   14.5030   28.3530 C.3   207  NDP207      0.5254
     21  N3A       12.0730   14.3770   27.5410 N.2   207  NDP207     -0.0055
     22  C4A       12.4670   13.1520   27.0490 C.2   207  NDP207      0.3518
     23  O3        16.8610    8.1900   22.4610 O.3   207  NDP207     -0.2703
     24  PN        17.6890    7.2050   23.4240 P.3   207  NDP207      0.2189
     25  O1N       16.8300    6.0850   23.8930 O.2   207  NDP207     -0.5170
     26  O2N       18.4230    7.9620   24.4710 O.3   207  NDP207     -0.4371
     27  O5D       18.7670    6.5570   22.4020 O.3   207  NDP207     -0.3112
     28  C5D       18.8280    6.8370   20.9870 C.3   207  NDP207      0.1813
     29  C4D       18.8020    5.4340   20.3640 C.3   207  NDP207      0.1799
     30  O4D       17.4500    5.0270   19.9350 O.3   207  NDP207     -0.3327
     31  C3D       19.7020    5.2850   19.1060 C.3   207  NDP207      0.2158
     32  O3D       20.4280    4.0130   19.0440 O.3   207  NDP207     -0.2175
     33  C2D       18.7110    5.4160   17.9840 C.3   207  NDP207      0.2309
     34  O2D       19.1630    4.9620   16.7280 O.3   207  NDP207     -0.2158
     35  C1D       17.5940    4.5830   18.5610 C.3   207  NDP207      0.2263
     36  N1N       16.2930    4.6010   17.8020 N.pl3 207  NDP207     -0.2787
     37  C2N       15.8560    3.4030   17.1260 C.3   207  NDP207      0.1244
     38  C3N       14.6300    3.3730   16.3960 C.2   207  NDP207      0.0544
     39  C7N       14.1130    2.0710   15.6440 C.2   207  NDP207      0.2818
     40  O7N       12.9340    1.9560   15.3110 O.2   207  NDP207     -0.2670
     41  N7N       14.9890    1.0950   15.3880 N.am  207  NDP207     -0.0839
     42  C4N       13.8610    4.5700   16.3560 C.2   207  NDP207      0.0033
     43  C5N       14.3030    5.7550   17.0270 C.2   207  NDP207      0.0157
     44  C6N       15.5180    5.7800   17.7510 C.2   207  NDP207      0.0633
     45  P2B       17.5990   15.5800   27.2510 P.3   207  NDP207      0.5328
     46  O1X       17.7360   14.9730   28.6140 O.3   207  NDP207     -0.1145
     47  O2X       17.6490   17.0640   27.3360 O.3   207  NDP207     -0.1145
     48  O3X       18.6840   15.1410   26.3580 O.2   207  NDP207     -0.2224
@<TRIPOS>BOND
     1    40    39    2
     2    41    39   am
     3    39    38    1
     4    42    38    2
     5    42    43    1
     6    38    37    1
     7    34    33    1
     8    43    44    2
     9    37    36    1
    10    44    36    1
    11    36    35    1
    12    33    35    1
    13    33    31    1
    14    35    30    1
    15    32    31    1
    16    31    29    1
    17    30    29    1
    18    29    28    1
    19    28    27    1
    20     2     1    2
    21    27    24    1
    22    23     1    1
    23    23    24    1
    24     1     4    1
    25     1     3    1
    26     4     5    1
    27    24    25    2
    28    24    26    1
    29     7     6    1
    30     7    12    1
    31     5     6    1
    32     6     8    1
    33    12    13    1
    34    12    10    1
    35    14    13    1
    36    14    15    1
    37    13    22    1
    38    48    45    2
    39     8    10    1
    40     8     9    1
    41    10    11    1
    42    11    45    1
    43    15    16    2
    44    22    16    1
    45    22    21    2
    46    45    47    1
    47    45    46    1
    48    16    17    1
    49    21    20    1
    50    17    18    1
    51    17    19    2
    52    20    19    1
