@<TRIPOS>MOLECULE
1kll_MC_A_1.pdb
 37 39 0 0 0
SMALL
GASTEIGER

@<TRIPOS>ATOM
      1  C51        9.3750   32.3500   20.8730 C.ar  9138  MC9138      0.1011
      2  C5        10.3590   31.9110   19.9160 C.2   9138  MC9138      0.2077
      3  C6        11.1160   32.9600   19.2210 C.2   9138  MC9138      0.0226
      4  C7        10.9290   34.2670   19.4800 C.2   9138  MC9138      0.0792
      5  C8         9.8820   34.6750   20.4680 C.2   9138  MC9138      0.2094
      6  C81        9.1580   33.6230   21.1020 C.ar  9138  MC9138      0.0597
      7  C9         8.0540   33.7160   22.1050 C.ar  9138  MC9138      0.0396
      8  C91        7.7680   32.4700   22.3680 C.ar  9138  MC9138      0.0576
      9  C11       12.1240   32.4840   18.1990 C.3   9138  MC9138     -0.0341
     10  N4         8.5130   31.5980   21.6250 N.ar  9138  MC9138     -0.3365
     11  N7        11.6120   35.2890   18.8380 N.pl3 9138  MC9138     -0.3547
     12  O5        10.4740   30.7080   19.7510 O.2   9138  MC9138     -0.2853
     13  O8         9.7160   35.8730   20.6650 O.2   9138  MC9138     -0.2852
     14  C10        7.4800   34.9430   22.6010 C.3   9138  MC9138      0.2380
     15  O10        6.3950   34.5180   23.5750 O.3   9138  MC9138     -0.4298
     16  C12        5.9940   35.6560   24.1290 C.2   9138  MC9138      0.3988
     17  O13        6.1110   36.8420   23.8840 O.2   9138  MC9138     -0.2267
     18  N14        5.0380   35.3040   25.0140 N.am  9138  MC9138     -0.2950
     19  C1         6.7940   31.4740   23.1240 C.3   9138  MC9138      0.1122
     20  C2         6.9260   30.1080   22.7430 C.3   9138  MC9138      0.0549
     21  C3         8.0720   30.1320   21.7820 C.3   9138  MC9138      0.0417
     22  N1         5.9500   29.2690   22.3790 N.3   9138  MC9138     -0.3234
     23  O0         5.5180   31.6190   23.0520 O.3   9138  MC9138     -0.3841
     24 H111       12.1040   31.5250   18.1510 H     9138  MC9138      0.0279
     25 H112       13.0030   32.7720   18.4570 H     9138  MC9138      0.0279
     26 H113       11.9070   32.8520   17.3390 H     9138  MC9138      0.0279
     27  H71       12.1960   35.1030   18.2340 H     9138  MC9138      0.1424
     28  H72       11.4520   36.1080   19.0440 H     9138  MC9138      0.1424
     29 H141        4.5440   35.9080   25.3760 H     9138  MC9138      0.1482
     30 H142        4.9220   34.4760   25.2160 H     9138  MC9138      0.1482
     31  H1         7.0280   31.5220   24.0750 H     9138  MC9138      0.0674
     32  H2         7.3050   29.6840   23.5410 H     9138  MC9138      0.0505
     33  H31        7.7980   29.7700   20.9250 H     9138  MC9138      0.0508
     34  H32        8.8050   29.5960   22.1220 H     9138  MC9138      0.0508
     35  H11        5.1340   29.5420   22.3580 H     9138  MC9138      0.1186
     36  H12        6.1380   28.4580   22.1660 H     9138  MC9138      0.1186
     37  H0         5.1700   30.8950   22.8870 H     9138  MC9138      0.2104
@<TRIPOS>BOND
     1    26     9    1
     2    24     9    1
     3     9    25    1
     4     9     3    1
     5    27    11    1
     6    11    28    1
     7    11     4    1
     8     3     4    2
     9     3     2    1
    10     4     5    1
    11    12     2    2
    12     2     1    1
    13     5    13    2
    14     5     6    1
    15     1     6   ar
    16     1    10   ar
    17    33    21    1
    18     6     7   ar
    19    10    21    1
    20    10     8   ar
    21    21    34    1
    22    21    20    1
    23     7     8   ar
    24     7    14    1
    25    36    22    1
    26    35    22    1
    27     8    19    1
    28    22    20    1
    29    14    15    1
    30    20    19    1
    31    20    32    1
    32    37    23    1
    33    23    19    1
    34    19    31    1
    35    15    16    1
    36    17    16    2
    37    16    18   am
    38    18    30    1
    39    18    29    1
