@<TRIPOS>MOLECULE
1klm_SPP_A_1.pdb
 32 35 0 0 0
SMALL
GASTEIGER

@<TRIPOS>ATOM
      1  C2        -1.4020  -35.2070   23.5790 C.ar  999  SPP999      0.1467
      2  C3        -0.7030  -34.6530   24.6770 C.ar  999  SPP999      0.0967
      3  C4         0.2490  -35.4580   25.2840 C.ar  999  SPP999      0.0205
      4  C5         0.4840  -36.7440   24.8300 C.ar  999  SPP999      0.0221
      5  C6        -0.2670  -37.1880   23.7330 C.ar  999  SPP999      0.1004
      6  C8        -2.5540  -34.6030   21.4860 C.3   999  SPP999      0.1137
      7  C9        -3.3940  -33.4980   20.9040 C.3   999  SPP999      0.1153
      8  C11       -4.6800  -33.4090   22.9670 C.3   999  SPP999      0.1153
      9  C12       -3.7270  -34.4050   23.5850 C.3   999  SPP999      0.1137
     10  C         -5.7380  -34.1570   20.8450 C.2   999  SPP999      0.2789
     11  C14       -7.0640  -34.3230   21.5580 C.2   999  SPP999      0.1847
     12  C15       -7.6660  -33.6670   22.6090 C.2   999  SPP999      0.0393
     13  C16       -9.9450  -34.0980   23.7990 C.ar  999  SPP999      0.0207
     14  C17      -11.0420  -34.9560   23.7540 C.ar  999  SPP999      0.0908
     15  C18      -11.1400  -35.9850   22.8280 C.ar  999  SPP999      0.0207
     16  C19      -10.1330  -36.2220   21.8990 C.ar  999  SPP999      0.0334
     17  C20       -9.0120  -35.3670   21.9290 C.ar  999  SPP999      0.1317
     18  C21       -8.9120  -34.3200   22.8650 C.ar  999  SPP999      0.0336
     19  CA        -0.1500  -32.5680   26.0560 C.3   999  SPP999      0.0927
     20  CB         1.3120  -32.5680   25.6730 C.3   999  SPP999      0.0233
     21  CC        -0.3340  -33.0810   27.4520 C.3   999  SPP999      0.0233
     22  CE       -11.0570  -34.2950   27.1110 C.3   999  SPP999      0.2016
     23  N         -0.9720  -33.3400   25.0970 N.pl3 999  SPP999     -0.2365
     24  N1        -1.2000  -36.4390   23.1180 N.ar  999  SPP999     -0.2278
     25  N7        -2.3860  -34.4100   22.9470 N.pl3 999  SPP999     -0.2887
     26  N10       -4.7230  -33.6310   21.5140 N.am  999  SPP999     -0.2705
     27  N13       -7.8870  -35.3440   21.1490 N.2   999  SPP999     -0.3973
     28  ND       -12.0940  -34.7800   24.6560 N.pl3 999  SPP999     -0.1006
     29  O         -5.6410  -34.5230   19.6460 O.2   999  SPP999     -0.2671
     30  OS1      -13.5120  -33.7540   26.4110 O.2   999  SPP999     -0.1528
     31  OS2      -11.7450  -32.4330   25.4180 O.2   999  SPP999     -0.1528
     32  S        -12.1850  -33.7140   25.8770 S.O2  999  SPP999      0.0750
@<TRIPOS>BOND
     1    29    10    2
     2    10    26   am
     3    10    11    1
     4     7     6    1
     5     7    26    1
     6    27    11    2
     7    27    17    2
     8     6    25    1
     9    26     8    1
    10    11    12    1
    11    16    17   ar
    12    16    15   ar
    13    17    18   ar
    14    12    18    2
    15    15    14   ar
    16    18    13   ar
    17    25     1    1
    18    25     9    1
    19     8     9    1
    20    24     1   ar
    21    24     5   ar
    22     1     2   ar
    23     5     4   ar
    24    14    13   ar
    25    14    28    1
    26    28    32    1
    27     2    23    1
    28     2     3   ar
    29     4     3   ar
    30    23    19    1
    31    31    32    2
    32    20    19    1
    33    32    30    2
    34    32    22    1
    35    19    21    1
