@<TRIPOS>MOLECULE
1klt_PMS_A_1.pdb
 10 10 0 0 0
SMALL
GASTEIGER

@<TRIPOS>ATOM
      1  C         10.1770   35.7380   11.3890 C.3   400  PMS400      0.1742
      2  C1         9.1540   36.1310   10.3160 C.ar  400  PMS400      0.0010
      3  C2         8.8030   37.4640   10.1270 C.ar  400  PMS400     -0.0026
      4  C3         7.9530   37.8450    9.0670 C.ar  400  PMS400     -0.0003
      5  C4         7.4520   36.9100    8.2010 C.ar  400  PMS400     -0.0000
      6  C5         7.7780   35.5800    8.3750 C.ar  400  PMS400     -0.0003
      7  C6         8.6230   35.1800    9.4300 C.ar  400  PMS400     -0.0026
      8  S          9.6400   34.4580   12.5890 S.3   400  PMS400     -0.0138
      9  O1S        8.4380   34.8860   13.1240 O.3   400  PMS400     -0.0778
     10  O2S       10.6890   34.1290   13.5150 O.3   400  PMS400     -0.0778
@<TRIPOS>BOND
     1     5     6   ar
     2     5     4   ar
     3     6     7   ar
     4     4     3   ar
     5     7     2   ar
     6     3     2   ar
     7     2     1    1
     8     1     8    1
     9     8     9    1
    10     8    10    1
