@<TRIPOS>MOLECULE
1kly_UP6_A_1.pdb
 21 22 0 0 0
SMALL
GASTEIGER

@<TRIPOS>ATOM
      1  N1        41.8270   40.0480   37.9650 N.am  2001  UP62001    -0.0968
      2  C2        42.7260   39.2690   37.2020 C.1   2001  UP62001     0.3005
      3  N3        44.0530   39.5770   37.3880 N.2   2001  UP62001    -0.2426
      4  C4        44.5720   40.5670   38.2390 C.1   2001  UP62001     0.2380
      5  C5        43.5900   41.3060   38.9640 C.2   2001  UP62001     0.2253
      6  N6        42.3090   41.0360   38.8110 N.2   2001  UP62001    -0.1496
      7  O2        42.3460   38.3940   36.4560 O.2   2001  UP62001    -0.1905
      8  O4        45.7630   40.7080   38.2960 O.2   2001  UP62001    -0.2069
      9  C1'       40.3710   39.8230   37.9060 C.3   2001  UP62001     0.2577
     10  C2'       39.6910   39.8360   36.5520 C.3   2001  UP62001     0.2334
     11  C3'       38.5400   38.8730   36.7650 C.3   2001  UP62001     0.2159
     12  C4'       39.1290   37.8500   37.7060 C.3   2001  UP62001     0.1801
     13  O2'       39.2670   41.1430   36.1630 O.3   2001  UP62001    -0.2157
     14  O3'       37.4320   39.5570   37.3500 O.3   2001  UP62001    -0.2175
     15  O4'       40.0650   38.5880   38.5040 O.3   2001  UP62001    -0.3309
     16  C5'       39.8320   36.6440   37.1270 C.3   2001  UP62001     0.1859
     17  O5'       38.8930   35.9970   36.2530 O.3   2001  UP62001    -0.2675
     18  P         39.2480   34.6690   35.4660 P.3   2001  UP62001     0.5327
     19  O1P       40.5140   34.8030   34.6740 O.3   2001  UP62001    -0.1145
     20  O2P       38.0760   34.4550   34.5600 O.2   2001  UP62001    -0.2224
     21  O3P       39.2960   33.4780   36.5430 O.3   2001  UP62001    -0.1145
@<TRIPOS>BOND
     1    20    18    2
     2    19    18    1
     3    18    17    1
     4    18    21    1
     5    13    10    1
     6    17    16    1
     7     7     2    2
     8    10    11    1
     9    10     9    1
    10    11    14    1
    11    11    12    1
    12    16    12    1
    13     2     3    2
    14     2     1   am
    15     3     4    2
    16    12    15    1
    17     9     1    1
    18     9    15    1
    19     1     6    1
    20     4     8    2
    21     4     5    1
    22     6     5    2
