@<TRIPOS>MOLECULE
1klz_U_A_1.pdb
 21 22 0 0 0
SMALL
GASTEIGER

@<TRIPOS>ATOM
      1  OP3       39.1340  -18.1670   36.8220 O.3   2001  U2001      -0.1145
      2  P         39.1050  -16.9510   35.7690 P.3   2001  U2001       0.5327
      3  OP1       40.3710  -16.8310   34.9650 O.3   2001  U2001      -0.1145
      4  OP2       37.9240  -17.1660   34.8740 O.2   2001  U2001      -0.2224
      5  O5'       38.7830  -15.6180   36.5810 O.3   2001  U2001      -0.2675
      6  C5'       39.7520  -14.9630   37.4280 C.3   2001  U2001       0.1859
      7  C4'       39.0990  -13.7000   37.9590 C.3   2001  U2001       0.1801
      8  O4'       40.0500  -12.9160   38.7110 O.3   2001  U2001      -0.3320
      9  C3'       38.4820  -12.7160   36.9800 C.3   2001  U2001       0.2158
     10  O3'       37.3910  -12.0040   37.5650 O.3   2001  U2001      -0.2175
     11  C2'       39.6240  -11.7710   36.7060 C.3   2001  U2001       0.2319
     12  O2'       39.1930  -10.4940   36.2410 O.3   2001  U2001      -0.2157
     13  C1'       40.3330  -11.7090   38.0450 C.3   2001  U2001       0.2401
     14  N1        41.7570  -11.4080   38.1300 N.am  2001  U2001      -0.1766
     15  C2        42.6920  -12.2220   37.4880 C.1   2001  U2001       0.2845
     16  O2        42.3370  -13.1740   36.8340 O.2   2001  U2001      -0.1918
     17  N3        44.0100  -11.8620   37.6700 N.2   2001  U2001      -0.2452
     18  C4        44.4950  -10.7860   38.4120 C.1   2001  U2001       0.2182
     19  O4        45.6910  -10.6230   38.4720 O.2   2001  U2001      -0.2085
     20  C5        43.4740   -9.9870   39.0320 C.2   2001  U2001       0.1242
     21  C6        42.1870  -10.3010   38.8870 C.2   2001  U2001       0.0929
@<TRIPOS>BOND
     1     4     2    2
     2     3     2    1
     3     2     5    1
     4     2     1    1
     5    12    11    1
     6     5     6    1
     7    11     9    1
     8    11    13    1
     9    16    15    2
    10     9    10    1
    11     9     7    1
    12     6     7    1
    13    15    17    2
    14    15    14   am
    15    17    18    2
    16     7     8    1
    17    13    14    1
    18    13     8    1
    19    14    21    1
    20    18    19    2
    21    18    20    1
    22    21    20    2
