@<TRIPOS>MOLECULE
1km0_UP6_A_1.pdb
 21 22 0 0 0
SMALL
GASTEIGER

@<TRIPOS>ATOM
      1  N1        21.1240   -4.4820   35.9240 N.am  5001  UP65001    -0.0968
      2  C2        20.1000   -4.2560   34.9670 C.1   5001  UP65001     0.3005
      3  N3        19.3140   -5.3520   34.7000 N.2   5001  UP65001    -0.2426
      4  C4        19.4530   -6.6120   35.2850 C.1   5001  UP65001     0.2380
      5  C5        20.5140   -6.7270   36.2410 C.2   5001  UP65001     0.2253
      6  N6        21.2880   -5.7050   36.5210 N.2   5001  UP65001    -0.1496
      7  O2        19.9550   -3.1750   34.4300 O.2   5001  UP65001    -0.1905
      8  O4        18.6970   -7.4900   34.9420 O.2   5001  UP65001    -0.2069
      9  C1'       22.0130   -3.3730   36.2290 C.3   5001  UP65001     0.2577
     10  C2'       22.3210   -3.0130   37.6670 C.3   5001  UP65001     0.2334
     11  C3'       23.7390   -2.4290   37.5740 C.3   5001  UP65001     0.2159
     12  C4'       24.3270   -3.2660   36.4580 C.3   5001  UP65001     0.1801
     13  O2'       21.3560   -2.0970   38.2350 O.3   5001  UP65001    -0.2157
     14  O3'       23.6790   -1.0210   37.2780 O.3   5001  UP65001    -0.2175
     15  O4'       23.2350   -3.5700   35.5760 O.3   5001  UP65001    -0.3309
     16  C5'       25.0170   -4.5660   36.8120 C.3   5001  UP65001     0.1859
     17  O5'       26.0330   -4.2780   37.7950 O.3   5001  UP65001    -0.2675
     18  P         27.0360   -5.3610   38.3940 P.3   5001  UP65001     0.5327
     19  O1P       26.3800   -6.5940   39.0100 O.3   5001  UP65001    -0.1145
     20  O2P       27.8410   -4.6360   39.4730 O.3   5001  UP65001    -0.1145
     21  O3P       28.0790   -5.6960   37.2130 O.2   5001  UP65001    -0.2224
@<TRIPOS>BOND
     1     7     2    2
     2     3     2    2
     3     3     4    2
     4     8     4    2
     5     2     1   am
     6     4     5    1
     7    15     9    1
     8    15    12    1
     9     1     9    1
    10     1     6    1
    11     9    10    1
    12     5     6    2
    13    12    16    1
    14    12    11    1
    15    16    17    1
    16    21    18    2
    17    14    11    1
    18    11    10    1
    19    10    13    1
    20    17    18    1
    21    18    19    1
    22    18    20    1
