@<TRIPOS>MOLECULE
1km1_UP6_A_1.pdb
 21 22 0 0 0
SMALL
GASTEIGER

@<TRIPOS>ATOM
      1  N1        27.3140  -18.3930   14.2140 N.am  5001  UP65001    -0.0968
      2  C2        28.2390  -17.6620   13.4620 C.1   5001  UP65001     0.3005
      3  N3        29.5540  -17.8760   13.8010 N.2   5001  UP65001    -0.2426
      4  C4        30.0330  -18.7420   14.8060 C.1   5001  UP65001     0.2380
      5  C5        29.0130  -19.4440   15.5210 C.2   5001  UP65001     0.2253
      6  N6        27.7460  -19.2620   15.2220 N.2   5001  UP65001    -0.1496
      7  O2        27.8660  -16.9140   12.5910 O.2   5001  UP65001    -0.1905
      8  O4        31.2220  -18.8270   14.9800 O.2   5001  UP65001    -0.2069
      9  C1'       25.8780  -18.2760   13.9510 C.3   5001  UP65001     0.2577
     10  C2'       25.2060  -16.9120   13.9660 C.3   5001  UP65001     0.2334
     11  C3'       24.0160  -17.1130   13.0140 C.3   5001  UP65001     0.2159
     12  C4'       24.5810  -18.1000   12.0180 C.3   5001  UP65001     0.1801
     13  O2'       24.8300  -16.4940   15.2830 O.3   5001  UP65001    -0.2157
     14  O3'       22.8680  -17.6330   13.7220 O.3   5001  UP65001    -0.2175
     15  O4'       25.5190  -18.8950   12.7470 O.3   5001  UP65001    -0.3309
     16  C5'       25.2700  -17.5870   10.7860 C.3   5001  UP65001     0.1859
     17  O5'       24.3500  -16.7200   10.1380 O.3   5001  UP65001    -0.2675
     18  P         24.6700  -15.9310    8.7820 P.3   5001  UP65001     0.5327
     19  O1P       25.8920  -15.0670    8.8260 O.3   5001  UP65001    -0.1145
     20  O2P       23.4840  -15.0810    8.5410 O.3   5001  UP65001    -0.1145
     21  O3P       24.6990  -17.0670    7.6270 O.2   5001  UP65001    -0.2224
@<TRIPOS>BOND
     1    21    18    2
     2    20    18    1
     3    18    19    1
     4    18    17    1
     5    17    16    1
     6    16    12    1
     7    12    15    1
     8    12    11    1
     9     7     2    2
    10    15     9    1
    11    11    14    1
    12    11    10    1
    13     2     3    2
    14     2     1   am
    15     3     4    2
    16     9    10    1
    17     9     1    1
    18    10    13    1
    19     1     6    1
    20     4     8    2
    21     4     5    1
    22     6     5    2
