@<TRIPOS>MOLECULE
1km2_UP6_A_1.pdb
 21 22 0 0 0
SMALL
GASTEIGER

@<TRIPOS>ATOM
      1  N1        41.8190   40.1730   37.5690 N.am  2001  UP62001    -0.0968
      2  C2        42.7340   39.3740   36.8740 C.1   2001  UP62001     0.3005
      3  N3        44.0660   39.6820   37.0800 N.2   2001  UP62001    -0.2426
      4  C4        44.5360   40.7110   37.9160 C.1   2001  UP62001     0.2380
      5  C5        43.5110   41.4730   38.5680 C.2   2001  UP62001     0.2253
      6  N6        42.2410   41.2070   38.3940 N.2   2001  UP62001    -0.1496
      7  O2        42.3380   38.4860   36.1650 O.2   2001  UP62001    -0.1905
      8  O4        45.7260   40.8760   38.0340 O.2   2001  UP62001    -0.2069
      9  C1'       40.3970   39.9230   37.4740 C.3   2001  UP62001     0.2577
     10  C2'       39.7030   39.9200   36.1330 C.3   2001  UP62001     0.2334
     11  C3'       38.5580   38.9280   36.3340 C.3   2001  UP62001     0.2159
     12  C4'       39.1300   37.9500   37.3450 C.3   2001  UP62001     0.1801
     13  O2'       39.2600   41.2190   35.7540 O.3   2001  UP62001    -0.2157
     14  O3'       37.4070   39.6100   36.8510 O.3   2001  UP62001    -0.2175
     15  O4'       40.0770   38.7100   38.1210 O.3   2001  UP62001    -0.3309
     16  C5'       39.8090   36.6940   36.8310 C.3   2001  UP62001     0.1859
     17  O5'       38.8480   36.0190   35.9810 O.3   2001  UP62001    -0.2675
     18  P         39.2030   34.7040   35.1460 P.3   2001  UP62001     0.5327
     19  O1P       40.4850   34.8670   34.3700 O.3   2001  UP62001    -0.1145
     20  O2P       38.0210   34.5180   34.2390 O.2   2001  UP62001    -0.2224
     21  O3P       39.2310   33.5000   36.1660 O.3   2001  UP62001    -0.1145
@<TRIPOS>BOND
     1    20    18    2
     2    19    18    1
     3    18    17    1
     4    18    21    1
     5    13    10    1
     6    17    16    1
     7    10    11    1
     8    10     9    1
     9     7     2    2
    10    11    14    1
    11    11    12    1
    12    16    12    1
    13     2     3    2
    14     2     1   am
    15     3     4    2
    16    12    15    1
    17     9     1    1
    18     9    15    1
    19     1     6    1
    20     4     8    2
    21     4     5    1
    22     6     5    2
