@<TRIPOS>MOLECULE
1km3_UP6_A_1.pdb
 21 22 0 0 0
SMALL
GASTEIGER

@<TRIPOS>ATOM
      1  N1        41.8290   40.0250   37.4900 N.am  2001  UP62001    -0.0968
      2  C2        42.7360   39.2350   36.7940 C.1   2001  UP62001     0.3005
      3  N3        44.0550   39.5630   36.9940 N.2   2001  UP62001    -0.2426
      4  C4        44.5260   40.5920   37.8110 C.1   2001  UP62001     0.2380
      5  C5        43.5220   41.3400   38.4640 C.2   2001  UP62001     0.2253
      6  N6        42.2510   41.0510   38.2980 N.2   2001  UP62001    -0.1496
      7  O2        42.3560   38.3450   36.1020 O.2   2001  UP62001    -0.1905
      8  O4        45.7120   40.7650   37.9090 O.2   2001  UP62001    -0.2069
      9  C1'       40.4060   39.7740   37.4000 C.3   2001  UP62001     0.2577
     10  C2'       39.7040   39.8030   36.0620 C.3   2001  UP62001     0.2334
     11  C3'       38.5490   38.8440   36.2720 C.3   2001  UP62001     0.2159
     12  C4'       39.1150   37.8470   37.2340 C.3   2001  UP62001     0.1801
     13  O2'       39.2910   41.1170   35.6940 O.3   2001  UP62001    -0.2157
     14  O3'       37.4240   39.5410   36.8350 O.3   2001  UP62001    -0.2175
     15  O4'       40.0830   38.5570   38.0060 O.3   2001  UP62001    -0.3309
     16  C5'       39.7500   36.5800   36.7100 C.3   2001  UP62001     0.1859
     17  O5'       38.8170   35.9480   35.8240 O.3   2001  UP62001    -0.2675
     18  P         39.1750   34.6040   35.0350 P.3   2001  UP62001     0.5327
     19  O1P       40.4410   34.7070   34.2150 O.3   2001  UP62001    -0.1145
     20  O2P       37.9950   34.3860   34.1440 O.2   2001  UP62001    -0.2224
     21  O3P       39.2200   33.4230   36.1160 O.3   2001  UP62001    -0.1145
@<TRIPOS>BOND
     1    20    18    2
     2    19    18    1
     3    18    17    1
     4    18    21    1
     5    13    10    1
     6    17    16    1
     7    10    11    1
     8    10     9    1
     9     7     2    2
    10    11    14    1
    11    11    12    1
    12    16    12    1
    13     2     3    2
    14     2     1   am
    15     3     4    2
    16    12    15    1
    17     9     1    1
    18     9    15    1
    19     1     6    1
    20     4     8    2
    21     4     5    1
    22     6     5    2
