@<TRIPOS>MOLECULE
1km4_U_A_1.pdb
 21 22 0 0 0
SMALL
GASTEIGER

@<TRIPOS>ATOM
      1  OP3       39.1170   33.4510   36.2790 O.3   2001  U2001      -0.1145
      2  P         39.0460   34.6790   35.2590 P.3   2001  U2001       0.5327
      3  OP1       40.3200   34.8700   34.4850 O.3   2001  U2001      -0.1145
      4  OP2       37.8790   34.4720   34.3530 O.2   2001  U2001      -0.2224
      5  O5'       38.6840   35.9980   36.0870 O.3   2001  U2001      -0.2675
      6  C5'       39.6450   36.6790   36.9250 C.3   2001  U2001       0.1859
      7  C4'       38.9580   37.9310   37.4270 C.3   2001  U2001       0.1801
      8  O4'       39.8820   38.7150   38.2010 O.3   2001  U2001      -0.3320
      9  C3'       38.3720   38.9060   36.4150 C.3   2001  U2001       0.2158
     10  O3'       37.2590   39.6170   36.9620 O.3   2001  U2001      -0.2175
     11  C2'       39.5140   39.8680   36.1740 C.3   2001  U2001       0.2319
     12  O2'       39.0900   41.1480   35.7220 O.3   2001  U2001      -0.2157
     13  C1'       40.1720   39.9470   37.5330 C.3   2001  U2001       0.2401
     14  N1        41.5750   40.2840   37.6450 N.am  2001  U2001      -0.1766
     15  C2        42.5340   39.4580   37.0730 C.1   2001  U2001       0.2845
     16  O2        42.2110   38.4680   36.4510 O.2   2001  U2001      -0.1918
     17  N3        43.8430   39.8410   37.2630 N.2   2001  U2001      -0.2452
     18  C4        44.2800   40.9680   37.9620 C.1   2001  U2001       0.2182
     19  O4        45.4620   41.1550   38.0480 O.2   2001  U2001      -0.2085
     20  C5        43.2310   41.7800   38.5040 C.2   2001  U2001       0.1242
     21  C6        41.9590   41.4320   38.3420 C.2   2001  U2001       0.0929
@<TRIPOS>BOND
     1     4     2    2
     2     3     2    1
     3     2     5    1
     4     2     1    1
     5    12    11    1
     6     5     6    1
     7    11     9    1
     8    11    13    1
     9     9    10    1
    10     9     7    1
    11    16    15    2
    12     6     7    1
    13    15    17    2
    14    15    14   am
    15    17    18    2
    16     7     8    1
    17    13    14    1
    18    13     8    1
    19    14    21    1
    20    18    19    2
    21    18    20    1
    22    21    20    2
