@<TRIPOS>MOLECULE
1km5_UP6_A_1.pdb
 21 22 0 0 0
SMALL
GASTEIGER

@<TRIPOS>ATOM
      1  N1        41.6850   40.1640   37.7640 N.am  2001  UP62001    -0.0968
      2  C2        42.5800   39.4320   37.0050 C.1   2001  UP62001     0.3005
      3  N3        43.8890   39.7900   37.1530 N.2   2001  UP62001    -0.2426
      4  C4        44.3740   40.7980   37.9910 C.1   2001  UP62001     0.2380
      5  C5        43.3820   41.4780   38.7410 C.2   2001  UP62001     0.2253
      6  N6        42.1100   41.1620   38.6150 N.2   2001  UP62001    -0.1496
      7  O2        42.2110   38.5880   36.3010 O.2   2001  UP62001    -0.1905
      8  O4        45.5600   41.0080   38.0160 O.2   2001  UP62001    -0.2069
      9  C1'       40.2520   39.9080   37.6800 C.3   2001  UP62001     0.2577
     10  C2'       39.5950   39.9120   36.2940 C.3   2001  UP62001     0.2334
     11  C3'       38.4310   38.9810   36.4640 C.3   2001  UP62001     0.2159
     12  C4'       38.9640   37.9890   37.4670 C.3   2001  UP62001     0.1801
     13  O2'       39.2320   41.2310   35.8300 O.3   2001  UP62001    -0.2157
     14  O3'       37.2900   39.7140   36.9490 O.3   2001  UP62001    -0.2175
     15  O4'       39.8920   38.7050   38.2870 O.3   2001  UP62001    -0.3309
     16  C5'       39.6360   36.7360   36.9580 C.3   2001  UP62001     0.1859
     17  O5'       38.7080   36.0950   36.0730 O.3   2001  UP62001    -0.2675
     18  P         39.0570   34.7540   35.2510 P.3   2001  UP62001     0.5327
     19  O1P       40.3350   34.9120   34.4470 O.3   2001  UP62001    -0.1145
     20  O2P       37.8720   34.5660   34.3640 O.2   2001  UP62001    -0.2224
     21  O3P       39.1150   33.5550   36.3150 O.3   2001  UP62001    -0.1145
@<TRIPOS>BOND
     1    20    18    2
     2    19    18    1
     3    18    17    1
     4    18    21    1
     5    13    10    1
     6    17    16    1
     7    10    11    1
     8    10     9    1
     9     7     2    2
    10    11    14    1
    11    11    12    1
    12    16    12    1
    13     2     3    2
    14     2     1   am
    15     3     4    2
    16    12    15    1
    17     9     1    1
    18     9    15    1
    19     1     6    1
    20     4     8    2
    21     4     5    1
    22     6     5    2
