@<TRIPOS>MOLECULE
1km6_OMP_A_1.pdb
 24 25 0 0 0
SMALL
GASTEIGER

@<TRIPOS>ATOM
      1  P         39.2080   34.6900   35.2910 P.3   2001  OMP2001     0.5327
      2  O1P       40.4810   34.8500   34.5020 O.3   2001  OMP2001    -0.1145
      3  O2P       38.0490   34.4640   34.3930 O.2   2001  OMP2001    -0.2224
      4  O3P       39.2760   33.4730   36.3490 O.3   2001  OMP2001    -0.1145
      5  O5'       38.8370   36.0230   36.1120 O.3   2001  OMP2001    -0.2675
      6  C5'       39.7680   36.6780   36.9790 C.3   2001  OMP2001     0.1859
      7  C4'       39.0850   37.9300   37.4760 C.3   2001  OMP2001     0.1801
      8  O4'       39.9970   38.6780   38.2800 O.3   2001  OMP2001    -0.3319
      9  C3'       38.5350   38.9210   36.4760 C.3   2001  OMP2001     0.2158
     10  O3'       37.4040   39.6270   36.9900 O.3   2001  OMP2001    -0.2175
     11  C2'       39.7010   39.8730   36.2950 C.3   2001  OMP2001     0.2319
     12  O2'       39.3370   41.1690   35.8140 O.3   2001  OMP2001    -0.2157
     13  C1'       40.3110   39.8980   37.6810 C.3   2001  OMP2001     0.2402
     14  N1        41.7140   40.2670   37.8580 N.am  2001  OMP2001    -0.1714
     15  C2        42.6730   39.4970   37.2130 C.1   2001  OMP2001     0.2847
     16  O2        42.3540   38.5470   36.5310 O.2   2001  OMP2001    -0.1918
     17  N3        43.9820   39.8820   37.3950 N.2   2001  OMP2001    -0.2452
     18  C4        44.4330   40.9640   38.1640 C.1   2001  OMP2001     0.2184
     19  O4        45.6320   41.1600   38.2150 O.2   2001  OMP2001    -0.2085
     20  C5        43.3900   41.7220   38.8130 C.2   2001  OMP2001     0.1296
     21  C6        42.0970   41.3880   38.6650 C.2   2001  OMP2001     0.1573
     22  C7        41.2050   42.0420   39.6370 C.2   2001  OMP2001     0.4026
     23  O71       41.4100   43.2350   39.9470 O.co2 2001  OMP2001    -0.2391
     24  O72       40.2500   41.4180   40.1700 O.co2 2001  OMP2001    -0.2391
@<TRIPOS>BOND
     1     3     1    2
     2     2     1    1
     3     1     5    1
     4     1     4    1
     5    12    11    1
     6     5     6    1
     7    11     9    1
     8    11    13    1
     9     9    10    1
    10     9     7    1
    11    16    15    2
    12     6     7    1
    13    15    17    2
    14    15    14   am
    15    17    18    2
    16     7     8    1
    17    13    14    1
    18    13     8    1
    19    14    21    1
    20    18    19    2
    21    18    20    1
    22    21    20    2
    23    21    22    1
    24    22    23   ar
    25    22    24   ar
