@<TRIPOS>MOLECULE
1kme_RET_A_1.pdb
 20 20 0 0 0
SMALL
GASTEIGER

@<TRIPOS>ATOM
      1  C1        41.1750   54.8750    2.2780 C.3   301  RET301      0.0183
      2  C2        42.0200   56.0950    1.8110 C.3   301  RET301      0.0044
      3  C3        42.5900   56.0810    0.4400 C.3   301  RET301      0.0047
      4  C4        43.1050   54.7310   -0.0800 C.3   301  RET301      0.0217
      5  C5        42.2990   53.4750    0.3280 C.2   301  RET301     -0.0479
      6  C6        41.3940   53.5300    1.4240 C.2   301  RET301     -0.0307
      7  C7        40.6690   52.2430    1.7060 C.2   301  RET301     -0.0052
      8  C8        39.7280   51.9190    2.6540 C.2   301  RET301     -0.0049
      9  C9        39.0710   50.6470    2.8670 C.2   301  RET301     -0.0258
     10  C10       38.1790   50.7060    3.9110 C.2   301  RET301     -0.0257
     11  C11       37.4030   49.5350    4.3010 C.3   301  RET301      0.0510
     12  C12       36.5940   49.7940    5.3600 C.2   301  RET301     -0.0299
     13  C13       35.7180   48.8160    5.9750 C.2   301  RET301     -0.0478
     14  C14       35.0480   49.3960    7.0320 C.3   301  RET301      0.0217
     15  C15       34.1020   48.7240    7.8810 C.3   301  RET301      0.0047
     16  C16       41.5700   54.6600    3.7860 C.3   301  RET301      0.0043
     17  C17       39.6980   55.4340    2.1880 C.3   301  RET301      0.0043
     18  C18       42.6800   52.3510   -0.6110 C.3   301  RET301      0.0260
     19  C19       39.3640   49.4190    2.0200 C.3   301  RET301      0.0307
     20  C20       35.6020   47.3920    5.5000 C.3   301  RET301      0.0260
@<TRIPOS>BOND
     1    18     5    1
     2     4     5    1
     3     4     3    1
     4     5     6    2
     5     3     2    1
     6     6     7    1
     7     6     1    1
     8     7     8    2
     9     2     1    1
    10    19     9    1
    11    17     1    1
    12     1    16    1
    13     8     9    1
    14     9    10    2
    15    10    11    1
    16    11    12    1
    17    12    13    2
    18    20    13    1
    19    13    14    1
    20    14    15    1
