@<TRIPOS>MOLECULE
1kme_BGC_B_1.pdb
 12 12 0 0 0
SMALL
GASTEIGER

@<TRIPOS>ATOM
      1  C2        22.8590   67.7430   15.5120 C.3   501  BGC501      0.2434
      2  C3        23.8450   68.2570   16.5440 C.3   501  BGC501      0.2199
      3  C4        23.2200   69.4420   17.2460 C.3   501  BGC501      0.2144
      4  C5        21.7990   69.1340   17.7900 C.3   501  BGC501      0.1836
      5  C6        21.1150   70.4480   18.0300 C.3   501  BGC501      0.2142
      6  C1        21.6040   67.2930   16.2200 C.3   501  BGC501      0.3024
      7  O1        20.7310   66.7160   15.3040 O.3   501  BGC501     -0.1869
      8  O2        23.4200   66.6760   14.7660 O.3   501  BGC501     -0.2148
      9  O3        25.0540   68.6680   15.9090 O.3   501  BGC501     -0.2174
     10  O4        24.0730   69.8630   18.3070 O.3   501  BGC501     -0.2176
     11  O5        20.9640   68.4390   16.8110 O.3   501  BGC501     -0.3236
     12  O6        20.0240   70.6270   17.1330 O.3   501  BGC501     -0.2176
@<TRIPOS>BOND
     1     8     1    1
     2     7     6    1
     3     1     6    1
     4     1     2    1
     5     9     2    1
     6     6    11    1
     7     2     3    1
     8    11     4    1
     9    12     5    1
    10     3     4    1
    11     3    10    1
    12     4     5    1
