@<TRIPOS>MOLECULE
1kmh_TTX_B_1.pdb
 30 31 0 0 0
SMALL
GASTEIGER

@<TRIPOS>ATOM
      1  C7        49.4350   37.2990   61.5460 C.3   499  TTX499      0.1152
      2  N1        49.9690   36.0380   61.3400 N.pl3 499  TTX499     -0.2714
      3  C15       51.0690   35.8900   60.5910 C.2   499  TTX499      0.1339
      4  C16       51.7020   36.9930   60.1240 C.2   499  TTX499      0.0265
      5  C17       51.3590   38.4470   60.1810 C.ar  499  TTX499      0.0020
      6  C22       52.2560   39.2630   59.5720 C.ar  499  TTX499      0.0001
      7  C21       52.1480   40.6320   59.5700 C.ar  499  TTX499      0.0000
      8  C20       51.1080   41.2320   60.1720 C.ar  499  TTX499      0.0000
      9  C19       50.1900   40.4450   60.7770 C.ar  499  TTX499      0.0000
     10  C18       50.3110   39.0960   60.7770 C.ar  499  TTX499      0.0001
     11  C6        48.7910   35.3150   61.7740 C.3   499  TTX499      0.2519
     12  O1        47.9920   35.7100   62.8910 O.3   499  TTX499     -0.1985
     13  C5        48.0930   35.4590   60.3010 C.3   499  TTX499      0.1641
     14  C4        46.6780   36.0010   60.1340 C.3   499  TTX499      0.0296
     15  C2        46.3150   37.3610   60.6170 C.3   499  TTX499      0.0021
     16  C1        46.5820   38.3880   59.5670 C.3   499  TTX499      0.0001
     17  C3        44.8260   37.3830   60.9270 C.3   499  TTX499      0.0001
     18  N2        48.1860   34.0570   59.7830 N.2   499  TTX499     -0.2025
     19  C8        48.8390   33.7080   58.6630 C.1   499  TTX499      0.1441
     20  O2        48.9030   34.4930   57.7400 O.2   499  TTX499     -0.2254
     21  C9        49.5190   32.3830   58.5200 C.3   499  TTX499      0.1824
     22  C10       49.0430   31.6990   57.2720 C.3   499  TTX499      0.0399
     23  N3        49.2770   31.5470   59.6380 N.am  499  TTX499     -0.2640
     24  C11       48.0770   30.7710   59.7460 C.3   499  TTX499      0.1159
     25  C12       50.1070   31.3890   60.6080 C.2   499  TTX499      0.2521
     26  O3        49.8210   30.6280   61.5180 O.2   499  TTX499     -0.2726
     27  C13       51.3930   32.1790   60.6120 C.3   499  TTX499      0.2225
     28  N4        51.0450   33.5840   60.8500 N.2   499  TTX499     -0.1915
     29  C14       51.6240   34.6940   60.4120 C.1   499  TTX499      0.1644
     30  O4        52.6580   34.6270   59.8050 O.2   499  TTX499     -0.2210
@<TRIPOS>BOND
     1    22    21    1
     2    20    19    2
     3    21    19    1
     4    21    23    1
     5    19    18    2
     6    16    15    1
     7     7     6   ar
     8     7     8   ar
     9     6     5   ar
    10    23    24    1
    11    23    25   am
    12    18    13    1
    13    30    29    2
    14     4     5    1
    15     4     3    2
    16    14    13    1
    17    14    15    1
    18     8     9   ar
    19     5    10   ar
    20    13    11    1
    21    29     3    1
    22    29    28    2
    23     3     2    1
    24    25    27    1
    25    25    26    2
    26    27    28    1
    27    15    17    1
    28    10     9   ar
    29     2     1    1
    30     2    11    1
    31    11    12    1
