@<TRIPOS>MOLECULE
1kmj_PLP_A_1.pdb
 15 15 0 0 0
SMALL
GASTEIGER

@<TRIPOS>ATOM
      1  N1        26.0800   45.9550    7.6850 N.ar  500  PLP500     -0.2452
      2  C2        26.0860   47.2820    7.9940 C.ar  500  PLP500      0.0978
      3  C2A       25.2770   47.9350    9.1090 C.3   500  PLP500      0.0555
      4  C3        26.9130   48.0590    7.2270 C.ar  500  PLP500      0.2049
      5  O3        26.9730   49.3810    7.4510 O.3   500  PLP500     -0.2857
      6  C4        27.6560   47.4370    6.2020 C.ar  500  PLP500      0.0182
      7  C4A       28.5580   48.3790    5.3770 C.3   500  PLP500      0.0342
      8  C5        27.5980   46.0430    5.9190 C.ar  500  PLP500      0.0261
      9  C6        26.7770   45.3120    6.7200 C.ar  500  PLP500      0.0965
     10  C5A       28.4290   45.3920    4.8290 C.3   500  PLP500      0.1815
     11  O4P       29.8430   45.5650    4.9130 O.3   500  PLP500     -0.2653
     12  P         30.8500   45.1230    3.7180 P.3   500  PLP500      0.5329
     13  O1P       30.7460   43.6770    3.7440 O.3   500  PLP500     -0.1145
     14  O2P       32.0720   45.7790    4.3840 O.3   500  PLP500     -0.1145
     15  O3P       30.3460   45.8310    2.5040 O.2   500  PLP500     -0.2224
@<TRIPOS>BOND
     1    15    12    2
     2    12    13    1
     3    12    14    1
     4    12    11    1
     5    10    11    1
     6    10     8    1
     7     7     6    1
     8     8     6   ar
     9     8     9   ar
    10     6     4   ar
    11     9     1   ar
    12     4     5    1
    13     4     2   ar
    14     1     2   ar
    15     2     3    1
