@<TRIPOS>MOLECULE
1kmk_PLP_A_1.pdb
 15 15 0 0 0
SMALL
GASTEIGER

@<TRIPOS>ATOM
      1  N1        26.2330   45.7730    7.5580 N.ar  500  PLP500     -0.2452
      2  C2        26.2360   47.0460    7.9600 C.ar  500  PLP500      0.0978
      3  C2A       25.4010   47.6370    9.1080 C.3   500  PLP500      0.0555
      4  C3        27.0470   47.9000    7.2950 C.ar  500  PLP500      0.2049
      5  O3        27.0890   49.1950    7.6450 O.3   500  PLP500     -0.2857
      6  C4        27.8170   47.3360    6.2720 C.ar  500  PLP500      0.0182
      7  C4A       28.7240   48.4400    5.6410 C.3   500  PLP500      0.0342
      8  C5        27.7780   45.9910    5.8760 C.ar  500  PLP500      0.0261
      9  C6        26.9470   45.1880    6.5920 C.ar  500  PLP500      0.0965
     10  C5A       28.5920   45.3370    4.8020 C.3   500  PLP500      0.1815
     11  O4P       29.9830   45.5960    4.9470 O.3   500  PLP500     -0.2653
     12  P         30.8440   45.1130    3.7660 P.3   500  PLP500      0.5329
     13  O1P       30.8510   43.6810    3.6670 O.3   500  PLP500     -0.1145
     14  O2P       32.1620   45.7500    4.2850 O.3   500  PLP500     -0.1145
     15  O3P       30.3010   45.8270    2.5810 O.2   500  PLP500     -0.2224
@<TRIPOS>BOND
     1    15    12    2
     2    13    12    1
     3    12    14    1
     4    12    11    1
     5    10    11    1
     6    10     8    1
     7     7     6    1
     8     8     6   ar
     9     8     9   ar
    10     6     4   ar
    11     9     1   ar
    12     4     5    1
    13     4     2   ar
    14     1     2   ar
    15     2     3    1
