@<TRIPOS>MOLECULE
1kmm_HAM_A_1.pdb
 40 43 0 0 0
SMALL
GASTEIGER

@<TRIPOS>ATOM
      1  P         -8.2110   22.2140   18.0640 P.3   450  HAM450      0.2721
      2  O1P       -7.4760   23.4870   18.0120 O.3   450  HAM450     -0.4273
      3  O2P       -7.5900   21.0120   17.4650 O.2   450  HAM450     -0.5082
      4  O3P       -9.7510   22.5780   17.4890 O.3   450  HAM450     -0.4115
      5  O5'       -8.2900   21.9340   19.6330 O.3   450  HAM450     -0.3024
      6  C5'       -9.4910   21.5330   20.2820 C.3   450  HAM450      0.1823
      7  C4'       -9.1540   20.7640   21.5230 C.3   450  HAM450      0.1820
      8  O4'       -8.6770   19.4430   21.1770 O.3   450  HAM450     -0.3136
      9  C3'       -7.9730   21.3630   22.2490 C.3   450  HAM450      0.2149
     10  O3'       -8.3720   22.4580   23.0440 O.3   450  HAM450     -0.2176
     11  C2'       -7.4650   20.1930   23.0810 C.3   450  HAM450      0.2171
     12  O2'       -8.1790   20.0610   24.2890 O.3   450  HAM450     -0.3762
     13  C1'       -7.7300   19.0070   22.1490 C.3   450  HAM450      0.3150
     14  N9        -6.5520   18.4810   21.4530 N.pl3 450  HAM450     -0.1440
     15  C8        -6.1100   18.8490   20.2090 C.3   450  HAM450      0.3377
     16  N7        -5.0450   18.2040   19.8100 N.2   450  HAM450     -0.2098
     17  C5        -4.7550   17.3460   20.8620 C.2   450  HAM450      0.2438
     18  C6        -3.7460   16.3540   21.0420 C.2   450  HAM450      0.3428
     19  N6        -2.8350   16.0430   20.1190 N.pl3 450  HAM450     -0.2449
     20  N1        -3.7320   15.6750   22.2070 N.2   450  HAM450     -0.0059
     21  C2        -4.6760   15.9510   23.1130 C.3   450  HAM450      0.5252
     22  N3        -5.6910   16.8370   23.0520 N.2   450  HAM450     -0.0055
     23  C4        -5.6690   17.5110   21.8890 C.2   450  HAM450      0.3515
     24  C        -10.7060   21.6610   17.2990 C.2   450  HAM450      0.3005
     25  O        -10.6690   20.4100   17.4670 O.2   450  HAM450     -0.2522
     26  CA       -12.1210   22.0700   16.7470 C.3   450  HAM450      0.0418
     27  N        -12.6290   21.1260   15.7060 N.4   450  HAM450      0.3890
     28  CB       -13.2030   22.1630   17.8400 C.3   450  HAM450      0.0314
     29  CG       -14.5830   22.4830   17.3160 C.2   450  HAM450      0.0475
     30  CD2      -15.6250   21.6460   17.0760 C.3   450  HAM450      0.1116
     31  ND1      -14.9770   23.7770   17.0230 N.2   450  HAM450     -0.2598
     32  CE1      -16.2330   23.6960   16.6110 C.3   450  HAM450      0.1969
     33  NE2      -16.6740   22.4390   16.6250 N.3   450  HAM450     -0.2720
     34 HO2'       -7.8050   19.3170   24.7550 H     450  HAM450      0.2107
     35 HN61       -2.8410   16.5160   19.2290 H     450  HAM450      0.2885
     36 HN62       -2.1480   15.3270   20.3000 H     450  HAM450      0.2885
     37  HN1      -12.0850   21.2690   14.8340 H     450  HAM450     -0.0885
     38  HN2      -13.6240   21.3120   15.5400 H     450  HAM450     -0.0885
     39  HN3      -12.4920   20.1560   16.0550 H     450  HAM450     -0.0885
     40  HE2      -17.5710   22.1320   16.3760 H     450  HAM450      0.1254
@<TRIPOS>BOND
     1    37    27    1
     2    38    27    1
     3    27    39    1
     4    27    26    1
     5    40    33    1
     6    32    33    1
     7    32    31    1
     8    33    30    1
     9    26    24    1
    10    26    28    1
    11    31    29    2
    12    30    29    1
    13    24    25    2
    14    24     4    1
    15    29    28    1
    16     3     1    2
    17     4     1    1
    18     2     1    1
    19     1     5    1
    20    35    19    1
    21     5     6    1
    22    16    15    1
    23    16    17    2
    24    19    36    1
    25    19    18    1
    26    15    14    1
    27     6     7    1
    28    17    18    1
    29    17    23    1
    30    18    20    2
    31     8     7    1
    32     8    13    1
    33    14    23    1
    34    14    13    1
    35     7     9    1
    36    23    22    2
    37    13    11    1
    38    20    21    1
    39     9    10    1
    40     9    11    1
    41    22    21    1
    42    11    12    1
    43    12    34    1
