@<TRIPOS>MOLECULE
1kmn_HSO_A_1.pdb
 13 13 0 0 0
SMALL
GASTEIGER

@<TRIPOS>ATOM
      1  N        -13.5630   20.6990   15.6810 N.3   451  HSO451     -0.2388
      2  CA       -12.9980   21.9600   16.1460 C.3   451  HSO451      0.1388
      3  CB       -13.8770   22.5250   17.2620 C.3   451  HSO451      0.0672
      4  CG       -15.2290   22.9040   16.7780 C.2   451  HSO451      0.0392
      5  ND1      -15.5050   24.1680   16.3090 N.pl3 451  HSO451     -0.3185
      6  CD2      -16.2900   22.1370   16.4420 C.2   451  HSO451      0.0692
      7  CE1      -16.6740   24.1660   15.6860 C.3   451  HSO451      0.1815
      8  NE2      -17.1650   22.9400   15.7510 N.pl3 451  HSO451     -0.3146
      9  C        -11.5490   21.8610   16.5820 C.2   451  HSO451      0.2245
     10  O        -10.9700   20.7730   16.5770 O.2   451  HSO451     -0.2868
     11  HN1      -13.7460   20.5590   14.7400 H     451  HSO451      0.1418
     12  HD1      -14.9630   24.9560   16.4160 H     451  HSO451      0.1481
     13  HE2      -18.0080   22.6630   15.3690 H     451  HSO451      0.1484
@<TRIPOS>BOND
     1    11     1    1
     2    13     8    1
     3     1     2    1
     4     7     8    1
     5     7     5    1
     6     8     6    1
     7     2     9    1
     8     2     3    1
     9     5    12    1
    10     5     4    1
    11     6     4    2
    12    10     9    2
    13     4     3    1
