@<TRIPOS>MOLECULE
1kmn_ATP_A_1.pdb
 34 36 0 0 0
SMALL
GASTEIGER

@<TRIPOS>ATOM
      1  PG        -3.9110   23.1110   20.7440 P.3   452  ATP452      0.5373
      2  O1G       -2.8010   24.0360   20.2960 O.3   452  ATP452     -0.1143
      3  O2G       -3.7170   21.6620   20.2800 O.2   452  ATP452     -0.2221
      4  O3G       -4.1500   23.2360   22.2540 O.3   452  ATP452     -0.1143
      5  PB        -5.7160   23.4010   18.4660 P.3   452  ATP452      0.2277
      6  O1B       -6.3330   24.6470   17.8940 O.3   452  ATP452     -0.4368
      7  O2B       -4.7080   22.6190   17.6860 O.2   452  ATP452     -0.5168
      8  O3B       -5.1550   23.7320   19.9430 O.3   452  ATP452     -0.2258
      9  PA        -8.3950   22.3350   18.2330 P.3   452  ATP452      0.2189
     10  O1A       -9.0440   23.5080   18.8530 O.3   452  ATP452     -0.4371
     11  O2A       -8.4520   22.1660   16.7630 O.2   452  ATP452     -0.5170
     12  O3A       -6.8840   22.3570   18.7260 O.3   452  ATP452     -0.2700
     13  O5'       -8.9010   20.9850   18.9080 O.3   452  ATP452     -0.3112
     14  C5'       -9.8650   21.0030   19.9560 C.3   452  ATP452      0.1813
     15  C4'       -9.2140   20.6700   21.2710 C.3   452  ATP452      0.1820
     16  O4'       -8.6600   19.3410   21.1730 O.3   452  ATP452     -0.3136
     17  C3'       -8.0420   21.5250   21.6540 C.3   452  ATP452      0.2149
     18  O3'       -8.4790   22.6840   22.3350 O.3   452  ATP452     -0.2176
     19  C2'       -7.3180   20.6160   22.6270 C.3   452  ATP452      0.2171
     20  O2'       -7.9570   20.6970   23.8670 O.3   452  ATP452     -0.3762
     21  C1'       -7.5250   19.2340   21.9960 C.3   452  ATP452      0.3150
     22  N9        -6.4160   18.6740   21.1900 N.pl3 452  ATP452     -0.1440
     23  C8        -6.0820   18.9460   19.8850 C.3   452  ATP452      0.3377
     24  N7        -5.0420   18.2640   19.4550 N.2   452  ATP452     -0.2098
     25  C5        -4.6670   17.4900   20.5400 C.2   452  ATP452      0.2438
     26  C6        -3.6240   16.5070   20.7390 C.2   452  ATP452      0.3428
     27  N6        -2.7140   16.1720   19.8240 N.pl3 452  ATP452     -0.2449
     28  N1        -3.5530   15.8970   21.9440 N.2   452  ATP452     -0.0059
     29  C2        -4.4310   16.2580   22.8960 C.3   452  ATP452      0.5252
     30  N3        -5.4310   17.1660   22.8450 N.2   452  ATP452     -0.0055
     31  C4        -5.5030   17.7350   21.6300 C.2   452  ATP452      0.3515
     32 HO2'       -7.4840   20.1230   24.4670 H     452  ATP452      0.2107
     33 HN61       -2.7280   16.6110   18.9170 H     452  ATP452      0.2885
     34 HN62       -2.0160   15.4740   20.0310 H     452  ATP452      0.2885
@<TRIPOS>BOND
     1    11     9    2
     2     7     5    2
     3     6     5    1
     4     9    12    1
     5     9    10    1
     6     9    13    1
     7     5    12    1
     8     5     8    1
     9    13    14    1
    10    33    27    1
    11    24    23    1
    12    24    25    2
    13    27    34    1
    14    27    26    1
    15    23    22    1
    16     8     1    1
    17    14    15    1
    18     3     1    2
    19     2     1    1
    20    25    26    1
    21    25    31    1
    22    26    28    2
    23     1     4    1
    24    16    15    1
    25    16    21    1
    26    22    31    1
    27    22    21    1
    28    15    17    1
    29    31    30    2
    30    17    18    1
    31    17    19    1
    32    28    29    1
    33    21    19    1
    34    19    20    1
    35    30    29    1
    36    20    32    1
