@<TRIPOS>MOLECULE
1kmp_CIT_A_1.pdb
 13 12 0 0 0
SMALL
GASTEIGER

@<TRIPOS>ATOM
      1  C1        21.2250   -1.3020    1.0030 C.2   2001  CIT2001     0.3680
      2  O1        21.8760   -0.5480    1.8390 O.co2 2001  CIT2001    -0.2455
      3  O2        20.3510   -2.0950    1.3570 O.co2 2001  CIT2001    -0.2455
      4  C2        21.5410   -1.2430   -0.4930 C.3   2001  CIT2001     0.1560
      5  C3        22.6270   -0.2500   -0.9380 C.3   2001  CIT2001     0.2402
      6  O7        23.8160   -0.5640   -0.1220 O.3   2001  CIT2001    -0.2129
      7  C4        22.8410   -0.3930   -2.4740 C.3   2001  CIT2001     0.1560
      8  C5        23.9070    0.5180   -3.0830 C.2   2001  CIT2001     0.3680
      9  O3        23.9610    0.6460   -4.3080 O.co2 2001  CIT2001    -0.2455
     10  O4        24.7470    1.0920   -2.2890 O.co2 2001  CIT2001    -0.2455
     11  C6        22.0970    1.2010   -0.6200 C.2   2001  CIT2001     0.3927
     12  O5        22.6030    1.7280    0.3830 O.co2 2001  CIT2001    -0.2429
     13  O6        21.2440    1.7220   -1.3210 O.co2 2001  CIT2001    -0.2429
@<TRIPOS>BOND
     1     9     8   ar
     2     8     7    1
     3     8    10   ar
     4     7     5    1
     5    13    11   ar
     6     5    11    1
     7     5     4    1
     8     5     6    1
     9    11    12   ar
    10     4     1    1
    11     1     3   ar
    12     1     2   ar
