@<TRIPOS>MOLECULE
1kmq_GNP_A_1.pdb
 32 34 0 0 0
SMALL
GASTEIGER

@<TRIPOS>ATOM
      1  PG         8.6160    7.2950   -1.5330 P.3   300  GNP300      0.4884
      2  O1G        8.0450    8.3960   -0.7270 O.3   300  GNP300     -0.1240
      3  O2G        7.7390    6.9380   -2.6850 O.2   300  GNP300     -0.2331
      4  O3G        9.0860    6.1160   -0.7040 O.3   300  GNP300     -0.1240
      5  N3B        9.9520    7.8930   -2.2140 N.3   300  GNP300     -0.0163
      6  PB        11.3710    8.3320   -1.5920 P.3   300  GNP300      0.4669
      7  O1B       11.2720    9.7220   -1.0820 O.2   300  GNP300     -0.2351
      8  O2B       11.7630    7.2700   -0.6250 O.3   300  GNP300     -0.1253
      9  O3A       12.4190    8.3270   -2.7520 O.3   300  GNP300     -0.2360
     10  PA        13.6150    7.3760   -3.0900 P.3   300  GNP300      0.2220
     11  O1A       14.6390    7.4940   -2.0370 O.3   300  GNP300     -0.4370
     12  O2A       13.1050    6.0150   -3.3610 O.2   300  GNP300     -0.5170
     13  O5'       14.1810    8.0320   -4.4140 O.3   300  GNP300     -0.3111
     14  C5'       13.3340    8.2470   -5.5410 C.3   300  GNP300      0.1813
     15  C4'       14.1600    8.3150   -6.8110 C.3   300  GNP300      0.1799
     16  O4'       15.1170    9.4000   -6.7210 O.3   300  GNP300     -0.3326
     17  C3'       14.9460    7.0450   -7.0790 C.3   300  GNP300      0.2158
     18  O3'       14.9120    6.8590   -8.4970 O.3   300  GNP300     -0.2175
     19  C2'       16.3380    7.4620   -6.6130 C.3   300  GNP300      0.2310
     20  O2'       17.3720    6.8120   -7.3410 O.3   300  GNP300     -0.2158
     21  C1'       16.4420    8.9650   -6.8880 C.3   300  GNP300      0.2293
     22  N9        17.3230    9.6010   -5.9160 N.pl3 300  GNP300     -0.2354
     23  C8        17.3220    9.4290   -4.5520 C.3   300  GNP300      0.2246
     24  N7        18.2530   10.1640   -3.9970 N.2   300  GNP300     -0.2322
     25  C5        18.8830   10.8300   -5.0330 C.2   300  GNP300      0.2182
     26  C6        19.9690   11.7300   -4.9940 C.1   300  GNP300      0.2372
     27  O6        20.6100   12.1230   -4.0080 O.2   300  GNP300     -0.2069
     28  N1        20.2800   12.1790   -6.2760 N.2   300  GNP300     -0.2485
     29  C2        19.6640   11.8220   -7.4510 C.1   300  GNP300      0.2531
     30  N2        20.1090   12.3290   -8.6180 N.pl3 300  GNP300     -0.0226
     31  N3        18.6440   10.9740   -7.4670 N.2   300  GNP300     -0.3074
     32  C4        18.3190   10.4910   -6.2450 C.2   300  GNP300      0.2300
@<TRIPOS>BOND
     1    30    29    1
     2    18    17    1
     3    31    29    2
     4    31    32    2
     5    29    28    2
     6    20    19    1
     7    17    15    1
     8    17    19    1
     9    21    16    1
    10    21    19    1
    11    21    22    1
    12    15    16    1
    13    15    14    1
    14    28    26    2
    15    32    22    1
    16    32    25    1
    17    22    23    1
    18    14    13    1
    19    25    26    1
    20    25    24    2
    21    26    27    2
    22    23    24    1
    23    13    10    1
    24    12    10    2
    25    10     9    1
    26    10    11    1
    27     9     6    1
    28     3     1    2
    29     5     6    1
    30     5     1    1
    31     6     7    2
    32     6     8    1
    33     1     2    1
    34     1     4    1
