@<TRIPOS>MOLECULE
1kms_NDP_A_1.pdb
 48 52 0 0 0
SMALL
GASTEIGER

@<TRIPOS>ATOM
      1  PA        14.8810   35.3410   35.4000 P.3   202  NDP202      0.2189
      2  O1A       16.1420   35.6180   34.6540 O.2   202  NDP202     -0.5170
      3  O2A       14.6830   33.9680   35.9700 O.3   202  NDP202     -0.4371
      4  O5B       14.6910   36.3320   36.6190 O.3   202  NDP202     -0.3112
      5  C5B       14.9760   37.7770   36.3600 C.3   202  NDP202      0.1813
      6  C4B       15.3590   38.3030   37.7890 C.3   202  NDP202      0.1820
      7  O4B       16.5520   37.6090   38.2110 O.3   202  NDP202     -0.3136
      8  C3B       15.9450   39.7860   37.4950 C.3   202  NDP202      0.2157
      9  O3B       14.8380   40.6830   37.6560 O.3   202  NDP202     -0.2175
     10  C2B       16.9340   39.9120   38.6640 C.3   202  NDP202      0.2314
     11  O2B       16.2980   39.9030   39.9990 O.3   202  NDP202     -0.2630
     12  C1B       17.5840   38.5290   38.5500 C.3   202  NDP202      0.3158
     13  N9A       18.6460   38.4050   37.5830 N.pl3 202  NDP202     -0.1439
     14  C8A       18.5010   37.7860   36.3470 C.3   202  NDP202      0.3377
     15  N7A       19.6350   37.7410   35.7030 N.2   202  NDP202     -0.2095
     16  C5A       20.5740   38.3120   36.5670 C.2   202  NDP202      0.2526
     17  C6A       21.9560   38.5100   36.4280 C.2   202  NDP202      0.4393
     18  N6A       22.6460   38.1560   35.3360 N.pl3 202  NDP202      0.2180
     19  N1A       22.5880   39.1470   37.4590 N.2   202  NDP202      0.0021
     20  C2A       21.8410   39.4600   38.5400 C.3   202  NDP202      0.5254
     21  N3A       20.5330   39.3180   38.8050 N.2   202  NDP202     -0.0055
     22  C4A       19.9600   38.7180   37.7490 C.2   202  NDP202      0.3518
     23  O3        13.6170   35.7940   34.4980 O.3   202  NDP202     -0.2703
     24  PN        12.9540   35.4920   33.1010 P.3   202  NDP202      0.2189
     25  O1N       13.9370   35.6930   32.0430 O.2   202  NDP202     -0.5170
     26  O2N       11.6750   36.1520   33.0390 O.3   202  NDP202     -0.4371
     27  O5D       12.6980   33.8810   33.2320 O.3   202  NDP202     -0.3112
     28  C5D       11.5370   33.2950   33.9260 C.3   202  NDP202      0.1813
     29  C4D       10.5360   32.8690   32.7930 C.3   202  NDP202      0.1799
     30  O4D       11.1470   31.9350   31.9550 O.3   202  NDP202     -0.3327
     31  C3D        9.3170   32.1880   33.4100 C.3   202  NDP202      0.2158
     32  O3D        8.2470   32.3950   32.4780 O.3   202  NDP202     -0.2175
     33  C2D        9.8160   30.7230   33.4680 C.3   202  NDP202      0.2309
     34  O2D        8.6080   29.8570   33.4220 O.3   202  NDP202     -0.2158
     35  C1D       10.5810   30.5690   32.1630 C.3   202  NDP202      0.2263
     36  N1N       11.6440   29.6110   32.2460 N.pl3 202  NDP202     -0.2787
     37  C2N       11.7620   28.7130   31.1830 C.3   202  NDP202      0.1244
     38  C3N       12.8730   27.9590   30.9740 C.2   202  NDP202      0.0544
     39  C7N       12.9250   27.0470   29.8240 C.2   202  NDP202      0.2818
     40  O7N       13.9200   26.3270   29.6740 O.2   202  NDP202     -0.2670
     41  N7N       11.9110   27.0320   28.9590 N.am  202  NDP202     -0.0839
     42  C4N       14.1040   28.0100   31.8640 C.2   202  NDP202      0.0033
     43  C5N       13.8740   29.0510   32.9840 C.2   202  NDP202      0.0157
     44  C6N       12.7730   29.7590   33.1090 C.2   202  NDP202      0.0633
     45  P2B       16.1930   41.3050   40.7590 P.3   202  NDP202      0.5328
     46  O1X       15.1030   42.0620   40.1040 O.2   202  NDP202     -0.2224
     47  O2X       15.8550   40.8260   42.1510 O.3   202  NDP202     -0.1145
     48  O3X       17.5700   41.8910   40.6910 O.3   202  NDP202     -0.1145
@<TRIPOS>BOND
     1    41    39   am
     2    40    39    2
     3    39    38    1
     4    38    37    1
     5    38    42    2
     6    37    36    1
     7    42    43    1
     8    30    35    1
     9    30    29    1
    10    25    24    2
    11    35    36    1
    12    35    33    1
    13    36    44    1
    14    32    31    1
    15    29    31    1
    16    29    28    1
    17    43    44    2
    18    26    24    1
    19    24    27    1
    20    24    23    1
    21    27    28    1
    22    31    33    1
    23    34    33    1
    24    23     1    1
    25     2     1    2
    26    18    17    1
    27     1     3    1
    28     1     4    1
    29    15    14    1
    30    15    16    2
    31    14    13    1
    32     5     4    1
    33     5     6    1
    34    17    16    1
    35    17    19    2
    36    16    22    1
    37    19    20    1
    38     8     9    1
    39     8     6    1
    40     8    10    1
    41    13    22    1
    42    13    12    1
    43    22    21    2
    44     6     7    1
    45     7    12    1
    46    20    21    1
    47    12    10    1
    48    10    11    1
    49    11    45    1
    50    46    45    2
    51    48    45    1
    52    45    47    1
