@<TRIPOS>MOLECULE
1kms_LIH_A_1.pdb
 25 28 0 0 0
SMALL
GASTEIGER

@<TRIPOS>ATOM
      1  C4A       14.1090   24.1950   32.4570 C.3   201  LIH201      0.1724
      2  C4        15.4150   24.3270   31.8300 C.2   201  LIH201      0.2249
      3  C2        14.9660   22.6010   30.3090 C.1   201  LIH201      0.2511
      4  C8A       13.2400   23.3960   31.7510 C.1   201  LIH201      0.0847
      5  C5        13.6440   24.8580   33.6010 C.3   201  LIH201      0.0449
      6  C6        12.2820   24.7630   33.9060 C.2   201  LIH201      0.0010
      7  C7        11.4540   24.0150   33.0430 C.2   201  LIH201      0.1036
      8  C5A       14.5770   25.5500   34.6000 C.3   201  LIH201      0.0061
      9  C5'       10.0900   24.0190   36.0490 C.2   201  LIH201      0.0598
     10  C6'       11.1450   23.1780   36.5470 C.3   201  LIH201      0.0714
     11  C7'       10.8080   22.0110   37.2780 C.2   201  LIH201     -0.0183
     12  C8'        9.6000   21.6630   37.6410 C.2   201  LIH201      0.0150
     13  C9        11.6740   25.6160   35.0810 C.3   201  LIH201      0.1488
     14  C4'        7.6230   24.3220   35.8860 C.ar  201  LIH201      0.0043
     15  C4X        8.7930   23.5780   36.3790 C.ar  201  LIH201      0.0312
     16  C8X        8.5630   22.3580   37.1290 C.ar  201  LIH201      0.0821
     17  C2'        6.1810   22.7360   36.8990 C.ar  201  LIH201      0.0988
     18  C3'        6.2930   23.9210   36.1950 C.ar  201  LIH201      0.0207
     19  N3        15.8060   23.5260   30.8320 N.2   201  LIH201     -0.3103
     20  N1        13.6460   22.5540   30.7130 N.2   201  LIH201     -0.2748
     21  N8        11.9010   23.2670   31.9920 N.2   201  LIH201     -0.1855
     22  N1'        7.2240   21.9830   37.3670 N.ar  201  LIH201     -0.2438
     23  N10       10.2610   25.1240   35.3550 N.2   201  LIH201     -0.2698
     24  N4        16.3410   25.2480   32.2140 N.pl3 201  LIH201     -0.0958
     25  N2        15.3680   21.7790   29.4060 N.pl3 201  LIH201     -0.0226
@<TRIPOS>BOND
     1    25     3    1
     2     3    20    2
     3     3    19    2
     4    20     4    2
     5    19     2    2
     6     4    21    2
     7     4     1    1
     8     2    24    1
     9     2     1    1
    10    21     7    1
    11     1     5    1
    12     7     6    2
    13     5     6    1
    14     5     8    1
    15     6    13    1
    16    13    23    1
    17    23     9    2
    18    14    18   ar
    19    14    15   ar
    20     9    15    1
    21     9    10    1
    22    18    17   ar
    23    15    16   ar
    24    10    11    1
    25    17    22   ar
    26    16    22   ar
    27    16    12    1
    28    11    12    2
