@<TRIPOS>MOLECULE
1kmv_NDP_A_1.pdb
 48 52 0 0 0
SMALL
GASTEIGER

@<TRIPOS>ATOM
      1  PA        14.7470   35.1670   35.3700 P.3   202  NDP202      0.2189
      2  O1A       16.0250   35.4490   34.7440 O.2   202  NDP202     -0.5170
      3  O2A       14.6610   33.8090   35.9760 O.3   202  NDP202     -0.4371
      4  O5B       14.4660   36.1610   36.5060 O.3   202  NDP202     -0.3112
      5  C5B       14.7280   37.6470   36.2940 C.3   202  NDP202      0.1813
      6  C4B       15.1120   38.1800   37.6940 C.3   202  NDP202      0.1820
      7  O4B       16.3140   37.4710   38.3730 O.3   202  NDP202     -0.3136
      8  C3B       15.6960   39.6620   37.4650 C.3   202  NDP202      0.2157
      9  O3B       14.5420   40.5690   37.5230 O.3   202  NDP202     -0.2175
     10  C2B       16.6090   39.7660   38.7150 C.3   202  NDP202      0.2314
     11  O2B       15.8180   39.7190   39.9680 O.3   202  NDP202     -0.2630
     12  C1B       17.3240   38.4350   38.5610 C.3   202  NDP202      0.3158
     13  N9A       18.2510   38.2360   37.4670 N.pl3 202  NDP202     -0.1439
     14  C8A       18.0170   37.4990   36.3180 C.3   202  NDP202      0.3377
     15  N7A       19.1310   37.4280   35.6480 N.2   202  NDP202     -0.2095
     16  C5A       20.1500   37.9990   36.3940 C.2   202  NDP202      0.2526
     17  C6A       21.5360   38.1860   36.2150 C.2   202  NDP202      0.4393
     18  N6A       22.1930   37.7920   35.1120 N.pl3 202  NDP202      0.2180
     19  N1A       22.2360   38.7830   37.2150 N.2   202  NDP202      0.0021
     20  C2A       21.5630   39.2020   38.3080 C.3   202  NDP202      0.5254
     21  N3A       20.2590   39.0510   38.5970 N.2   202  NDP202     -0.0055
     22  C4A       19.6150   38.4670   37.5820 C.2   202  NDP202      0.3518
     23  O3        13.5490   35.4850   34.3760 O.3   202  NDP202     -0.2703
     24  PN        12.7540   35.4210   32.9690 P.3   202  NDP202      0.2189
     25  O1N       13.8430   35.4970   31.8940 O.2   202  NDP202     -0.5170
     26  O2N       11.6300   36.0830   32.9270 O.3   202  NDP202     -0.4371
     27  O5D       12.4360   33.7750   33.0180 O.3   202  NDP202     -0.3112
     28  C5D       11.4050   33.1950   33.8230 C.3   202  NDP202      0.1813
     29  C4D       10.4330   32.8090   32.6670 C.3   202  NDP202      0.1796
     30  O4D       10.9390   31.8090   31.7660 O.3   202  NDP202     -0.3354
     31  C3D        9.2090   32.2050   33.3920 C.3   202  NDP202      0.2155
     32  O3D        8.1450   32.4450   32.4800 O.3   202  NDP202     -0.2176
     33  C2D        9.6130   30.7420   33.5080 C.3   202  NDP202      0.2271
     34  O2D        8.4290   29.9750   33.6510 O.3   202  NDP202     -0.2161
     35  C1D       10.2870   30.4830   32.1260 C.3   202  NDP202      0.2096
     36  N1N       11.4380   29.5960   32.1790 N.3   202  NDP202     -0.2482
     37  C2N       11.5280   28.6950   31.0970 C.3   202  NDP202      0.0834
     38  C3N       12.5810   27.9100   30.8920 C.3   202  NDP202      0.0959
     39  C7N       12.7020   26.9420   29.7370 C.2   202  NDP202      0.2616
     40  O7N       13.7080   26.3080   29.5620 O.2   202  NDP202     -0.2716
     41  N7N       11.6160   27.0370   28.8680 N.am  202  NDP202     -0.0878
     42  C4N       14.0110   28.1230   31.6090 C.3   202  NDP202      0.0120
     43  C5N       13.6780   29.0150   32.8410 C.3   202  NDP202      0.0179
     44  C6N       12.5970   29.7740   32.9940 C.3   202  NDP202      0.0743
     45  P2B       15.7370   41.0520   40.7720 P.3   202  NDP202      0.5328
     46  O1X       14.7230   42.0040   40.1350 O.2   202  NDP202     -0.2224
     47  O2X       15.4120   40.6240   42.1100 O.3   202  NDP202     -0.1145
     48  O3X       17.1060   41.7300   40.6100 O.3   202  NDP202     -0.1145
@<TRIPOS>BOND
     1    41    39   am
     2    40    39    2
     3    39    38    1
     4    38    37    1
     5    38    42    1
     6    37    36    1
     7    42    43    1
     8    30    35    1
     9    30    29    1
    10    25    24    2
    11    35    36    1
    12    35    33    1
    13    36    44    1
    14    32    31    1
    15    29    31    1
    16    29    28    1
    17    43    44    1
    18    26    24    1
    19    24    27    1
    20    24    23    1
    21    27    28    1
    22    31    33    1
    23    33    34    1
    24    23     1    1
    25     2     1    2
    26    18    17    1
    27     1     3    1
    28     1     4    1
    29    15    14    1
    30    15    16    2
    31    17    16    1
    32    17    19    2
    33     5     4    1
    34     5     6    1
    35    14    13    1
    36    16    22    1
    37    19    20    1
    38     8     9    1
    39     8     6    1
    40     8    10    1
    41    13    22    1
    42    13    12    1
    43    22    21    2
    44     6     7    1
    45    20    21    1
    46     7    12    1
    47    12    10    1
    48    10    11    1
    49    11    45    1
    50    46    45    2
    51    48    45    1
    52    45    47    1
