@<TRIPOS>MOLECULE
1kmv_LII_A_1.pdb
 25 27 0 0 0
SMALL
GASTEIGER

@<TRIPOS>ATOM
      1  C4A       13.7320   24.1770   32.2440 C.3   201  LII201      0.1727
      2  C4        15.0590   24.2740   31.7180 C.2   201  LII201      0.2249
      3  C2        14.6820   22.5230   30.2630 C.1   201  LII201      0.2511
      4  C8A       12.8780   23.3290   31.5750 C.1   201  LII201      0.0847
      5  C5        13.1900   24.9470   33.3790 C.3   201  LII201      0.0471
      6  C6        11.8790   24.9590   33.5350 C.2   201  LII201     -0.0011
      7  C7        11.0050   23.9870   32.7670 C.2   201  LII201      0.1059
      8  C5A       14.0540   25.6400   34.3650 C.3   201  LII201      0.0063
      9  C9        11.0920   25.9000   34.4630 C.2   201  LII201     -0.0026
     10  C1'        9.6990   24.1260   35.8350 C.ar  201  LII201      0.0370
     11  C2'       10.5750   23.1020   36.1780 C.ar  201  LII201      0.1388
     12  C3'       10.0870   21.8830   36.5780 C.ar  201  LII201      0.0400
     13  C4'        8.7060   21.6770   36.6270 C.ar  201  LII201      0.0400
     14  C5'        7.8140   22.6790   36.2890 C.ar  201  LII201      0.1389
     15  C6'        8.3300   23.8990   35.8950 C.ar  201  LII201      0.0399
     16  C10       10.1650   25.5060   35.3870 C.2   201  LII201      0.0028
     17  C2X       12.6970   22.2420   36.0020 C.3   201  LII201      0.2525
     18  C5X        5.6270   23.6940   36.2150 C.3   201  LII201      0.2525
     19  N3        15.5040   23.4370   30.7740 N.2   201  LII201     -0.3103
     20  N1        13.3990   22.4420   30.6080 N.2   201  LII201     -0.2748
     21  N8        11.5550   23.2240   31.8130 N.2   201  LII201     -0.1853
     22  N4        15.9540   25.1520   32.1230 N.pl3 201  LII201     -0.0958
     23  N16       15.1430   21.6620   29.3730 N.pl3 201  LII201     -0.0226
     24  O2'       11.9030   23.4250   36.0890 O.3   201  LII201     -0.4714
     25  O5'        6.4510   22.5660   36.3120 O.3   201  LII201     -0.4714
@<TRIPOS>BOND
     1    23     3    1
     2     3    20    2
     3     3    19    2
     4    20     4    2
     5    19     2    2
     6     4    21    2
     7     4     1    1
     8     2    22    1
     9     2     1    1
    10    21     7    1
    11     1     5    1
    12     7     6    2
    13     5     6    1
    14     5     8    1
    15     6     9    1
    16     9    16    2
    17    16    10    1
    18    10    15   ar
    19    10    11   ar
    20    15    14   ar
    21    17    24    1
    22    24    11    1
    23    11    12   ar
    24    18    25    1
    25    14    25    1
    26    14    13   ar
    27    12    13   ar
