@<TRIPOS>MOLECULE
1kmy_BPY_A_1.pdb
 14 15 0 0 0
SMALL
GASTEIGER

@<TRIPOS>ATOM
      1  CK1       20.6190  -23.1650   72.4330 C.ar  300  BPY300      0.0034
      2  CK2       21.9080  -22.6340   72.3610 C.ar  300  BPY300      0.0422
      3  CK3       22.1060  -21.3260   71.9030 C.ar  300  BPY300      0.2342
      4  CK4       21.0270  -20.5520   71.5300 C.ar  300  BPY300      0.2343
      5  CK5       19.7160  -21.0890   71.6030 C.ar  300  BPY300      0.0454
      6  CK6       19.5270  -22.3910   72.0500 C.ar  300  BPY300      0.0035
      7  CK7       23.1120  -23.4150   72.7760 C.ar  300  BPY300      0.0032
      8  CK8       23.4660  -23.4570   74.1180 C.ar  300  BPY300      0.0001
      9  CK9       24.5830  -24.1590   74.5260 C.ar  300  BPY300      0.0000
     10  CKA       25.3420  -24.8330   73.5970 C.ar  300  BPY300      0.0000
     11  CKB       24.9890  -24.7950   72.2610 C.ar  300  BPY300      0.0000
     12  CKC       23.8690  -24.0940   71.8510 C.ar  300  BPY300      0.0001
     13  OK1       21.2510  -19.2520   71.0840 O.3   300  BPY300     -0.2831
     14  OK2       23.3830  -20.7990   71.8250 O.3   300  BPY300     -0.2831
@<TRIPOS>BOND
     1    13     4    1
     2     4     5   ar
     3     4     3   ar
     4     5     6   ar
     5    14     3    1
     6    12    11   ar
     7    12     7   ar
     8     3     2   ar
     9     6     1   ar
    10    11    10   ar
    11     2     1   ar
    12     2     7    1
    13     7     8   ar
    14    10     9   ar
    15     8     9   ar
