@<TRIPOS>MOLECULE
1kn1_CYC_A_1.pdb
 43 46 0 0 0
SMALL
GASTEIGER

@<TRIPOS>ATOM
      1  CHA      -16.2350   36.7170   14.3550 C.3   184  CYC184      0.1170
      2  NA       -13.8860   36.0200   13.8030 N.2   184  CYC184     -0.4104
      3  C1A      -15.0650   35.9730   14.5920 C.2   184  CYC184      0.1114
      4  C2A      -14.9170   35.0950   15.6990 C.2   184  CYC184      0.0024
      5  C3A      -13.5800   34.5760   15.5960 C.2   184  CYC184      0.0021
      6  C4A      -12.9650   35.1790   14.4590 C.2   184  CYC184      0.1114
      7  CMA      -12.9630   33.5780   16.5530 C.3   184  CYC184      0.0331
      8  CAA      -15.9360   34.8610   16.8220 C.3   184  CYC184      0.0402
      9  CBA      -15.8270   35.8620   17.9580 C.3   184  CYC184      0.1188
     10  CGA      -15.1730   35.3330   19.2160 C.2   184  CYC184      0.3652
     11  O1A      -15.5840   34.2960   19.7010 O.co2 184  CYC184     -0.2456
     12  O2A      -14.1460   35.9530   20.0080 O.co2 184  CYC184     -0.2456
     13  CHB      -11.7150   34.9640   13.7960 C.3   184  CYC184      0.1181
     14  NB       -10.3300   33.6420   15.3950 N.2   184  CYC184     -0.3375
     15  C1B      -10.5030   34.3430   14.1790 C.2   184  CYC184      0.1254
     16  C2B       -9.2940   34.4750   13.4640 C.2   184  CYC184      0.0128
     17  C3B       -8.3760   33.5980   14.1250 C.2   184  CYC184      0.0706
     18  C4B       -9.0400   33.0890   15.2570 C.1   184  CYC184      0.2000
     19  CMB       -9.0540   35.3260   12.2420 C.3   184  CYC184      0.0339
     20  CAB       -6.9090   33.3670   13.7830 C.3   184  CYC184      0.0390
     21  CBB       -5.8330   34.2950   14.3820 C.3   184  CYC184      0.0058
     22  OB        -8.7190   32.1940   16.0270 O.2   184  CYC184     -0.2096
     23  NC       -17.4300   40.4840    8.9140 N.2   184  CYC184     -0.3448
     24  C1C      -17.5770   40.5140    7.5720 C.1   184  CYC184      0.1788
     25  C2C      -16.3330   40.7810    6.9690 C.3   184  CYC184      0.1246
     26  C3C      -15.2550   40.5340    7.9950 C.3   184  CYC184      0.0660
     27  C4C      -16.0830   40.1280    9.2030 C.2   184  CYC184      0.1070
     28  CMC      -16.0940   41.2070    5.5430 C.3   184  CYC184      0.0192
     29  CAC      -14.4090   41.8500    8.0410 C.3   184  CYC184      0.0078
     30  CBC      -12.9730   41.4790    8.3230 C.3   184  CYC184      0.0005
     31  OC       -18.6620   40.3380    6.9940 O.2   184  CYC184     -0.2142
     32  CHD      -15.5940   39.4120   10.3260 C.3   184  CYC184      0.1138
     33  ND       -15.5090   38.0460   12.3370 N.2   184  CYC184     -0.4104
     34  C1D      -16.2070   38.9690   11.5360 C.2   184  CYC184      0.1111
     35  C2D      -17.5050   39.2530   12.0700 C.2   184  CYC184      0.0021
     36  C3D      -17.6810   38.3780   13.2060 C.2   184  CYC184      0.0024
     37  C4D      -16.4300   37.7030   13.3650 C.2   184  CYC184      0.1114
     38  CMD      -18.3740   40.4590   11.7520 C.3   184  CYC184      0.0331
     39  CAD      -18.8890   38.3170   14.1590 C.3   184  CYC184      0.0402
     40  CBD      -19.8750   37.1520   13.9820 C.3   184  CYC184      0.1188
     41  CGD      -21.0570   37.1750   14.9460 C.2   184  CYC184      0.3652
     42  O1D      -22.1510   37.5120   14.5050 O.co2 184  CYC184     -0.2456
     43  O2D      -21.0240   36.7990   16.3060 O.co2 184  CYC184     -0.2456
@<TRIPOS>BOND
     1    28    25    1
     2    25    24    1
     3    25    26    1
     4    31    24    2
     5    24    23    2
     6    26    29    1
     7    26    27    1
     8    29    30    1
     9    23    27    2
    10    27    32    1
    11    32    34    1
    12    34    35    1
    13    34    33    2
    14    38    35    1
    15    35    36    2
    16    19    16    1
    17    33    37    2
    18    36    37    1
    19    36    39    1
    20    37     1    1
    21    16    17    2
    22    16    15    1
    23    20    17    1
    24    20    21    1
    25    13    15    1
    26    13     6    1
    27     2     6    2
    28     2     3    2
    29    40    39    1
    30    40    41    1
    31    17    18    1
    32    15    14    2
    33     1     3    1
    34     6     5    1
    35    42    41   ar
    36     3     4    1
    37    41    43   ar
    38    18    14    2
    39    18    22    2
    40     5     4    2
    41     5     7    1
    42     4     8    1
    43     8     9    1
    44     9    10    1
    45    10    11   ar
    46    10    12   ar
