@<TRIPOS>MOLECULE
1kn2_PNE_L_1.pdb
 24 24 0 0 0
SMALL
GASTEIGER

@<TRIPOS>ATOM
      1  P1        14.3470   37.6180   62.5960 P.3   551  PNE551      0.4175
      2  O1        13.1680   37.0770   61.6050 O.3   551  PNE551     -0.4208
      3  O2        14.5970   39.0200   62.2650 O.2   551  PNE551     -0.2411
      4  O3        13.9930   37.2810   63.9800 O.3   551  PNE551     -0.1296
      5  C8        15.7280   36.6550   62.1180 C.3   551  PNE551      0.1318
      6  C9        16.1560   36.9440   60.6940 C.3   551  PNE551      0.0236
      7  C10       17.3930   36.1010   60.3850 C.3   551  PNE551      0.0875
      8  C11       17.7710   36.0810   58.8930 C.2   551  PNE551      0.2418
      9  N2        17.1670   35.1300   58.1150 N.am  551  PNE551     -0.1956
     10  O6        18.6300   36.8900   58.4380 O.2   551  PNE551     -0.2733
     11  C12       17.4330   34.9390   56.6520 C.3   551  PNE551      0.1978
     12  C1L       18.2150   33.7140   56.0590 C.3   551  PNE551      0.0356
     13  C13       16.9990   36.1160   55.7410 C.2   551  PNE551      0.3842
     14  O7        16.0170   36.8300   56.0680 O.co2 551  PNE551     -0.2437
     15  O8        17.6440   36.2930   54.6540 O.co2 551  PNE551     -0.2437
     16  C1        11.8990   37.6310   61.6660 C.ar  551  PNE551      0.1469
     17  C2        11.6890   38.9280   61.1140 C.ar  551  PNE551      0.0391
     18  C6        10.9060   36.8770   62.3110 C.ar  551  PNE551      0.0391
     19  C4         9.4030   38.7950   61.8670 C.ar  551  PNE551      0.1431
     20  C5         9.6390   37.4860   62.4050 C.ar  551  PNE551      0.0272
     21  C3        10.4180   39.5010   61.2260 C.ar  551  PNE551      0.0272
     22  N1         8.0690   39.4150   62.0510 N.pl3 551  PNE551      0.0577
     23  O4         7.8410   40.5650   61.6100 O.2   551  PNE551     -0.1261
     24  O5         7.1830   38.7610   62.6800 O.2   551  PNE551     -0.1261
@<TRIPOS>BOND
     1    15    13   ar
     2    13    14   ar
     3    13    11    1
     4    12    11    1
     5    11     9    1
     6     9     8   am
     7    10     8    2
     8     8     7    1
     9     7     6    1
    10     6     5    1
    11    17    21   ar
    12    17    16   ar
    13    21    19   ar
    14     2    16    1
    15     2     1    1
    16    23    22    2
    17    16    18   ar
    18    19    22    1
    19    19    20   ar
    20    22    24    2
    21     5     1    1
    22     3     1    2
    23    18    20   ar
    24     1     4    1
