@<TRIPOS>MOLECULE
1kn4_PDE_L_1.pdb
 24 24 0 0 0
SMALL
GASTEIGER

@<TRIPOS>ATOM
      1  P1        14.3680   37.6400   62.6040 P.3   551  PDE551      0.4175
      2  O1        13.1920   37.0990   61.5760 O.3   551  PDE551     -0.4208
      3  O2        14.5820   39.0590   62.3190 O.2   551  PDE551     -0.2411
      4  O3        14.0290   37.2790   63.9850 O.3   551  PDE551     -0.1296
      5  C8        15.7600   36.7110   62.0830 C.3   551  PDE551      0.1318
      6  C9        16.1790   36.9210   60.6570 C.3   551  PDE551      0.0236
      7  C10       17.4910   36.1420   60.3980 C.3   551  PDE551      0.0875
      8  C11       17.7460   35.9870   58.8740 C.2   551  PDE551      0.2418
      9  N2        17.0180   34.9900   58.2320 N.am  551  PDE551     -0.1956
     10  O6        18.4880   36.7690   58.3230 O.2   551  PDE551     -0.2733
     11  C12       16.4220   34.9720   56.8620 C.3   551  PDE551      0.1978
     12  C1D       15.0080   34.6340   56.5540 C.3   551  PDE551      0.0356
     13  C13       16.9610   36.1030   55.9080 C.2   551  PDE551      0.3842
     14  O7        17.8470   35.8370   55.0930 O.co2 551  PDE551     -0.2437
     15  O8        16.4750   37.2280   55.9930 O.co2 551  PDE551     -0.2437
     16  C1        11.9240   37.6260   61.6440 C.ar  551  PDE551      0.1469
     17  C2        11.7060   38.9270   61.1640 C.ar  551  PDE551      0.0391
     18  C6        10.9370   36.8530   62.2360 C.ar  551  PDE551      0.0391
     19  C4         9.4110   38.7430   61.9030 C.ar  551  PDE551      0.1431
     20  C5         9.6670   37.4230   62.3650 C.ar  551  PDE551      0.0272
     21  C3        10.4300   39.4670   61.3060 C.ar  551  PDE551      0.0272
     22  N1         8.0570   39.3740   62.1140 N.pl3 551  PDE551      0.0577
     23  O4         7.8110   40.5220   61.6990 O.2   551  PDE551     -0.1261
     24  O5         7.1750   38.7380   62.7370 O.2   551  PDE551     -0.1261
@<TRIPOS>BOND
     1    14    13   ar
     2    13    15   ar
     3    13    11    1
     4    12    11    1
     5    11     9    1
     6     9     8   am
     7    10     8    2
     8     8     7    1
     9     7     6    1
    10     6     5    1
    11    17    21   ar
    12    17    16   ar
    13    21    19   ar
    14     2    16    1
    15     2     1    1
    16    16    18   ar
    17    23    22    2
    18    19    22    1
    19    19    20   ar
    20     5     1    1
    21    22    24    2
    22    18    20   ar
    23     3     1    2
    24     1     4    1
