@<TRIPOS>MOLECULE
1kna_III_P_1.pdb
 49 48 0 0 0
SMALL
GASTEIGER

@<TRIPOS>ATOM
      1  N         -0.2930   33.3000    2.3010 N.3     5  GLN5       -0.1231
      2  CA        -1.7140   33.0460    2.6680 C.3     5  GLN5        0.1698
      3  C         -1.8310   32.0060    3.7810 C.2     5  GLN5        0.2593
      4  O         -1.7680   32.3600    4.9550 O.2     5  GLN5       -0.2718
      5  CB        -2.4980   32.5900    1.4400 C.3     5  GLN5        0.0381
      6  CG        -3.9970   32.6460    1.6170 C.3     5  GLN5        0.0905
      7  CD        -4.7490   32.3640    0.3270 C.2     5  GLN5        0.2608
      8  OE1       -4.6760   31.2610   -0.2250 O.2     5  GLN5       -0.2717
      9  NE2       -5.4750   33.3660   -0.1650 N.am    5  GLN5       -0.0878
     10  N         -2.0010   30.7340    3.4160 N.am    6  THR6       -0.1939
     11  CA        -2.1250   29.6620    4.4060 C.3     6  THR6        0.2028
     12  C         -1.1810   28.5000    4.1150 C.2     6  THR6        0.2642
     13  O         -0.5040   28.4700    3.0850 O.2     6  THR6       -0.2714
     14  CB        -3.5580   29.0780    4.4520 C.3     6  THR6        0.1808
     15  OG1       -3.7990   28.3060    3.2660 O.3     6  THR6       -0.2208
     16  CG2       -4.5900   30.1890    4.5420 C.3     6  THR6        0.0379
     17  N         -1.1470   27.5380    5.0310 N.am    7  ALA7       -0.1963
     18  CA        -0.3000   26.3670    4.8680 C.3     7  ALA7        0.1728
     19  C         -0.6780   25.2700    5.8450 C.2     7  ALA7        0.2616
     20  O         -1.2140   25.5340    6.9210 O.2     7  ALA7       -0.2715
     21  CB         1.1780   26.7410    5.0500 C.3     7  ALA7        0.0334
     22  N         -0.3960   24.0330    5.4510 N.am    8  ARG8       -0.1963
     23  CA        -0.6780   22.8690    6.2790 C.3     8  ARG8        0.1729
     24  C          0.4920   22.7150    7.2480 C.2     8  ARG8        0.2616
     25  O          1.6420   22.9350    6.8750 O.2     8  ARG8       -0.2715
     26  CB        -0.7900   21.6280    5.3860 C.3     8  ARG8        0.0348
     27  CG        -1.1890   20.3440    6.0900 C.3     8  ARG8        0.0492
     28  CD        -1.0640   19.1560    5.1320 C.3     8  ARG8        0.2205
     29  NE        -1.4640   17.8930    5.7410 N.pl3   8  ARG8       -0.0865
     30  CZ        -2.7240   17.5400    5.9820 C.cat   8  ARG8        0.5346
     31  NH1       -3.7190   18.3560    5.6640 N.pl3   8  ARG8        0.1354
     32  NH2       -2.9930   16.3650    6.5370 N.pl3   8  ARG8        0.1354
     33  N          0.1950   22.3560    8.4880 N.am    9  LYS9       -0.1963
     34  CA         1.2260   22.1670    9.4960 C.3     9  LYS9        0.1728
     35  CB         0.7770   22.7680   10.8290 C.3     9  LYS9        0.0311
     36  CG         1.8960   23.3430   11.6730 C.3     9  LYS9        0.0037
     37  CD         1.3960   23.7190   13.0580 C.3     9  LYS9        0.0174
     38  CE         0.8860   25.1510   13.0960 C.3     9  LYS9        0.0722
     39  NZ         0.9660   25.7120   14.4440 N.3     9  LYS9       -0.2703
     40  CH1        0.9950   27.1710   14.3730 C.3     9  LYS9        0.0897
     41  CH2       -0.1690   25.2230   15.2300 C.3     9  LYS9        0.0897
     42  C          1.4950   20.6770    9.6520 C.2     9  LYS9        0.2616
     43  O          0.6680   19.9490   10.2010 O.2     9  LYS9       -0.2715
     44  N          2.6410   20.2200    9.1580 N.am   10  SER10      -0.1950
     45  CA         2.9810   18.8040    9.2430 C.3    10  SER10       0.1924
     46  C          3.2170   18.3680   10.6850 C.2    10  SER10       0.2314
     47  O          3.1510   19.2330   11.5830 O.2    10  SER10      -0.2863
     48  CB         4.2270   18.5080    8.4040 C.3    10  SER10       0.2116
     49  OG         5.3510   19.2310    8.8790 O.3    10  SER10      -0.2180
@<TRIPOS>BOND
     1     8     7    2
     2     9     7   am
     3     7     6    1
     4     5     6    1
     5     5     2    1
     6     1     2    1
     7     2     3    1
     8    13    12    2
     9    15    14    1
    10    10     3   am
    11    10    11    1
    12     3     4    2
    13    12    11    1
    14    12    17   am
    15    11    14    1
    16    14    16    1
    17    18    17    1
    18    18    21    1
    19    18    19    1
    20    28    29    1
    21    28    27    1
    22    26    27    1
    23    26    23    1
    24    22    19   am
    25    22    23    1
    26    31    30    1
    27    29    30    2
    28    19    20    2
    29    30    32    1
    30    23    24    1
    31    25    24    2
    32    24    33   am
    33    48    49    1
    34    48    45    1
    35    33    34    1
    36    44    45    1
    37    44    42   am
    38    45    46    1
    39    34    42    1
    40    34    35    1
    41    42    43    2
    42    46    47    2
    43    35    36    1
    44    36    37    1
    45    37    38    1
    46    38    39    1
    47    40    39    1
    48    39    41    1
