@<TRIPOS>MOLECULE
1kne_III_P_1.pdb
 50 49 0 0 0
SMALL
GASTEIGER

@<TRIPOS>ATOM
      1  N         -0.5120   33.8360    2.6060 N.3     5  GLN5       -0.1231
      2  CA        -1.8500   33.1840    2.7120 C.3     5  GLN5        0.1698
      3  C         -1.8500   32.0810    3.7720 C.2     5  GLN5        0.2593
      4  O         -1.6490   32.3990    4.9430 O.2     5  GLN5       -0.2718
      5  CB        -2.2660   32.5940    1.3530 C.3     5  GLN5        0.0381
      6  CG        -3.7810   32.1160    1.2990 C.3     5  GLN5        0.0905
      7  CD        -4.7450   33.2830    1.2790 C.2     5  GLN5        0.2608
      8  OE1       -4.7760   34.0630    0.3180 O.2     5  GLN5       -0.2717
      9  NE2       -5.5440   33.4140    2.3390 N.am    5  GLN5       -0.0878
     10  N         -2.0400   30.8190    3.3810 N.am    6  THR6       -0.1939
     11  CA        -2.0800   29.7340    4.3640 C.3     6  THR6        0.2028
     12  C         -1.1380   28.5590    4.1270 C.2     6  THR6        0.2642
     13  O         -0.4710   28.4950    3.0890 O.2     6  THR6       -0.2714
     14  CB        -3.4850   29.1230    4.4710 C.3     6  THR6        0.1808
     15  OG1       -3.6980   28.2350    3.3660 O.3     6  THR6       -0.2208
     16  CG2       -4.5530   30.2070    4.4490 C.3     6  THR6        0.0379
     17  N         -1.1170   27.6320    5.0820 N.am    7  ALA7       -0.1963
     18  CA        -0.2870   26.4440    4.9770 C.3     7  ALA7        0.1728
     19  C         -0.6120   25.3290    5.9700 C.2     7  ALA7        0.2616
     20  O         -1.0800   25.6030    7.0760 O.2     7  ALA7       -0.2715
     21  CB         1.1720   26.8250    5.0930 C.3     7  ALA7        0.0334
     22  N         -0.3730   24.0910    5.5480 N.am    8  ARG8       -0.1963
     23  CA        -0.5880   22.9230    6.3810 C.3     8  ARG8        0.1729
     24  C          0.4990   22.8160    7.4450 C.2     8  ARG8        0.2616
     25  O          1.6680   23.0280    7.1150 O.2     8  ARG8       -0.2715
     26  CB        -0.5680   21.6420    5.5100 C.3     8  ARG8        0.0348
     27  CG        -0.9720   20.2980    6.2760 C.3     8  ARG8        0.0492
     28  CD        -0.9130   19.0260    5.3100 C.3     8  ARG8        0.2205
     29  NE        -1.5460   17.8390    5.8890 N.pl3   8  ARG8       -0.0865
     30  CZ        -2.8610   17.7030    6.0720 C.cat   8  ARG8        0.5346
     31  NH1       -3.6870   18.6790    5.7230 N.pl3   8  ARG8        0.1354
     32  NH2       -3.3550   16.5910    6.5980 N.pl3   8  ARG8        0.1354
     33  N          0.1340   22.5210    8.6870 N.am    9  LYS9       -0.1963
     34  CA         1.1260   22.3880    9.7500 C.3     9  LYS9        0.1728
     35  CB         0.7080   23.1880   11.0030 C.3     9  LYS9        0.0310
     36  CG         1.8180   23.1750   12.1490 C.3     9  LYS9        0.0001
     37  CD         1.3840   23.9800   13.4580 C.3     9  LYS9       -0.0222
     38  CE         0.9020   25.4650   13.1480 C.3     9  LYS9       -0.0733
     39  NZ         0.5000   26.1820   14.4150 N.4     9  LYS9        0.3857
     40  C          1.3340   20.9290   10.1490 C.2     9  LYS9        0.2616
     41  O          0.3780   20.2960   10.6020 O.2     9  LYS9       -0.2715
     42  CM1        1.7460   26.1740   15.2560 C.3     9  LYS9       -0.0960
     43  CM2        0.0680   27.5340   13.9460 C.3     9  LYS9       -0.0960
     44  CM3       -0.6130   25.3520   14.9750 C.3     9  LYS9       -0.0960
     45  N          2.5510   20.4140    9.9960 N.am   10  SER10      -0.1950
     46  CA         2.8490   19.0190   10.3370 C.3    10  SER10       0.1924
     47  C          3.2310   18.7600   11.7930 C.2    10  SER10       0.2314
     48  O          3.1180   19.6930   12.6210 O.2    10  SER10      -0.2863
     49  CB         3.9670   18.4770    9.4200 C.3    10  SER10       0.2116
     50  OG         5.1110   19.3190    9.4450 O.3    10  SER10      -0.2180
@<TRIPOS>BOND
     1     8     7    2
     2     7     6    1
     3     7     9   am
     4     6     5    1
     5     5     2    1
     6     1     2    1
     7     2     3    1
     8    13    12    2
     9    15    14    1
    10    10     3   am
    11    10    11    1
    12     3     4    2
    13    12    11    1
    14    12    17   am
    15    11    14    1
    16    16    14    1
    17    18    17    1
    18    18    21    1
    19    18    19    1
    20    28    29    1
    21    28    27    1
    22    26    27    1
    23    26    23    1
    24    22    19   am
    25    22    23    1
    26    31    30    1
    27    29    30    2
    28    19    20    2
    29    30    32    1
    30    23    24    1
    31    25    24    2
    32    24    33   am
    33    33    34    1
    34    49    50    1
    35    49    46    1
    36    34    40    1
    37    34    35    1
    38    45    40   am
    39    45    46    1
    40    40    41    2
    41    46    47    1
    42    35    36    1
    43    47    48    2
    44    36    37    1
    45    38    37    1
    46    38    39    1
    47    43    39    1
    48    39    44    1
    49    39    42    1
