@<TRIPOS>MOLECULE
1knj_C5P_A_1.pdb
 21 22 0 0 0
SMALL
GASTEIGER

@<TRIPOS>ATOM
      1  O3P       13.4280   28.9910    9.5340 O.3   201  C5P201     -0.1145
      2  P         11.9930   28.8760    9.1610 P.3   201  C5P201      0.5327
      3  O1P       11.6660   28.9990    7.7190 O.2   201  C5P201     -0.2224
      4  O2P       11.4480   27.5200    9.7080 O.3   201  C5P201     -0.1145
      5  O5'       11.1940   30.0080    9.9880 O.3   201  C5P201     -0.2675
      6  C5'       11.4970   31.4040    9.6900 C.3   201  C5P201      0.1859
      7  C4'       10.7180   32.3880   10.5390 C.3   201  C5P201      0.1801
      8  O4'        9.3240   32.0290   10.7950 O.3   201  C5P201     -0.3320
      9  C3'       11.3540   32.7500   11.8920 C.3   201  C5P201      0.2158
     10  O3'       11.4520   34.1220   12.0960 O.3   201  C5P201     -0.2175
     11  C2'       10.5140   32.0490   12.9290 C.3   201  C5P201      0.2319
     12  O2'       10.4470   32.7390   14.1610 O.3   201  C5P201     -0.2157
     13  C1'        9.1490   31.8890   12.2440 C.3   201  C5P201      0.2400
     14  N1         8.4880   30.6610   12.6840 N.am  201  C5P201     -0.1778
     15  C2         7.3040   30.8110   13.4840 C.1   201  C5P201      0.2756
     16  N3         6.6000   29.7440   13.9470 N.2   201  C5P201     -0.3024
     17  C4         6.9850   28.4470   13.6960 C.2   201  C5P201      0.2346
     18  C5         8.1310   28.2540   12.9280 C.2   201  C5P201      0.0687
     19  C6         8.8830   29.2520   12.4280 C.2   201  C5P201      0.0836
     20  O2         6.8680   32.0480   13.7740 O.2   201  C5P201     -0.1925
     21  N4         6.2340   27.4330   14.1940 N.pl3 201  C5P201     -0.0921
@<TRIPOS>BOND
     1     3     2    2
     2     2     1    1
     3     2     4    1
     4     2     5    1
     5     6     5    1
     6     6     7    1
     7     7     8    1
     8     7     9    1
     9     8    13    1
    10     9    10    1
    11     9    11    1
    12    13    14    1
    13    13    11    1
    14    19    14    1
    15    19    18    2
    16    14    15   am
    17    18    17    1
    18    11    12    1
    19    15    20    2
    20    15    16    2
    21    17    16    2
    22    17    21    1
