@<TRIPOS>MOLECULE
1knm_LAT_A_1.pdb
 23 24 0 0 0
SMALL
GASTEIGER

@<TRIPOS>ATOM
      1  C1        -4.7140  -13.2070    0.7550 C.3   132  LAT132      0.2695
      2  C2        -5.1640  -11.7970    1.1460 C.3   132  LAT132      0.2406
      3  C3        -5.3060  -10.8830   -0.0810 C.3   132  LAT132      0.2198
      4  C4        -4.0140  -10.9070   -0.9060 C.3   132  LAT132      0.2144
      5  C5        -3.7820  -12.3820   -1.2780 C.3   132  LAT132      0.1835
      6  C6        -2.6120  -12.6640   -2.1650 C.3   132  LAT132      0.2142
      7  O1        -4.5100  -13.9780    1.9090 O.3   132  LAT132     -0.3257
      8  O2        -6.4150  -11.8870    1.8060 O.3   132  LAT132     -0.2149
      9  O3        -5.5960   -9.5660    0.3530 O.3   132  LAT132     -0.2174
     10  O4        -2.9380  -10.4170   -0.1090 O.3   132  LAT132     -0.2176
     11  O5        -3.5710  -13.1480   -0.0800 O.3   132  LAT132     -0.3256
     12  O6        -1.4270  -12.3350   -1.4790 O.3   132  LAT132     -0.2176
     13  C1'       -5.2080  -17.9070    3.1990 C.3   132  LAT132      0.3023
     14  C2'       -4.3360  -17.7470    1.9510 C.3   132  LAT132      0.2433
     15  C3'       -3.8670  -16.2980    1.8180 C.3   132  LAT132      0.2168
     16  C4'       -5.0380  -15.3250    1.8720 C.3   132  LAT132      0.1804
     17  C5'       -5.8960  -15.6110    3.1270 C.3   132  LAT132      0.1804
     18  C6'       -7.1580  -14.7710    3.2020 C.3   132  LAT132      0.2141
     19  O1'       -5.7100  -19.1970    3.2540 O.3   132  LAT132     -0.1869
     20  O2'       -3.2060  -18.6020    2.0440 O.3   132  LAT132     -0.2148
     21  O3'       -3.1790  -16.1240    0.5910 O.3   132  LAT132     -0.2175
     22  O5'       -6.3160  -16.9980    3.1430 O.3   132  LAT132     -0.3237
     23  O6'       -7.8760  -14.8130    1.9780 O.3   132  LAT132     -0.2176
@<TRIPOS>BOND
     1     6    12    1
     2     6     5    1
     3     5     4    1
     4     5    11    1
     5     4    10    1
     6     4     3    1
     7     3     9    1
     8     3     2    1
     9    11     1    1
    10    21    15    1
    11     1     2    1
    12     1     7    1
    13     2     8    1
    14    15    16    1
    15    15    14    1
    16    16     7    1
    17    16    17    1
    18    14    20    1
    19    14    13    1
    20    23    18    1
    21    17    22    1
    22    17    18    1
    23    22    13    1
    24    13    19    1
