@<TRIPOS>MOLECULE
1kno_PNP_B_1.pdb
 14 14 0 0 0
SMALL
GASTEIGER

@<TRIPOS>ATOM
      1  C1        -4.4840   -4.4560    4.8600 C.ar  551  PNP551      0.1469
      2  C2        -4.4010   -5.2350    3.7600 C.ar  551  PNP551      0.0391
      3  C3        -3.4850   -4.9830    2.7970 C.ar  551  PNP551      0.0272
      4  C4        -2.6400   -3.9460    2.9270 C.ar  551  PNP551      0.1431
      5  C5        -2.6930   -3.1550    4.0400 C.ar  551  PNP551      0.0272
      6  C6        -3.6330   -3.4010    5.0110 C.ar  551  PNP551      0.0391
      7  CM        -6.7080   -5.7000    7.9350 C.3   551  PNP551      0.1453
      8  N         -1.6900   -3.6730    1.9250 N.pl3 551  PNP551      0.0577
      9  O1N       -1.6560   -4.3720    0.9660 O.2   551  PNP551     -0.1261
     10  O2N       -1.0090   -2.8040    2.0620 O.2   551  PNP551     -0.1261
     11  P         -5.2620   -5.6760    7.0910 P.3   551  PNP551      0.4182
     12  O1P       -5.4480   -4.7320    5.8140 O.3   551  PNP551     -0.4208
     13  O2P       -4.1930   -5.0590    7.6720 O.3   551  PNP551     -0.1296
     14  O3P       -4.7950   -6.9490    6.5620 O.2   551  PNP551     -0.2410
@<TRIPOS>BOND
     1     9     8    2
     2     8    10    2
     3     8     4    1
     4     3     4   ar
     5     3     2   ar
     6     4     5   ar
     7     2     1   ar
     8     5     6   ar
     9     1     6   ar
    10     1    12    1
    11    12    11    1
    12    14    11    2
    13    11    13    1
    14    11     7    1
