@<TRIPOS>MOLECULE
1knu_YPA_A_1.pdb
 30 33 0 0 0
SMALL
GASTEIGER

@<TRIPOS>ATOM
      1  C1        11.3500   64.0610    9.5710 C.ar  1001  YPA1001     0.0001
      2  C2        12.1110   65.1960    9.1690 C.ar  1001  YPA1001     0.0015
      3  C3        13.4960   65.2200    9.4160 C.ar  1001  YPA1001     0.0172
      4  C4        14.1610   64.1620   10.0660 C.ar  1001  YPA1001     0.0600
      5  C5        13.3940   63.0120   10.4740 C.ar  1001  YPA1001     0.0172
      6  C6        11.9900   62.9680   10.2220 C.ar  1001  YPA1001     0.0015
      7  C11       14.4990   66.2440    9.1110 C.ar  1001  YPA1001     0.0172
      8  C12       15.7200   65.7600    9.5840 C.ar  1001  YPA1001     0.0600
      9  N13       15.5370   64.5100   10.1770 N.ar  1001  YPA1001    -0.3234
     10  C14       14.4000   67.4960    8.4660 C.ar  1001  YPA1001     0.0015
     11  C15       15.5850   68.2770    8.3080 C.ar  1001  YPA1001     0.0001
     12  C16       16.8410   67.8010    8.7910 C.ar  1001  YPA1001     0.0015
     13  C17       16.9110   66.5330    9.4390 C.ar  1001  YPA1001     0.0172
     14  C22       16.7230   63.7720   10.7910 C.3   1001  YPA1001     0.1533
     15  C23       16.5560   62.3900   11.4740 C.3   1001  YPA1001     0.2297
     16  O26       17.8010   61.9100   12.0160 O.3   1001  YPA1001    -0.4734
     17  C29       17.9080   61.9910   13.4520 C.ar  1001  YPA1001     0.1386
     18  C30       19.2100   61.9590   14.0060 C.ar  1001  YPA1001     0.0366
     19  C31       19.4160   62.0300   15.4130 C.ar  1001  YPA1001    -0.0011
     20  C32       18.3190   62.1370   16.3160 C.ar  1001  YPA1001    -0.0190
     21  C33       16.9990   62.1690   15.7720 C.ar  1001  YPA1001    -0.0011
     22  C34       16.7910   62.0960   14.3590 C.ar  1001  YPA1001     0.0366
     23  C39       18.5770   62.2180   17.8320 C.3   1001  YPA1001     0.0676
     24  C40       18.8510   63.6670   18.3730 C.3   1001  YPA1001     0.2220
     25  C43       18.7990   63.7140   19.9670 C.2   1001  YPA1001     0.3917
     26  O44       20.0200   63.7990   20.5510 O.co2 1001  YPA1001    -0.2429
     27  O45       17.7960   63.6950   20.6260 O.co2 1001  YPA1001    -0.2429
     28  O47       20.1230   64.1290   17.8300 O.3   1001  YPA1001    -0.3448
     29  C49       20.6170   65.4340   18.1520 C.3   1001  YPA1001     0.1429
     30  C50       20.8780   66.2160   16.8710 C.3   1001  YPA1001     0.0347
@<TRIPOS>BOND
     1    11    10   ar
     2    11    12   ar
     3    10     7   ar
     4    12    13   ar
     5     7     3   ar
     6     7     8   ar
     7     2     3   ar
     8     2     1   ar
     9     3     4   ar
    10    13     8   ar
    11     1     6   ar
    12     8     9   ar
    13     4     9   ar
    14     4     5   ar
    15     9    14    1
    16     6     5   ar
    17    14    15    1
    18    15    16    1
    19    16    17    1
    20    17    18   ar
    21    17    22   ar
    22    18    19   ar
    23    22    21   ar
    24    19    20   ar
    25    21    20   ar
    26    20    23    1
    27    30    29    1
    28    28    29    1
    29    28    24    1
    30    23    24    1
    31    24    25    1
    32    25    26   ar
    33    25    27   ar
