@<TRIPOS>MOLECULE
1knw_PLP_A_1.pdb
 15 15 0 0 0
SMALL
GASTEIGER

@<TRIPOS>ATOM
      1  N1        15.7850   35.8230   56.8690 N.ar  554  PLP554     -0.2452
      2  C2        15.4430   35.5490   58.1700 C.ar  554  PLP554      0.0978
      3  C2A       14.4460   34.4010   58.4220 C.3   554  PLP554      0.0555
      4  C3        16.0480   36.2910   59.1760 C.ar  554  PLP554      0.2049
      5  O3        15.8210   36.0280   60.4250 O.3   554  PLP554     -0.2857
      6  C4        16.9600   37.3480   58.8600 C.ar  554  PLP554      0.0182
      7  C4A       17.5750   38.2580   59.8330 C.3   554  PLP554      0.0342
      8  C5        17.2260   37.5950   57.4780 C.ar  554  PLP554      0.0261
      9  C6        16.6270   36.8140   56.4880 C.ar  554  PLP554      0.0965
     10  C5A       18.1470   38.7310   57.0780 C.3   554  PLP554      0.1815
     11  O4P       19.4890   38.4940   57.5210 O.3   554  PLP554     -0.2653
     12  P         20.6140   39.5360   56.9940 P.3   554  PLP554      0.5329
     13  O1P       20.3030   40.8800   57.5770 O.3   554  PLP554     -0.1145
     14  O2P       21.9550   39.0480   57.4290 O.3   554  PLP554     -0.1145
     15  O3P       20.5320   39.5820   55.4970 O.2   554  PLP554     -0.2224
@<TRIPOS>BOND
     1    15    12    2
     2     9     1   ar
     3     9     8   ar
     4     1     2   ar
     5    12    14    1
     6    12    11    1
     7    12    13    1
     8    10     8    1
     9    10    11    1
    10     8     6   ar
    11     2     3    1
    12     2     4   ar
    13     6     4   ar
    14     6     7    1
    15     4     5    1
