@<TRIPOS>MOLECULE
1kny_APC_A_1.pdb
 31 33 0 0 0
SMALL
GASTEIGER

@<TRIPOS>ATOM
      1  PG        10.5430   38.0230   39.7420 P.3   556  APC556      0.5389
      2  O1G       10.2290   39.0840   40.7630 O.3   556  APC556     -0.1143
      3  O2G        9.4170   37.0390   39.6480 O.2   556  APC556     -0.2220
      4  O3G       11.8920   37.2570   40.1460 O.3   556  APC556     -0.1143
      5  PB        11.5690   40.0320   37.9440 P.3   556  APC556      0.3895
      6  O1B       11.9410   39.9870   36.4840 O.2   556  APC556     -0.2544
      7  O2B       10.7820   41.2530   38.2440 O.3   556  APC556     -0.1388
      8  O3B       10.7300   38.7220   38.3250 O.3   556  APC556     -0.2026
      9  PA        13.8710   41.5680   39.3480 P.3   556  APC556      0.3820
     10  O1A       14.0820   41.6600   40.8230 O.3   556  APC556     -0.1392
     11  O2A       15.2130   41.6030   38.6790 O.2   556  APC556     -0.2548
     12  C3A       13.0660   40.0180   38.9420 C.3   556  APC556      0.2357
     13  O5'       12.9910   42.8060   38.8650 O.3   556  APC556     -0.2896
     14  C5'       13.7390   43.8520   38.2360 C.3   556  APC556      0.1836
     15  C4'       13.0650   44.3070   36.9640 C.3   556  APC556      0.1822
     16  O4'       13.5950   45.6290   36.6560 O.3   556  APC556     -0.3135
     17  C3'       13.3320   43.4300   35.7410 C.3   556  APC556      0.2184
     18  O3'       12.2250   42.5410   35.4690 O.3   556  APC556     -0.2174
     19  C2'       13.6410   44.4540   34.6360 C.3   556  APC556      0.2570
     20  O2'       12.4910   44.7140   33.8190 O.3   556  APC556     -0.2130
     21  C1'       14.0290   45.7310   35.3510 C.3   556  APC556      0.3186
     22  N9        15.4620   46.0690   35.4040 N.pl3 556  APC556     -0.1439
     23  C8        16.0050   47.3300   35.3060 C.3   556  APC556      0.3377
     24  N7        17.3070   47.3720   35.5130 N.2   556  APC556     -0.2095
     25  C5        17.6420   46.0630   35.9070 C.2   556  APC556      0.2526
     26  C6        18.8920   45.4840   36.2690 C.2   556  APC556      0.4393
     27  N6        19.9610   46.0620   36.3880 N.pl3 556  APC556      0.2180
     28  N1        18.7770   44.1500   36.3310 N.2   556  APC556      0.0021
     29  C2        17.6460   43.4020   36.1970 C.3   556  APC556      0.5254
     30  N3        16.5050   43.9050   35.9370 N.2   556  APC556     -0.0055
     31  C4        16.5500   45.2340   35.7270 C.2   556  APC556      0.3518
@<TRIPOS>BOND
     1    20    19    1
     2    19    21    1
     3    19    17    1
     4    23    22    1
     5    23    24    1
     6    21    22    1
     7    21    16    1
     8    22    31    1
     9    18    17    1
    10    24    25    2
    11    31    25    1
    12    31    30    2
    13    17    15    1
    14    25    26    1
    15    30    29    1
    16    29    28    1
    17    26    28    2
    18    26    27    1
    19     6     5    2
    20    16    15    1
    21    15    14    1
    22     5     7    1
    23     5     8    1
    24     5    12    1
    25    14    13    1
    26     8     1    1
    27    11     9    2
    28    13     9    1
    29    12     9    1
    30     9    10    1
    31     3     1    2
    32     1     4    1
    33     1     2    1
