@<TRIPOS>MOLECULE
1kny_KAN_A_1.pdb
 33 35 0 0 0
SMALL
GASTEIGER

@<TRIPOS>ATOM
      1  C1        33.0470   49.5190   31.7420 C.3   558  KAN558      0.2695
      2  C2        34.2440   49.7000   30.8420 C.3   558  KAN558      0.2406
      3  C3        35.0520   48.4270   30.7920 C.3   558  KAN558      0.2198
      4  C4        35.4950   48.0300   32.1910 C.3   558  KAN558      0.2133
      5  C5        34.3720   48.1210   33.2300 C.3   558  KAN558      0.1696
      6  C6        35.0190   48.2950   34.5840 C.3   558  KAN558      0.1415
      7  C7        28.0860   49.1550   30.9790 C.3   558  KAN558      0.1231
      8  C8        28.7360   47.8010   31.2490 C.3   558  KAN558      0.1680
      9  C9        30.0460   48.0080   31.9520 C.3   558  KAN558      0.2088
     10  C10       30.9300   48.5770   30.8530 C.3   558  KAN558      0.1680
     11  C11       30.4540   49.9840   30.4620 C.3   558  KAN558      0.1231
     12  C12       28.9840   49.9480   30.0270 C.3   558  KAN558      0.0432
     13  C13       27.6580   45.6970   31.2200 C.3   558  KAN558      0.2684
     14  C14       26.2360   45.2230   31.4990 C.3   558  KAN558      0.2279
     15  C15       26.0790   44.9800   32.9940 C.3   558  KAN558      0.1599
     16  C16       27.1210   43.9780   33.4830 C.3   558  KAN558      0.2017
     17  C17       28.4910   44.5100   33.0670 C.3   558  KAN558      0.1824
     18  C18       29.6270   43.6320   33.4910 C.3   558  KAN558      0.2142
     19  N1        36.5080   48.3810   34.4940 N.3   558  KAN558     -0.1286
     20  N2        31.2950   50.4950   29.3810 N.3   558  KAN558     -0.1302
     21  N3        26.7240   49.0260   30.4360 N.3   558  KAN558     -0.1302
     22  N4        24.7050   44.4920   33.3020 N.3   558  KAN558     -0.1272
     23  O5        33.5100   49.2730   33.0660 O.3   558  KAN558     -0.3268
     24  O6        33.8140   50.1090   29.5650 O.3   558  KAN558     -0.2149
     25  O7        36.1940   48.6160   29.9690 O.3   558  KAN558     -0.2174
     26  O8        36.0670   46.7300   32.2180 O.3   558  KAN558     -0.2176
     27  O9        32.3130   48.4260   31.2320 O.3   558  KAN558     -0.3269
     28  O10       30.5270   46.7530   32.4200 O.3   558  KAN558     -0.2178
     29  O11       27.8690   46.8880   31.9390 O.3   558  KAN558     -0.3269
     30  O12       28.5290   44.6810   31.6300 O.3   558  KAN558     -0.3257
     31  O13       25.2980   46.1910   31.0540 O.3   558  KAN558     -0.2161
     32  O14       27.0220   43.8870   34.9000 O.3   558  KAN558     -0.2188
     33  O15       30.8460   44.3130   33.2000 O.3   558  KAN558     -0.2176
@<TRIPOS>BOND
     1    20    11    1
     2    24     2    1
     3    25     3    1
     4    12    11    1
     5    12     7    1
     6    21     7    1
     7    11    10    1
     8     3     2    1
     9     3     4    1
    10     2     1    1
    11    10    27    1
    12    10     9    1
    13     7     8    1
    14    31    14    1
    15    13    14    1
    16    13    30    1
    17    13    29    1
    18    27     1    1
    19     8    29    1
    20     8     9    1
    21    14    15    1
    22    30    17    1
    23     1    23    1
    24     9    28    1
    25     4    26    1
    26     4     5    1
    27    15    22    1
    28    15    16    1
    29    23     5    1
    30    17    16    1
    31    17    18    1
    32    33    18    1
    33     5     6    1
    34    16    32    1
    35    19     6    1
