@<TRIPOS>MOLECULE
1ko0_PLP_A_1.pdb
 15 15 0 0 0
SMALL
GASTEIGER

@<TRIPOS>ATOM
      1  N1        15.9380   36.1390   56.7470 N.ar  540  PLP540     -0.2452
      2  C2        15.6340   35.7420   58.0270 C.ar  540  PLP540      0.0978
      3  C2A       14.7030   34.5320   58.2090 C.3   540  PLP540      0.0555
      4  C3        16.1720   36.4570   59.0850 C.ar  540  PLP540      0.2049
      5  O3        15.9080   36.1210   60.3060 O.3   540  PLP540     -0.2857
      6  C4        17.0610   37.5700   58.8740 C.ar  540  PLP540      0.0182
      7  C4A       17.8140   38.5000   59.8300 C.3   540  PLP540      0.0342
      8  C5        17.3180   37.9030   57.5260 C.ar  540  PLP540      0.0261
      9  C6        16.7500   37.1700   56.4550 C.ar  540  PLP540      0.0965
     10  C5A       18.1520   39.1150   57.1750 C.3   540  PLP540      0.1815
     11  O4P       19.5420   38.8560   57.4170 O.3   540  PLP540     -0.2653
     12  P         20.5760   39.9350   56.8360 P.3   540  PLP540      0.5329
     13  O1P       20.2150   41.2830   57.3870 O.3   540  PLP540     -0.1145
     14  O2P       21.9640   39.5750   57.1650 O.3   540  PLP540     -0.1145
     15  O3P       20.3960   39.9630   55.3270 O.2   540  PLP540     -0.2224
@<TRIPOS>BOND
     1    15    12    2
     2     9     1   ar
     3     9     8   ar
     4     1     2   ar
     5    12    14    1
     6    12    13    1
     7    12    11    1
     8    10    11    1
     9    10     8    1
    10     8     6   ar
    11     2     3    1
    12     2     4   ar
    13     6     4   ar
    14     6     7    1
    15     4     5    1
