@<TRIPOS>MOLECULE
1ko0_LYS_A_1.pdb
 10 9 0 0 0
SMALL
GASTEIGER

@<TRIPOS>ATOM
      1  N         21.6120   42.0900   64.8910 N.3   541  LYS541     -0.1208
      2  CA        22.5550   41.3670   64.0080 C.3   541  LYS541      0.1943
      3  C         23.6800   42.3350   63.6090 C.2   541  LYS541      0.3819
      4  O         24.7110   41.9360   63.0640 O.co2 541  LYS541     -0.2441
      5  CB        21.8510   40.8810   62.7470 C.3   541  LYS541      0.0307
      6  CG        21.2920   39.4570   62.8280 C.3   541  LYS541      0.0036
      7  CD        20.4030   39.1410   61.6340 C.3   541  LYS541      0.0206
      8  CE        20.0080   37.6920   61.5340 C.3   541  LYS541      0.1093
      9  NZ        18.7860   37.5040   60.7300 N.3   541  LYS541     -0.1314
     10  OXT       23.4760   43.5440   63.8520 O.co2 541  LYS541     -0.2441
@<TRIPOS>BOND
     1     9     8    1
     2     8     7    1
     3     7     6    1
     4     5     6    1
     5     5     2    1
     6     4     3   ar
     7     3    10   ar
     8     3     2    1
     9     2     1    1
