@<TRIPOS>MOLECULE
1ko0_DLY_A_1.pdb
 10 9 0 0 0
SMALL
GASTEIGER

@<TRIPOS>ATOM
      1  N         18.9490   37.3010   60.6040 N.3   542  DLY542     -0.1208
      2  CA        20.0140   37.4670   61.4910 C.3   542  DLY542      0.1943
      3  C         21.1730   36.5360   61.6240 C.2   542  DLY542      0.3819
      4  O         21.8780   36.2160   60.6400 O.co2 542  DLY542     -0.2441
      5  CB        20.0110   38.5990   62.4340 C.3   542  DLY542      0.0307
      6  CG        20.8480   39.8200   62.1070 C.3   542  DLY542      0.0036
      7  CD        22.0370   39.9850   63.0400 C.3   542  DLY542      0.0206
      8  CE        21.7020   40.7720   64.2820 C.3   542  DLY542      0.1093
      9  NZ        22.0140   42.2090   64.1160 N.3   542  DLY542     -0.1314
     10  OXT       21.4590   36.1050   62.7880 O.co2 542  DLY542     -0.2441
@<TRIPOS>BOND
     1     1     2    1
     2     4     3   ar
     3     2     3    1
     4     2     5    1
     5     3    10   ar
     6     6     5    1
     7     6     7    1
     8     7     8    1
     9     9     8    1
