@<TRIPOS>MOLECULE
1ko5_ATP_A_1.pdb
 31 33 0 0 0
SMALL
GASTEIGER

@<TRIPOS>ATOM
      1  PG         0.3030  -14.8970   16.9670 P.3   302  ATP302      0.5373
      2  O1G        0.7390  -16.2690   16.6950 O.3   302  ATP302     -0.1143
      3  O2G        0.8990  -14.3790   18.2940 O.3   302  ATP302     -0.1143
      4  O3G        0.7430  -13.9360   15.8770 O.2   302  ATP302     -0.2221
      5  PB        -2.1080  -13.7930   17.8000 P.3   302  ATP302      0.2277
      6  O1B       -1.6860  -12.4820   17.2960 O.2   302  ATP302     -0.5168
      7  O2B       -2.2280  -13.8120   19.3300 O.3   302  ATP302     -0.4368
      8  O3B       -1.2660  -15.0000   17.2180 O.3   302  ATP302     -0.2258
      9  PA        -4.3530  -13.6570   16.0360 P.3   302  ATP302      0.2189
     10  O1A       -4.5910  -12.2460   16.2980 O.3   302  ATP302     -0.4371
     11  O2A       -3.6070  -13.7890   14.7070 O.2   302  ATP302     -0.5170
     12  O3A       -3.5400  -14.2950   17.2670 O.3   302  ATP302     -0.2700
     13  O5'       -5.6940  -14.5480   16.1770 O.3   302  ATP302     -0.3112
     14  C5'       -5.7500  -15.9520   15.9950 C.3   302  ATP302      0.1813
     15  C4'       -6.8520  -16.3130   14.9790 C.3   302  ATP302      0.1821
     16  O4'       -8.1400  -16.3230   15.5530 O.3   302  ATP302     -0.3135
     17  C3'       -6.9510  -15.3120   13.8420 C.3   302  ATP302      0.2184
     18  O3'       -7.4150  -16.0420   12.7470 O.3   302  ATP302     -0.2174
     19  C2'       -8.0390  -14.3560   14.2550 C.3   302  ATP302      0.2570
     20  O2'       -8.7690  -13.8670   13.1510 O.3   302  ATP302     -0.2130
     21  C1'       -8.9300  -15.2460   15.0790 C.3   302  ATP302      0.3186
     22  N9        -9.4590  -14.5750   16.2700 N.pl3 302  ATP302     -0.1439
     23  C8        -8.8200  -13.7560   17.1600 C.3   302  ATP302      0.3377
     24  N7        -9.6950  -13.4180   18.1440 N.2   302  ATP302     -0.2095
     25  C5       -10.8730  -14.0250   17.9010 C.2   302  ATP302      0.2526
     26  C6       -12.0970  -14.0370   18.5560 C.2   302  ATP302      0.4393
     27  N6       -12.2370  -13.5760   19.7920 N.pl3 302  ATP302      0.2180
     28  N1       -13.1180  -14.7880   18.0230 N.2   302  ATP302      0.0021
     29  C2       -12.9510  -15.5120   16.8660 C.3   302  ATP302      0.5254
     30  N3       -11.7440  -15.4810   16.2070 N.2   302  ATP302     -0.0055
     31  C4       -10.7260  -14.7610   16.7250 C.2   302  ATP302      0.3518
@<TRIPOS>BOND
     1    18    17    1
     2    20    19    1
     3    17    19    1
     4    17    15    1
     5    19    21    1
     6    11     9    2
     7    15    16    1
     8    15    14    1
     9    21    16    1
    10    21    22    1
    11     4     1    2
    12    14    13    1
    13     9    13    1
    14     9    10    1
    15     9    12    1
    16    30    31    2
    17    30    29    1
    18    22    31    1
    19    22    23    1
    20     2     1    1
    21    31    25    1
    22    29    28    1
    23     1     8    1
    24     1     3    1
    25    23    24    1
    26     8     5    1
    27    12     5    1
    28     6     5    2
    29     5     7    1
    30    25    24    2
    31    25    26    1
    32    28    26    2
    33    26    27    1
