@<TRIPOS>MOLECULE
1ko6_III_B_1.pdb
 50 50 0 0 0
SMALL
GASTEIGER

@<TRIPOS>ATOM
      1  N         60.5420   27.1360   35.8190 N.3   865  LYS865     -0.1231
      2  CA        60.5950   26.7050   34.4280 C.3   865  LYS865      0.1693
      3  C         60.7720   27.8960   33.4920 C.2   865  LYS865      0.2592
      4  O         60.0020   28.8650   33.5530 O.2   865  LYS865     -0.2718
      5  CB        59.3190   25.9430   34.0600 C.3   865  LYS865      0.0285
      6  CG        59.2720   25.4720   32.6160 C.3   865  LYS865      0.0035
      7  CD        59.4740   23.9690   32.5190 C.3   865  LYS865      0.0206
      8  CE        59.6960   23.5340   31.0790 C.3   865  LYS865      0.1093
      9  NZ        58.6850   24.1250   30.1580 N.3   865  LYS865     -0.1314
     10  N         61.8250   27.8290   32.6910 N.am  866  TYR866     -0.1962
     11  CA        62.1590   28.8770   31.7280 C.3   866  TYR866      0.1771
     12  C         62.8430   28.2170   30.5600 C.2   866  TYR866      0.2620
     13  O         63.9650   27.7010   30.6910 O.2   866  TYR866     -0.2715
     14  CB        63.1290   29.9050   32.3090 C.3   866  TYR866      0.0574
     15  CG        62.5600   30.7220   33.4320 C.ar  866  TYR866     -0.0198
     16  CD1       62.6370   30.2720   34.7490 C.ar  866  TYR866     -0.0009
     17  CD2       61.9370   31.9550   33.1830 C.ar  866  TYR866     -0.0009
     18  CE1       62.1110   31.0290   35.7980 C.ar  866  TYR866      0.0417
     19  CE2       61.4070   32.7210   34.2350 C.ar  866  TYR866      0.0417
     20  CZ        61.5020   32.2450   35.5330 C.ar  866  TYR866      0.1957
     21  OH        60.9780   32.9700   36.5740 O.3   866  TYR866     -0.2866
     22  N         62.1750   28.2310   29.4170 N.am  867  GLY867     -0.1940
     23  CA        62.7620   27.6210   28.2490 C.3   867  GLY867      0.2014
     24  C         61.7790   27.6490   27.1130 C.2   867  GLY867      0.2639
     25  O         60.6570   28.1380   27.2720 O.2   867  GLY867     -0.2714
     26  N         62.1990   27.1200   25.9650 N.am  868  LEU868     -0.1963
     27  CA        61.3430   27.0910   24.7940 C.3   868  LEU868      0.1728
     28  C         60.5760   25.7680   24.7670 C.2   868  LEU868      0.2616
     29  O         61.1730   24.7060   24.5180 O.2   868  LEU868     -0.2715
     30  CB        62.1820   27.2550   23.5210 C.3   868  LEU868      0.0311
     31  CG        61.5790   28.1580   22.4310 C.3   868  LEU868      0.0022
     32  CD1       62.4160   28.0250   21.1520 C.3   868  LEU868      0.0001
     33  CD2       60.1170   27.7730   22.1730 C.3   868  LEU868      0.0001
     34  N         59.2620   25.8370   25.0020 N.am  869  GLN869     -0.1963
     35  CA        58.3910   24.6470   25.0190 C.3   869  GLN869      0.1733
     36  C         57.8080   24.3040   23.6350 C.2   869  GLN869      0.2616
     37  O         56.6590   23.8230   23.5400 O.2   869  GLN869     -0.2715
     38  CB        57.2170   24.8400   25.9930 C.3   869  GLN869      0.0408
     39  CG        55.9230   25.3380   25.3210 C.3   869  GLN869      0.0908
     40  CD        54.8010   25.5810   26.3210 C.2   869  GLN869      0.2608
     41  OE1       54.4820   24.7020   27.1480 O.2   869  GLN869     -0.2717
     42  NE2       54.1870   26.7770   26.2550 N.am  869  GLN869     -0.0878
     43  N         58.5870   24.5690   22.5760 N.am  870  ASP870     -0.1971
     44  CA        58.1650   24.2980   21.1880 C.3   870  ASP870      0.1709
     45  C         57.4210   22.9630   21.0300 C.2   870  ASP870      0.2293
     46  O         56.5730   22.9030   20.0970 O.2   870  ASP870     -0.2864
     47  CB        59.3650   24.3360   20.2110 C.3   870  ASP870      0.1436
     48  CG        60.5760   23.4860   20.6900 C.2   870  ASP870      0.3671
     49  OD1       61.5700   23.3780   19.9040 O.co2 870  ASP870     -0.2456
     50  OD2       60.5480   22.9440   21.8420 O.co2 870  ASP870     -0.2456
@<TRIPOS>BOND
     1    49    48   ar
     2    46    45    2
     3    47    48    1
     4    47    44    1
     5    48    50   ar
     6    45    44    1
     7    32    31    1
     8    44    43    1
     9    33    31    1
    10    31    30    1
    11    43    36   am
    12    30    27    1
    13    37    36    2
    14    36    35    1
    15    29    28    2
    16    28    27    1
    17    28    34   am
    18    27    26    1
    19    34    35    1
    20    35    38    1
    21    39    38    1
    22    39    40    1
    23    26    24   am
    24    42    40   am
    25    40    41    2
    26    24    25    2
    27    24    23    1
    28    23    22    1
    29    22    12   am
    30     9     8    1
    31    12    13    2
    32    12    11    1
    33     8     7    1
    34    11    14    1
    35    11    10    1
    36    14    15    1
    37     7     6    1
    38     6     5    1
    39    10     3   am
    40    17    15   ar
    41    17    19   ar
    42    15    16   ar
    43     3     4    2
    44     3     2    1
    45     5     2    1
    46    19    20   ar
    47     2     1    1
    48    16    18   ar
    49    20    18   ar
    50    20    21    1
