@<TRIPOS>MOLECULE
1ko8_6PG_A_1.pdb
 17 16 0 0 0
SMALL
GASTEIGER

@<TRIPOS>ATOM
      1  C1        -1.2170  -21.5130   13.2800 C.2   502  6PG502      0.3973
      2  C2        -0.7130  -20.0630   13.4050 C.3   502  6PG502      0.2865
      3  C3        -1.2910  -19.1110   12.3420 C.3   502  6PG502      0.2260
      4  C4        -0.4410  -17.9330   11.8030 C.3   502  6PG502      0.2179
      5  C5        -0.9790  -16.6760   12.4230 C.3   502  6PG502      0.2147
      6  C6         0.1700  -15.6940   12.7670 C.3   502  6PG502      0.1892
      7  O1A       -1.5310  -21.9210   12.0760 O.co2 502  6PG502     -0.2427
      8  O1        -1.3170  -22.3280   14.3490 O.co2 502  6PG502     -0.2427
      9  O2        -1.0730  -19.6740   14.6890 O.3   502  6PG502     -0.2080
     10  O3        -2.4340  -18.4320   12.8350 O.3   502  6PG502     -0.2169
     11  O4         0.9200  -17.8780   12.1070 O.3   502  6PG502     -0.2175
     12  O5        -2.0240  -16.2540   11.5630 O.3   502  6PG502     -0.2176
     13  O6        -0.3390  -14.8810   13.8310 O.3   502  6PG502     -0.2674
     14  P          0.1310  -14.4590   15.3170 P.3   502  6PG502      0.5327
     15  O1P        1.2680  -15.1420   15.9180 O.3   502  6PG502     -0.1145
     16  O2P       -1.0910  -14.5680   16.1980 O.3   502  6PG502     -0.1145
     17  O3P        0.5060  -12.9710   15.2260 O.2   502  6PG502     -0.2224
@<TRIPOS>BOND
     1    12     5    1
     2     4    11    1
     3     4     3    1
     4     4     5    1
     5     7     1   ar
     6     3    10    1
     7     3     2    1
     8     5     6    1
     9     6    13    1
    10     1     2    1
    11     1     8   ar
    12     2     9    1
    13    13    14    1
    14    17    14    2
    15    14    15    1
    16    14    16    1
