@<TRIPOS>MOLECULE
1kof_ACP_A_1.pdb
 31 33 0 0 0
SMALL
GASTEIGER

@<TRIPOS>ATOM
      1  PG         0.1860  -14.6170   16.7080 P.3   500  ACP500      0.1295
      2  O1G        0.3250  -14.4040   18.2020 O.3   500  ACP500     -0.3567
      3  O2G        0.7430  -13.3870   16.0660 O.2   500  ACP500     -0.4595
      4  O3G        0.8870  -15.8090   16.1690 O.3   500  ACP500     -0.3567
      5  PB        -2.5720  -13.7980   17.3090 P.3   500  ACP500      0.3815
      6  O1B       -2.3530  -12.3060   17.1760 O.2   500  ACP500     -0.2547
      7  O2B       -2.6440  -14.1030   18.7990 O.3   500  ACP500     -0.1391
      8  C3B       -1.5030  -14.7640   16.3430 C.3   500  ACP500      0.1768
      9  PA        -4.5290  -13.3620   15.7350 P.3   500  ACP500      0.2209
     10  O1A       -3.6180  -12.8190   14.6630 O.2   500  ACP500     -0.5170
     11  O2A       -5.1100  -12.2090   16.4920 O.3   500  ACP500     -0.4371
     12  O3A       -3.8430  -14.2390   16.7130 O.3   500  ACP500     -0.2483
     13  O5'       -5.5690  -14.2630   15.1250 O.3   500  ACP500     -0.3111
     14  C5'       -5.8010  -15.5890   15.6190 C.3   500  ACP500      0.1813
     15  C4'       -6.9150  -16.2500   14.7990 C.3   500  ACP500      0.1821
     16  O4'       -8.1600  -16.0750   15.4190 O.3   500  ACP500     -0.3135
     17  C3'       -7.1680  -15.4740   13.5180 C.3   500  ACP500      0.2184
     18  O3'       -7.9290  -16.3060   12.6590 O.3   500  ACP500     -0.2174
     19  C2'       -8.1190  -14.3920   13.9060 C.3   500  ACP500      0.2570
     20  O2'       -8.6840  -14.0280   12.6740 O.3   500  ACP500     -0.2130
     21  C1'       -9.0500  -15.1710   14.7820 C.3   500  ACP500      0.3186
     22  N9        -9.6310  -14.5800   16.0050 N.pl3 500  ACP500     -0.1439
     23  C8        -9.0110  -13.8980   16.9850 C.3   500  ACP500      0.3377
     24  N7        -9.8880  -13.5670   17.9710 N.2   500  ACP500     -0.2095
     25  C5       -11.0660  -14.1000   17.6510 C.2   500  ACP500      0.2526
     26  C6       -12.3860  -14.1620   18.2490 C.2   500  ACP500      0.4393
     27  N6       -12.6550  -13.5570   19.4640 N.pl3 500  ACP500      0.2180
     28  N1       -13.3280  -14.8200   17.5950 N.2   500  ACP500      0.0021
     29  C2       -13.0930  -15.4170   16.4220 C.3   500  ACP500      0.5254
     30  N3       -11.9120  -15.3750   15.7930 N.2   500  ACP500     -0.0055
     31  C4       -10.8930  -14.7710   16.3640 C.2   500  ACP500      0.3518
@<TRIPOS>BOND
     1    18    17    1
     2    20    19    1
     3    17    19    1
     4    17    15    1
     5    19    21    1
     6    10     9    2
     7    21    16    1
     8    21    22    1
     9    15    16    1
    10    15    14    1
    11    13    14    1
    12    13     9    1
    13     9    11    1
    14     9    12    1
    15    30    31    2
    16    30    29    1
    17    22    31    1
    18    22    23    1
    19     3     1    2
    20     4     1    1
    21     8     1    1
    22     8     5    1
    23    31    25    1
    24    29    28    1
    25     1     2    1
    26    12     5    1
    27    23    24    1
    28     6     5    2
    29     5     7    1
    30    28    26    2
    31    25    24    2
    32    25    26    1
    33    26    27    1
