@<TRIPOS>MOLECULE
1kog_TSB_A_1.pdb
 30 32 0 0 0
SMALL
GASTEIGER

@<TRIPOS>ATOM
      1  CG2       60.2520   14.0580   39.3050 C.3   2002  TSB2002     0.0376
      2  N         59.7320   13.5990   35.5500 N.3   2002  TSB2002    -0.1203
      3  CA        60.4530   13.9200   36.7800 C.3   2002  TSB2002     0.2010
      4  CB        59.5490   13.6210   38.0260 C.3   2002  TSB2002     0.1784
      5  OG1       58.2720   14.3010   37.9150 O.3   2002  TSB2002    -0.2211
      6  C         61.6800   13.0150   36.7860 C.2   2002  TSB2002     0.2824
      7  O         61.6610   12.0130   36.0950 O.2   2002  TSB2002    -0.2700
      8  N8        62.7310   13.3420   37.5370 N.am  2002  TSB2002    -0.0576
      9  S1        64.2260   12.6840   37.3250 S.3   2002  TSB2002     0.0852
     10  O1S       64.4150   12.0700   36.0050 O.3   2002  TSB2002    -0.0508
     11  O2S       65.1990   13.6950   37.7960 O.3   2002  TSB2002    -0.0508
     12  O5'       64.3070   11.4370   38.3120 O.3   2002  TSB2002    -0.2230
     13  C5'       63.6440   11.4600   39.5810 C.3   2002  TSB2002     0.2064
     14  C4'       64.2930   10.4810   40.5500 C.3   2002  TSB2002     0.1842
     15  O4'       64.1800    9.1150   40.0690 O.3   2002  TSB2002    -0.3135
     16  C3'       65.7860   10.6520   40.7920 C.3   2002  TSB2002     0.2185
     17  O3'       66.0250   11.7100   41.7260 O.3   2002  TSB2002    -0.2174
     18  C2'       66.1670    9.2970   41.3690 C.3   2002  TSB2002     0.2570
     19  O2'       65.8600    9.1980   42.7410 O.3   2002  TSB2002    -0.2130
     20  C1'       65.2530    8.3560   40.5810 C.3   2002  TSB2002     0.3186
     21  N9        65.9540    7.7540   39.4650 N.pl3 2002  TSB2002    -0.1439
     22  C8        66.2820    8.3330   38.2800 C.3   2002  TSB2002     0.3377
     23  N7        66.9580    7.5440   37.4720 N.2   2002  TSB2002    -0.2095
     24  C5        67.0710    6.3650   38.1780 C.2   2002  TSB2002     0.2526
     25  C6        67.6900    5.1400   37.8710 C.2   2002  TSB2002     0.4393
     26  N6        68.3250    4.9050   36.7360 N.pl3 2002  TSB2002     0.2180
     27  N1        67.6280    4.1560   38.7880 N.2   2002  TSB2002     0.0021
     28  C2        66.9690    4.4100   39.9420 C.3   2002  TSB2002     0.5254
     29  N3        66.3450    5.5320   40.3440 N.2   2002  TSB2002    -0.0055
     30  C4        66.4430    6.4770   39.4060 C.2   2002  TSB2002     0.3518
@<TRIPOS>BOND
     1     2     3    1
     2    10     9    1
     3     7     6    2
     4    26    25    1
     5     3     6    1
     6     3     4    1
     7     6     8   am
     8     9     8    1
     9     9    11    1
    10     9    12    1
    11    23    24    2
    12    23    22    1
    13    25    24    1
    14    25    27    2
    15     5     4    1
    16     4     1    1
    17    24    30    1
    18    22    21    1
    19    12    13    1
    20    27    28    1
    21    30    21    1
    22    30    29    2
    23    21    20    1
    24    13    14    1
    25    28    29    1
    26    15    14    1
    27    15    20    1
    28    14    16    1
    29    20    18    1
    30    16    18    1
    31    16    17    1
    32    18    19    1
