@<TRIPOS>MOLECULE
1koi_HEM_A_1.pdb
 43 50 0 0 0
SMALL
GASTEIGER

@<TRIPOS>ATOM
      1 FE         10.7140   20.2490   36.4200 Fe    185  HEM185      0.0000
      2  CHA       11.2770   23.2820   35.0450 C.2   185  HEM185      0.0000
      3  CHB        7.3860   20.6680   36.0470 C.2   185  HEM185      0.0000
      4  CHC       10.1710   17.6460   38.5200 C.2   185  HEM185      0.0000
      5  CHD       14.0290   19.6160   36.4900 C.2   185  HEM185      0.0000
      6  NA         9.5420   21.6960   35.7070 N.ar  185  HEM185      0.0000
      7  C1A        9.9560   22.9170   35.2140 C.ar  185  HEM185      0.0000
      8  C2A        8.8210   23.7350   34.8730 C.ar  185  HEM185      0.0000
      9  C3A        7.7230   22.9830   35.1460 C.ar  185  HEM185      0.0000
     10  C4A        8.1790   21.7240   35.6600 C.ar  185  HEM185      0.0000
     11  CMA        6.2600   23.4030   35.0480 C.3   185  HEM185      0.0000
     12  CAA        8.8500   25.1490   34.3250 C.3   185  HEM185      0.0000
     13  CBA        8.7020   26.1640   35.4270 C.3   185  HEM185      0.0000
     14  CGA        8.6530   27.6030   34.9930 C.2   185  HEM185      0.0000
     15  O1A        9.4620   27.9700   34.1210 O.co2 185  HEM185      0.0000
     16  O2A        7.8260   28.3660   35.5110 O.co2 185  HEM185      0.0000
     17  NB         9.1220   19.2860   37.1210 N.2   185  HEM185      0.0000
     18  C1B        7.8120   19.5630   36.7640 C.2   185  HEM185      0.0000
     19  C2B        6.8960   18.6150   37.3780 C.2   185  HEM185      0.0000
     20  C3B        7.7160   17.8200   38.1760 C.2   185  HEM185      0.0000
     21  C4B        9.0810   18.2470   37.9720 C.2   185  HEM185      0.0000
     22  CMB        5.4220   18.5360   37.1560 C.3   185  HEM185      0.0000
     23  CAB        7.3030   16.7480   39.0310 C.2   185  HEM185      0.0000
     24  CBB        7.5750   16.6600   40.3540 C.2   185  HEM185      0.0000
     25  NC        11.8820   18.9030   37.3230 N.ar  185  HEM185      0.0000
     26  C1C       11.4900   17.9360   38.1620 C.ar  185  HEM185      0.0000
     27  C2C       12.6560   17.1310   38.5840 C.ar  185  HEM185      0.0000
     28  C3C       13.7180   17.5780   37.9530 C.ar  185  HEM185      0.0000
     29  C4C       13.2210   18.7640   37.1740 C.ar  185  HEM185      0.0000
     30  CMC       12.6480   16.0010   39.6090 C.3   185  HEM185      0.0000
     31  CAC       15.0100   17.0390   37.8890 C.2   185  HEM185      0.0000
     32  CBC       16.1850   17.5260   37.8210 C.2   185  HEM185      0.0000
     33  ND        12.3250   21.2330   35.8110 N.2   185  HEM185      0.0000
     34  C1D       13.6410   20.7950   35.8890 C.2   185  HEM185      0.0000
     35  C2D       14.5090   21.7620   35.2940 C.2   185  HEM185      0.0000
     36  C3D       13.7370   22.8390   34.9560 C.2   185  HEM185      0.0000
     37  C4D       12.3690   22.5160   35.2800 C.2   185  HEM185      0.0000
     38  CMD       16.0180   21.6910   35.1960 C.3   185  HEM185      0.0000
     39  CAD       14.1950   24.0650   34.1980 C.3   185  HEM185      0.0000
     40  CBD       13.8870   24.0220   32.7560 C.3   185  HEM185      0.0000
     41  CGD       14.2780   25.2290   32.0100 C.2   185  HEM185      0.0000
     42  O1D       13.7840   25.4610   30.8900 O.co2 185  HEM185      0.0000
     43  O2D       15.1440   25.9660   32.5140 O.co2 185  HEM185      0.0000
@<TRIPOS>BOND
     1    42    41   ar
     2    41    43   ar
     3    41    40    1
     4    40    39    1
     5    15    14   ar
     6    39    36    1
     7    12     8    1
     8    12    13    1
     9     8     9   ar
    10     8     7   ar
    11    36    37    1
    12    36    35    2
    13    14    13    1
    14    14    16   ar
    15     2     7    2
    16     2    37    1
    17    11     9    1
    18     9    10   ar
    19    38    35    1
    20     7     6   ar
    21    37    33    2
    22    35    34    1
    23    10     6   ar
    24    10     3    2
    25     6     1    1
    26    33    34    1
    27    33     1    1
    28    34     5    2
    29     3    18    1
    30     1    17    1
    31     1    25    1
    32     5    29    1
    33    18    17    2
    34    18    19    1
    35    17    21    1
    36    22    19    1
    37    29    25   ar
    38    29    28   ar
    39    25    26   ar
    40    19    20    2
    41    32    31    2
    42    31    28    1
    43    28    27   ar
    44    21    20    1
    45    21     4    2
    46    26     4    1
    47    26    27   ar
    48    20    23    1
    49    27    30    1
    50    23    24    2
