@<TRIPOS>MOLECULE
1koj_PAN_A_1.pdb
 16 15 0 0 0
SMALL
GASTEIGER

@<TRIPOS>ATOM
      1  C2        15.2540    9.3860   30.0240 C.3   902  PAN902      0.2292
      2  C3        16.7450    8.9110   29.8640 C.3   902  PAN902      0.2209
      3  C4        17.2440    8.1700   31.1500 C.3   902  PAN902      0.2150
      4  C5        18.7240    7.7380   30.8810 C.3   902  PAN902      0.1892
      5  O2        14.4710    8.2120   30.3250 O.3   902  PAN902     -0.2134
      6  O3        16.8370    7.9320   28.8480 O.3   902  PAN902     -0.2171
      7  O4        17.1740    9.1450   32.2050 O.3   902  PAN902     -0.2176
      8  O5        19.4430    9.0160   30.5920 O.3   902  PAN902     -0.2674
      9  P         21.0030    8.6560   30.1980 P.3   902  PAN902      0.5327
     10  O1P       21.6880    7.8500   31.3090 O.3   902  PAN902     -0.1145
     11  O2P       21.0310    7.7760   28.9630 O.2   902  PAN902     -0.2224
     12  O3P       21.6590   10.0150   29.9210 O.3   902  PAN902     -0.1145
     13  C1        15.0160   10.1480   28.6760 C.2   902  PAN902      0.1201
     14  O1        15.5090   11.1450   28.1610 O.2   902  PAN902     -0.5373
     15  N         14.0610    9.5040   28.0320 N.am  902  PAN902     -0.2003
     16  ON1       13.5610    9.9260   26.7310 O.3   902  PAN902     -0.4026
@<TRIPOS>BOND
     1    16    15    1
     2    15    13   am
     3    14    13    2
     4    13     1    1
     5     6     2    1
     6    11     9    2
     7     2     1    1
     8     2     3    1
     9    12     9    1
    10     1     5    1
    11     9     8    1
    12     9    10    1
    13     8     4    1
    14     4     3    1
    15     3     7    1
