@<TRIPOS>MOLECULE
1kok_HIF_A_1.pdb
 44 51 0 0 0
SMALL
GASTEIGER

@<TRIPOS>ATOM
      1 FE         28.2420   92.4520   52.2350 Fe    296  HIF296      0.0000
      2  NA        29.2040   94.1370   51.7220 N.2   296  HIF296      0.0000
      3  NB        29.3620   92.3490   53.8930 N.ar  296  HIF296      0.0000
      4  NC        27.1750   90.8920   52.8650 N.2   296  HIF296      0.0000
      5  ND        27.0730   92.6190   50.6150 N.ar  296  HIF296      0.0000
      6  C1A       28.9900   94.9080   50.5850 C.2   296  HIF296      0.0000
      7  CHA       28.0750   94.6200   49.5680 C.2   296  HIF296      0.0000
      8  C4D       27.2170   93.5280   49.5630 C.ar  296  HIF296      0.0000
      9  C1B       30.3390   93.2510   54.3180 C.ar  296  HIF296      0.0000
     10  CHB       30.7140   94.4190   53.6660 C.2   296  HIF296      0.0000
     11  C4A       30.1900   94.8210   52.4430 C.2   296  HIF296      0.0000
     12  C1C       27.4710   90.0620   53.9480 C.2   296  HIF296      0.0000
     13  CHC       28.4780   90.2590   54.8790 C.2   296  HIF296      0.0000
     14  C4B       29.3540   91.3360   54.8670 C.ar  296  HIF296      0.0000
     15  C1D       26.0210   91.7800   50.2450 C.ar  296  HIF296      0.0000
     16  CHD       25.4690   90.7700   51.0450 C.2   296  HIF296      0.0000
     17  C4C       26.0100   90.4020   52.2740 C.2   296  HIF296      0.0000
     18  C2A       29.8400   96.0790   50.6100 C.2   296  HIF296      0.0000
     19  CAA       29.8760   97.1740   49.5500 C.3   296  HIF296      0.0000
     20  C3A       30.5870   96.0220   51.7420 C.2   296  HIF296      0.0000
     21  CMA       31.6710   97.0100   52.1620 C.3   296  HIF296      0.0000
     22  CBA       28.6990   98.1340   49.6350 C.3   296  HIF296      0.0000
     23  CGA       28.6950   99.1300   48.4970 C.2   296  HIF296      0.0000
     24  O1A       29.7240   99.8120   48.3100 O.co2 296  HIF296      0.0000
     25  O2A       27.6680   99.2290   47.7920 O.co2 296  HIF296      0.0000
     26  C2B       30.9720   92.7710   55.5370 C.ar  296  HIF296      0.0000
     27  CMB       32.0870   93.4840   56.2930 C.3   296  HIF296      0.0000
     28  C3B       30.3660   91.5950   55.8860 C.ar  296  HIF296      0.0000
     29  CAB       30.6610   90.7920   56.9950 C.3   296  HIF296      0.0000
     30  CBB       31.9810   90.1970   57.2120 C.3   296  HIF296      0.0000
     31  C2C       26.5330   88.8090   53.9370 C.2   296  HIF296      0.0000
     32  CAC       27.1710   87.6080   53.4290 C.3   296  HIF296      0.0000
     33  CBC       27.9420   87.6580   52.1620 C.3   296  HIF296      0.0000
     34  CIF       25.9120   88.5230   55.4490 C.3   296  HIF296      0.0000
     35  C3C       25.3450   89.1790   52.9650 C.2   296  HIF296      0.0000
     36  OMC       24.3570   88.6150   52.7430 O.2   296  HIF296      0.0000
     37  C2D       25.6070   92.0910   48.8840 C.ar  296  HIF296      0.0000
     38  CMD       24.5790   91.2940   48.0870 C.3   296  HIF296      0.0000
     39  C3D       26.3300   93.1720   48.4610 C.ar  296  HIF296      0.0000
     40  CAD       26.2550   93.8440   47.0840 C.3   296  HIF296      0.0000
     41  CBD       25.3570   95.0760   47.1400 C.3   296  HIF296      0.0000
     42  CGD       25.2070   95.7740   45.8000 C.2   296  HIF296      0.0000
     43  O1D       24.5100   96.8120   45.7560 O.co2 296  HIF296      0.0000
     44  O2D       25.7740   95.2900   44.7940 O.co2 296  HIF296      0.0000
@<TRIPOS>BOND
     1    44    42   ar
     2    43    42   ar
     3    42    41    1
     4    40    41    1
     5    40    39    1
     6    25    23   ar
     7    38    37    1
     8    24    23   ar
     9    39    37   ar
    10    39     8   ar
    11    23    22    1
    12    37    15   ar
    13    19    22    1
    14    19    18    1
    15     8     7    2
    16     8     5   ar
    17     7     6    1
    18    15     5   ar
    19    15    16    2
    20     6    18    1
    21     6     2    2
    22    18    20    2
    23     5     1    1
    24    16    17    1
    25     2     1    1
    26     2    11    1
    27    20    21    1
    28    20    11    1
    29    33    32    1
    30     1     4    1
    31     1     3    1
    32    17     4    2
    33    17    35    1
    34    11    10    2
    35    36    35    1
    36     4    12    1
    37    35    31    2
    38    32    31    1
    39    10     9    1
    40     3     9   ar
    41     3    14   ar
    42    31    12    1
    43    31    34    1
    44    12    13    2
    45     9    26   ar
    46    14    13    1
    47    14    28   ar
    48    26    28   ar
    49    26    27    1
    50    28    29    1
    51    29    30    1
