@<TRIPOS>MOLECULE
1kol_NAD_A_1.pdb
 44 48 0 0 0
SMALL
GASTEIGER

@<TRIPOS>ATOM
      1  PA       -45.4030   34.2330   75.9940 P.3   1403  NAD1403     0.2189
      2  O1A      -45.3800   34.8730   74.6450 O.2   1403  NAD1403    -0.5170
      3  O2A      -46.7480   33.9050   76.5060 O.3   1403  NAD1403    -0.4371
      4  O5B      -44.4170   33.0080   76.0020 O.3   1403  NAD1403    -0.3112
      5  C5B      -44.5450   31.8390   76.8620 C.3   1403  NAD1403     0.1813
      6  C4B      -44.1730   30.6290   76.0380 C.3   1403  NAD1403     0.1821
      7  O4B      -44.1260   29.4840   76.9430 O.3   1403  NAD1403    -0.3135
      8  C3B      -45.1910   30.2510   74.9220 C.3   1403  NAD1403     0.2184
      9  O3B      -44.5370   30.2620   73.6520 O.3   1403  NAD1403    -0.2174
     10  C2B      -45.6910   28.8900   75.3470 C.3   1403  NAD1403     0.2570
     11  O2B      -46.0500   27.9940   74.2880 O.3   1403  NAD1403    -0.2130
     12  C1B      -44.5230   28.3520   76.1790 C.3   1403  NAD1403     0.3186
     13  N9A      -44.7960   27.2330   77.0730 N.pl3 1403  NAD1403    -0.1439
     14  C8A      -45.9470   26.8370   77.7000 C.3   1403  NAD1403     0.3377
     15  N7A      -45.7650   25.7410   78.4300 N.2   1403  NAD1403    -0.2095
     16  C5A      -44.4550   25.4040   78.2630 C.2   1403  NAD1403     0.2526
     17  C6A      -43.6640   24.3630   78.7810 C.2   1403  NAD1403     0.4393
     18  N6A      -44.1020   23.4000   79.6030 N.pl3 1403  NAD1403     0.2180
     19  N1A      -42.3650   24.3380   78.4120 N.2   1403  NAD1403     0.0021
     20  C2A      -41.8830   25.2960   77.5620 C.3   1403  NAD1403     0.5254
     21  N3A      -42.5280   26.3030   77.0350 N.2   1403  NAD1403    -0.0055
     22  C4A      -43.8290   26.3030   77.4240 C.2   1403  NAD1403     0.3518
     23  O3       -44.7020   35.2360   77.0450 O.3   1403  NAD1403    -0.2703
     24  PN       -43.3880   36.1130   77.0760 P.3   1403  NAD1403     0.2189
     25  O1N      -43.6390   37.4960   76.6430 O.3   1403  NAD1403    -0.4371
     26  O2N      -42.2850   35.4450   76.4050 O.2   1403  NAD1403    -0.5170
     27  O5D      -43.2140   36.1280   78.7080 O.3   1403  NAD1403    -0.3112
     28  C5D      -42.8260   34.8520   79.2850 C.3   1403  NAD1403     0.1813
     29  C4D      -43.1510   34.9040   80.7850 C.3   1403  NAD1403     0.1799
     30  O4D      -42.3370   35.9750   81.3530 O.3   1403  NAD1403    -0.3327
     31  C3D      -44.5970   35.3070   81.0870 C.3   1403  NAD1403     0.2158
     32  O3D      -45.0180   34.5550   82.2260 O.3   1403  NAD1403    -0.2175
     33  C2D      -44.4890   36.8010   81.3660 C.3   1403  NAD1403     0.2309
     34  O2D      -45.5620   37.2610   82.1800 O.3   1403  NAD1403    -0.2158
     35  C1D      -43.1770   36.7840   82.1950 C.3   1403  NAD1403     0.2263
     36  N1N      -42.5260   38.0880   82.2620 N.pl3 1403  NAD1403    -0.2787
     37  C2N      -41.8470   38.2900   83.4340 C.3   1403  NAD1403     0.1244
     38  C3N      -41.1240   39.4170   83.6240 C.2   1403  NAD1403     0.0544
     39  C7N      -40.3320   39.7120   84.9410 C.2   1403  NAD1403     0.2818
     40  O7N      -39.9140   40.8430   85.1280 O.2   1403  NAD1403    -0.2670
     41  N7N      -40.0960   38.6580   85.7270 N.am  1403  NAD1403    -0.0839
     42  C4N      -40.9260   40.4110   82.6330 C.2   1403  NAD1403     0.0033
     43  C5N      -41.5600   40.0530   81.4170 C.2   1403  NAD1403     0.0157
     44  C6N      -42.4110   38.9950   81.1910 C.2   1403  NAD1403     0.0633
@<TRIPOS>BOND
     1     9     8    1
     2    11    10    1
     3     2     1    2
     4     8    10    1
     5     8     6    1
     6    10    12    1
     7     1     4    1
     8     1     3    1
     9     1    23    1
    10     4     5    1
    11     6     5    1
    12     6     7    1
    13    12     7    1
    14    12    13    1
    15    26    24    2
    16    25    24    1
    17    21    22    2
    18    21    20    1
    19    23    24    1
    20    13    22    1
    21    13    14    1
    22    24    27    1
    23    22    16    1
    24    20    19    1
    25    14    15    1
    26    16    15    2
    27    16    17    1
    28    19    17    2
    29    27    28    1
    30    17    18    1
    31    28    29    1
    32    29    31    1
    33    29    30    1
    34    31    33    1
    35    31    32    1
    36    44    43    2
    37    44    36    1
    38    30    35    1
    39    33    34    1
    40    33    35    1
    41    43    42    1
    42    35    36    1
    43    36    37    1
    44    42    38    2
    45    37    38    1
    46    38    39    1
    47    39    40    2
    48    39    41   am
