@<TRIPOS>MOLECULE
1kor_ANP_A_1.pdb
 31 33 0 0 0
SMALL
GASTEIGER

@<TRIPOS>ATOM
      1  PG         3.6140   55.0460   72.7340 P.3   510  ANP510      0.4884
      2  O1G        4.6560   55.7590   73.5380 O.3   510  ANP510     -0.1240
      3  O2G        3.4470   53.5670   73.0520 O.3   510  ANP510     -0.1240
      4  O3G        2.2630   55.7590   72.7670 O.2   510  ANP510     -0.2331
      5  PB         3.3480   54.1820   69.9670 P.3   510  ANP510      0.4669
      6  O1B        1.8900   54.5030   70.2630 O.3   510  ANP510     -0.1253
      7  O2B        3.5550   52.7180   69.9950 O.2   510  ANP510     -0.2351
      8  N3B        4.0700   55.0710   71.0830 N.3   510  ANP510     -0.0163
      9  PA         2.6980   55.2670   67.0770 P.3   510  ANP510      0.2220
     10  O1A        2.4280   54.2420   65.9910 O.2   510  ANP510     -0.5170
     11  O2A        1.4720   56.0190   67.5610 O.3   510  ANP510     -0.4370
     12  O3A        3.4390   54.4960   68.3200 O.3   510  ANP510     -0.2360
     13  O5'        3.9300   56.1920   66.6950 O.3   510  ANP510     -0.3111
     14  C5'        4.0260   57.0480   67.7670 C.3   510  ANP510      0.1813
     15  C4'        5.2300   57.9130   67.6810 C.3   510  ANP510      0.1821
     16  O4'        4.8010   59.1620   67.1900 O.3   510  ANP510     -0.3135
     17  C3'        5.6450   58.2090   69.0260 C.3   510  ANP510      0.2184
     18  O3'        6.7870   57.4330   69.2520 O.3   510  ANP510     -0.2174
     19  C2'        5.9520   59.6740   69.0390 C.3   510  ANP510      0.2570
     20  O2'        7.2990   59.9900   68.8230 O.3   510  ANP510     -0.2130
     21  C1'        5.1240   60.3170   67.9550 C.3   510  ANP510      0.3186
     22  N9         3.8500   60.9910   68.4760 N.pl3 510  ANP510     -0.1439
     23  C8         2.5870   60.5260   68.2560 C.3   510  ANP510      0.3377
     24  N7         1.6700   61.3010   68.8110 N.2   510  ANP510     -0.2095
     25  C5         2.3450   62.2820   69.4010 C.2   510  ANP510      0.2526
     26  C6         1.8250   63.3900   70.1400 C.2   510  ANP510      0.4393
     27  N6         0.4740   63.5050   70.2860 N.pl3 510  ANP510      0.2180
     28  N1         2.7060   64.3170   70.6850 N.2   510  ANP510      0.0021
     29  C2         4.0550   64.1060   70.4740 C.3   510  ANP510      0.5254
     30  N3         4.5530   63.0520   69.7680 N.2   510  ANP510     -0.0055
     31  C4         3.7330   62.1140   69.2110 C.2   510  ANP510      0.3518
@<TRIPOS>BOND
     1    10     9    2
     2    13     9    1
     3    13    14    1
     4     9    11    1
     5     9    12    1
     6    16    15    1
     7    16    21    1
     8    15    14    1
     9    15    17    1
    10    21    22    1
    11    21    19    1
    12    23    22    1
    13    23    24    1
    14    12     5    1
    15    22    31    1
    16    24    25    2
    17    20    19    1
    18    17    19    1
    19    17    18    1
    20    31    25    1
    21    31    30    2
    22    25    26    1
    23    30    29    1
    24     5     7    2
    25     5     6    1
    26     5     8    1
    27    26    27    1
    28    26    28    2
    29    29    28    1
    30     8     1    1
    31     1     4    2
    32     1     3    1
    33     1     2    1
