@<TRIPOS>MOLECULE
1kor_ARG_A_1.pdb
 12 11 0 0 0
SMALL
GASTEIGER

@<TRIPOS>ATOM
      1  N         -0.7320   54.1310   57.2680 N.3   520  ARG520     -0.1208
      2  CA        -1.2660   55.4920   57.6430 C.3   520  ARG520      0.1944
      3  C         -0.4070   56.5900   57.0390 C.2   520  ARG520      0.3819
      4  O          0.5410   56.2400   56.3170 O.co2 520  ARG520     -0.2441
      5  CB        -1.1950   55.6550   59.1740 C.3   520  ARG520      0.0343
      6  CG        -0.1620   54.7740   59.8050 C.3   520  ARG520      0.0490
      7  CD        -0.3330   54.5290   61.2920 C.3   520  ARG520      0.2205
      8  NE         0.3750   55.4150   62.2270 N.pl3 520  ARG520     -0.0865
      9  CZ         0.7370   54.9980   63.4560 C.cat 520  ARG520      0.5346
     10  NH1       -0.0220   54.1310   64.1350 N.pl3 520  ARG520      0.1354
     11  NH2        1.8560   55.4300   64.0070 N.pl3 520  ARG520      0.1354
     12  OXT       -0.6760   57.7820   57.3000 O.co2 520  ARG520     -0.2441
@<TRIPOS>BOND
     1     4     3   ar
     2     3    12   ar
     3     3     2    1
     4     1     2    1
     5     2     5    1
     6     5     6    1
     7     6     7    1
     8     7     8    1
     9     8     9    2
    10     9    11    1
    11     9    10    1
