@<TRIPOS>MOLECULE
1kou_DHC_A_1.pdb
 12 12 0 0 0
SMALL
GASTEIGER

@<TRIPOS>ATOM
      1  C1         8.2700    9.1310   -7.1750 C.2   201  DHC201      0.2342
      2  O1         8.2050    9.3590   -8.3820 O.2   201  DHC201     -0.2831
      3  C2         9.5400    8.9150   -6.4470 C.2   201  DHC201      0.0451
      4  C3        10.6430    8.6270   -7.0820 C.2   201  DHC201     -0.0007
      5  C1'       12.0020    8.6250   -6.5450 C.2   201  DHC201     -0.0181
      6  C2'       13.0900    8.2610   -7.3260 C.3   201  DHC201      0.0982
      7  C3'       14.3960    8.2370   -6.8180 C.2   201  DHC201      0.2121
      8  C4'       14.6360    8.6690   -5.5080 C.2   201  DHC201      0.2121
      9  C5'       13.5370    9.0290   -4.7080 C.3   201  DHC201      0.0979
     10  C6'       12.2490    8.9090   -5.2170 C.2   201  DHC201     -0.0217
     11  O4'       15.7850    8.7000   -4.9630 O.2   201  DHC201     -0.2879
     12  O3'       15.3660    8.0910   -7.6150 O.2   201  DHC201     -0.2879
@<TRIPOS>BOND
     1     2     1    2
     2    12     7    2
     3     6     7    1
     4     6     5    1
     5     1     3    1
     6     4     5    1
     7     4     3    2
     8     7     8    1
     9     5    10    2
    10     8    11    2
    11     8     9    1
    12    10     9    1
