@<TRIPOS>MOLECULE
1kp2_ATP_A_1.pdb
 31 33 0 0 0
SMALL
GASTEIGER

@<TRIPOS>ATOM
      1  PG        32.9600   17.1690   37.6660 P.3   459  ATP459      0.5373
      2  O1G       33.2100   17.3130   36.2110 O.2   459  ATP459     -0.2221
      3  O2G       31.5750   16.7710   38.0220 O.3   459  ATP459     -0.1143
      4  O3G       34.0260   16.4380   38.3920 O.3   459  ATP459     -0.1143
      5  PB        32.3450   20.0970   37.7370 P.3   459  ATP459      0.2277
      6  O1B       32.6350   20.2750   36.2770 O.2   459  ATP459     -0.5168
      7  O2B       32.7410   21.2000   38.6600 O.3   459  ATP459     -0.4368
      8  O3B       33.0620   18.6880   38.2430 O.3   459  ATP459     -0.2258
      9  PA        29.4510   20.3250   37.2490 P.3   459  ATP459      0.2189
     10  O1A       29.6550   20.5630   35.7950 O.2   459  ATP459     -0.5170
     11  O2A       28.8790   21.4200   38.0660 O.3   459  ATP459     -0.4371
     12  O3A       30.8170   19.7910   37.9090 O.3   459  ATP459     -0.2700
     13  O5'       28.5370   19.0560   37.4360 O.3   459  ATP459     -0.3112
     14  C5'       28.7460   17.8220   36.7240 C.3   459  ATP459      0.1813
     15  C4'       27.4870   17.3980   36.0190 C.3   459  ATP459      0.1821
     16  O4'       26.4890   17.1680   37.0420 O.3   459  ATP459     -0.3135
     17  C3'       26.8750   18.4310   35.1040 C.3   459  ATP459      0.2184
     18  O3'       27.5240   18.3080   33.8420 O.3   459  ATP459     -0.2174
     19  C2'       25.4490   17.9540   35.0840 C.3   459  ATP459      0.2570
     20  O2'       25.2320   16.8320   34.2170 O.3   459  ATP459     -0.2130
     21  C1'       25.1790   17.4530   36.5260 C.3   459  ATP459      0.3186
     22  N9        24.5070   18.4790   37.3940 N.pl3 459  ATP459     -0.1439
     23  C8        25.0600   19.4550   38.2160 C.3   459  ATP459      0.3377
     24  N7        24.1950   20.2040   38.8520 N.2   459  ATP459     -0.2095
     25  C5        22.9720   19.6840   38.4190 C.2   459  ATP459      0.2526
     26  C6        21.6060   20.0220   38.7120 C.2   459  ATP459      0.4393
     27  N6        21.3040   21.0120   39.5540 N.pl3 459  ATP459      0.2180
     28  N1        20.6070   19.3080   38.1090 N.2   459  ATP459      0.0021
     29  C2        20.9140   18.3140   37.2670 C.3   459  ATP459      0.5254
     30  N3        22.1470   17.8880   36.9040 N.2   459  ATP459     -0.0055
     31  C4        23.1490   18.6340   37.5300 C.2   459  ATP459      0.3518
@<TRIPOS>BOND
     1    18    17    1
     2    20    19    1
     3    19    17    1
     4    19    21    1
     5    17    15    1
     6    10     9    2
     7    15    14    1
     8    15    16    1
     9     2     1    2
    10     6     5    2
    11    21    16    1
    12    21    22    1
    13    14    13    1
    14    30    29    1
    15    30    31    2
    16     9    13    1
    17     9    12    1
    18     9    11    1
    19    29    28    1
    20    22    31    1
    21    22    23    1
    22    31    25    1
    23     1     3    1
    24     1     8    1
    25     1     4    1
    26     5    12    1
    27     5     8    1
    28     5     7    1
    29    28    26    2
    30    23    24    1
    31    25    26    1
    32    25    24    2
    33    26    27    1
