@<TRIPOS>MOLECULE
1kp3_ATP_A_1.pdb
 31 33 0 0 0
SMALL
GASTEIGER

@<TRIPOS>ATOM
      1  PG        27.3210   22.3530   33.5350 P.3   457  ATP457      0.5373
      2  O1G       28.3370   23.2270   32.8820 O.3   457  ATP457     -0.1143
      3  O2G       26.9200   22.7820   34.9040 O.3   457  ATP457     -0.1143
      4  O3G       26.2000   21.9260   32.6540 O.2   457  ATP457     -0.2221
      5  PB        29.3210   20.6400   34.8480 P.3   457  ATP457      0.2277
      6  O1B       30.1090   21.8880   35.0960 O.3   457  ATP457     -0.4368
      7  O2B       30.0440   19.4190   34.3620 O.2   457  ATP457     -0.5168
      8  O3B       28.1160   20.9820   33.7900 O.3   457  ATP457     -0.2258
      9  PA        28.7060   20.1920   37.6820 P.3   457  ATP457      0.2189
     10  O1A       30.1270   19.8410   37.9760 O.2   457  ATP457     -0.5170
     11  O2A       28.0980   21.3680   38.3450 O.3   457  ATP457     -0.4371
     12  O3A       28.4800   20.3070   36.1120 O.3   457  ATP457     -0.2700
     13  O5'       27.7990   18.9390   37.9720 O.3   457  ATP457     -0.3112
     14  C5'       28.0150   17.6650   37.3430 C.3   457  ATP457      0.1813
     15  C4'       26.7750   17.2130   36.6080 C.3   457  ATP457      0.1821
     16  O4'       25.7600   17.0360   37.6110 O.3   457  ATP457     -0.3135
     17  C3'       26.1860   18.2110   35.6270 C.3   457  ATP457      0.2184
     18  O3'       26.8470   18.0300   34.3770 O.3   457  ATP457     -0.2174
     19  C2'       24.7510   17.7610   35.6060 C.3   457  ATP457      0.2570
     20  O2'       24.5090   16.6490   34.7590 O.3   457  ATP457     -0.2130
     21  C1'       24.4600   17.2970   37.0560 C.3   457  ATP457      0.3186
     22  N9        23.7550   18.3460   37.8670 N.pl3 457  ATP457     -0.1439
     23  C8        24.2700   19.3570   38.6620 C.3   457  ATP457      0.3377
     24  N7        23.3720   20.1200   39.2430 N.2   457  ATP457     -0.2095
     25  C5        22.1730   19.5700   38.7970 C.2   457  ATP457      0.2526
     26  C6        20.8000   19.9040   39.0340 C.2   457  ATP457      0.4393
     27  N6        20.4630   20.9230   39.8170 N.pl3 457  ATP457      0.2180
     28  N1        19.8330   19.1580   38.4380 N.2   457  ATP457      0.0021
     29  C2        20.1750   18.1320   37.6430 C.3   457  ATP457      0.5254
     30  N3        21.4200   17.7060   37.3300 N.2   457  ATP457     -0.0055
     31  C4        22.3910   18.4880   37.9560 C.2   457  ATP457      0.3518
@<TRIPOS>BOND
     1     4     1    2
     2     2     1    1
     3     1     8    1
     4     1     3    1
     5     8     5    1
     6     7     5    2
     7    18    17    1
     8    20    19    1
     9     5     6    1
    10     5    12    1
    11    19    17    1
    12    19    21    1
    13    17    15    1
    14    12     9    1
    15    15    14    1
    16    15    16    1
    17    21    16    1
    18    21    22    1
    19    30    29    1
    20    30    31    2
    21    14    13    1
    22    29    28    1
    23     9    13    1
    24     9    10    2
    25     9    11    1
    26    22    31    1
    27    22    23    1
    28    31    25    1
    29    28    26    2
    30    23    24    1
    31    25    26    1
    32    25    24    2
    33    26    27    1
