@<TRIPOS>MOLECULE
1kp3_CIR_A_1.pdb
 12 11 0 0 0
SMALL
GASTEIGER

@<TRIPOS>ATOM
      1  C1        33.5150   16.2550   46.4710 C.2   458  CIR458      0.3819
      2  O1        33.8940   15.4180   45.6270 O.co2 458  CIR458     -0.2441
      3  O2        32.5450   16.1030   47.2120 O.co2 458  CIR458     -0.2441
      4  C2        34.2890   17.5480   46.5900 C.3   458  CIR458      0.1944
      5  N2        35.7020   17.2840   46.2050 N.3   458  CIR458     -0.1208
      6  C3        33.6560   18.5910   45.6640 C.3   458  CIR458      0.0324
      7  C4        33.1620   18.0210   44.3440 C.3   458  CIR458      0.0256
      8  C5        32.3120   19.0270   43.5830 C.3   458  CIR458      0.1169
      9  N6        32.9290   20.3500   43.5410 N.am  458  CIR458     -0.1859
     10  C7        33.2920   20.9820   42.4230 C.2   458  CIR458      0.3589
     11  O7        33.6330   22.1790   42.4450 O.2   458  CIR458     -0.2474
     12  N8        33.2750   20.2720   41.2900 N.am  458  CIR458     -0.0679
@<TRIPOS>BOND
     1    12    10   am
     2    10    11    2
     3    10     9   am
     4     9     8    1
     5     8     7    1
     6     7     6    1
     7     2     1   ar
     8     6     4    1
     9     5     4    1
    10     1     4    1
    11     1     3   ar
