@<TRIPOS>MOLECULE
1kp8_ATP_A_1.pdb
 31 33 0 0 0
SMALL
GASTEIGER

@<TRIPOS>ATOM
      1  PG       123.7850   22.6420    0.4130 P.3     1  ATP1        0.5373
      2  O1G      123.0280   21.5030    1.0260 O.3     1  ATP1       -0.1143
      3  O2G      123.0950   23.4450   -0.6460 O.2     1  ATP1       -0.2221
      4  O3G      125.1810   22.2650    0.0790 O.3     1  ATP1       -0.1143
      5  PB       125.2840   24.3270    2.1950 P.3     1  ATP1        0.2277
      6  O1B      126.1930   24.6890    1.0850 O.2     1  ATP1       -0.5168
      7  O2B      124.9600   25.3670    3.2200 O.3     1  ATP1       -0.4368
      8  O3B      123.9080   23.7620    1.5670 O.3     1  ATP1       -0.2258
      9  PA       127.2850   22.2160    2.9330 P.3     1  ATP1        0.2189
     10  O1A      127.0970   20.9600    3.6510 O.3     1  ATP1       -0.4371
     11  O2A      127.7400   22.1210    1.5270 O.2     1  ATP1       -0.5170
     12  O3A      125.9070   23.0950    3.0590 O.3     1  ATP1       -0.2700
     13  O5'      128.3750   23.0000    3.7920 O.3     1  ATP1       -0.3112
     14  C5'      128.8900   24.2730    3.4450 C.3     1  ATP1        0.1813
     15  C4'      129.5500   24.9380    4.6310 C.3     1  ATP1        0.1821
     16  O4'      130.6210   24.1250    5.1780 O.3     1  ATP1       -0.3135
     17  C3'      130.1470   26.2860    4.2770 C.3     1  ATP1        0.2184
     18  O3'      129.9500   27.1280    5.4070 O.3     1  ATP1       -0.2174
     19  C2'      131.6280   25.8730    4.0830 C.3     1  ATP1        0.2570
     20  O2'      132.6090   26.9390    4.2060 O.3     1  ATP1       -0.2130
     21  C1'      131.8080   24.8980    5.2220 C.3     1  ATP1        0.3186
     22  N9       133.0390   24.0800    5.1610 N.pl3   1  ATP1       -0.1439
     23  C8       133.6000   23.3390    4.1370 C.3     1  ATP1        0.3377
     24  N7       134.7220   22.7360    4.4590 N.2     1  ATP1       -0.2095
     25  C5       134.9210   23.1040    5.7880 C.2     1  ATP1        0.2526
     26  C6       135.9230   22.8190    6.7560 C.2     1  ATP1        0.4393
     27  N6       136.9900   22.0570    6.5420 N.pl3   1  ATP1        0.2180
     28  N1       135.7850   23.3700    8.0000 N.2     1  ATP1        0.0021
     29  C2       134.7370   24.1430    8.2790 C.3     1  ATP1        0.5254
     30  N3       133.7370   24.4800    7.4510 N.2     1  ATP1       -0.0055
     31  C4       133.8920   23.9190    6.2140 C.2     1  ATP1        0.3518
@<TRIPOS>BOND
     1     3     1    2
     2     4     1    1
     3     1     2    1
     4     1     8    1
     5     6     5    2
     6    11     9    2
     7     8     5    1
     8     5    12    1
     9     5     7    1
    10     9    12    1
    11     9    10    1
    12     9    13    1
    13    14    13    1
    14    14    15    1
    15    19    20    1
    16    19    17    1
    17    19    21    1
    18    23    24    1
    19    23    22    1
    20    17    15    1
    21    17    18    1
    22    24    25    2
    23    15    16    1
    24    22    21    1
    25    22    31    1
    26    16    21    1
    27    25    31    1
    28    25    26    1
    29    31    30    2
    30    27    26    1
    31    26    28    2
    32    30    29    1
    33    28    29    1
