@<TRIPOS>MOLECULE
1kpe_ADW_B_1.pdb
 27 29 0 0 0
SMALL
GASTEIGER

@<TRIPOS>ATOM
      1  WB        43.6190   31.9590   48.9970 W     127  ADW127      0.0000
      2  O1B       44.3360   33.0580   50.0860 O.3   127  ADW127      0.0000
      3  O2B       44.0940   32.3520   47.3960 O.3   127  ADW127      0.0000
      4  O3B       44.1620   30.3900   49.3960 O.3   127  ADW127      0.0000
      5  WA        40.0740   32.8310   50.0720 W     127  ADW127      0.0000
      6  O1A       39.0550   31.6720   49.3880 O.3   127  ADW127      0.0000
      7  O2A       40.3110   34.3310   49.2900 O.3   127  ADW127      0.0000
      8  O3A       41.8130   32.0800   49.1730 O.3   127  ADW127      0.0000
      9  O5'       40.7530   32.4910   51.6260 O.3   127  ADW127      0.0000
     10  C5'       40.7280   31.4780   52.4720 C.3   127  ADW127      0.0000
     11  C4'       41.2630   32.3980   53.6270 C.3   127  ADW127      0.0000
     12  O4'       40.7500   31.4700   54.6610 O.3   127  ADW127      0.0000
     13  C3'       42.8330   32.1540   53.5050 C.3   127  ADW127      0.0000
     14  O3'       43.6220   33.3300   53.8060 O.3   127  ADW127      0.0000
     15  C2'       43.0830   31.0040   54.5680 C.3   127  ADW127      0.0000
     16  O2'       44.3270   31.0560   55.2780 O.3   127  ADW127      0.0000
     17  C1'       41.8850   31.1910   55.5480 C.3   127  ADW127      0.0000
     18  N9        41.4750   30.0590   56.4300 N.pl3 127  ADW127      0.5000
     19  C8        41.1420   28.7740   56.0390 C.3   127  ADW127      0.0000
     20  N7        40.7880   27.9540   57.0260 N.2   127  ADW127      0.0000
     21  C5        40.8990   28.8200   58.1560 C.2   127  ADW127      0.0000
     22  C6        40.7100   28.5870   59.6100 C.2   127  ADW127      0.0000
     23  N6        40.5010   27.3450   60.0860 N.pl3 127  ADW127      0.5000
     24  N1        40.7650   29.7040   60.3750 N.2   127  ADW127      0.5000
     25  C2        41.2440   30.8930   59.9500 C.3   127  ADW127      0.0000
     26  N3        41.3330   31.2320   58.6360 N.2   127  ADW127      0.5000
     27  C4        41.2370   30.1100   57.7980 C.2   127  ADW127      0.0000
@<TRIPOS>BOND
     1     3     1    1
     2     1     8    1
     3     1     4    1
     4     1     2    1
     5     8     5    1
     6     7     5    1
     7     6     5    1
     8     5     9    1
     9     9    10    1
    10    10    11    1
    11    13    11    1
    12    13    14    1
    13    13    15    1
    14    11    12    1
    15    15    16    1
    16    15    17    1
    17    12    17    1
    18    17    18    1
    19    19    18    1
    20    19    20    1
    21    18    27    1
    22    20    21    2
    23    27    21    1
    24    27    26    2
    25    21    22    1
    26    26    25    1
    27    22    23    1
    28    22    24    2
    29    25    24    1
