@<TRIPOS>MOLECULE
1kpf_AMP_A_1.pdb
 23 25 0 0 0
SMALL
GASTEIGER

@<TRIPOS>ATOM
      1  P         13.3010    8.7680   10.5910 P.3   200  AMP200      0.5327
      2  O1P       14.4420    9.0450    9.7030 O.2   200  AMP200     -0.2224
      3  O2P       13.3220    7.3880   11.1670 O.3   200  AMP200     -0.1145
      4  O3P       11.9560    9.1760   10.0120 O.3   200  AMP200     -0.1145
      5  O5'       13.5830    9.7760   11.8450 O.3   200  AMP200     -0.2675
      6  C5'       12.6470    9.8190   12.9640 C.3   200  AMP200      0.1860
      7  C4'       11.7550   11.0530   12.7000 C.3   200  AMP200      0.1823
      8  O4'       10.7670   11.1650   13.7880 O.3   200  AMP200     -0.3135
      9  C3'       12.6700   12.4610   12.6860 C.3   200  AMP200      0.2184
     10  O3'       12.1150   13.2920   11.5540 O.3   200  AMP200     -0.2174
     11  C2'       12.3000   13.0480   14.1470 C.3   200  AMP200      0.2570
     12  O2'       12.1240   14.4480   14.1570 O.3   200  AMP200     -0.2130
     13  C1'       10.8060   12.4580   14.3970 C.3   200  AMP200      0.3186
     14  N9        10.5530   12.2850   15.8410 N.pl3 200  AMP200     -0.1439
     15  C8        11.3730   11.6590   16.7880 C.3   200  AMP200      0.3377
     16  N7        10.9320   11.6420   18.0630 N.2   200  AMP200     -0.2095
     17  C5         9.7310   12.3380   17.8890 C.2   200  AMP200      0.2526
     18  C6         8.7060   12.6060   18.8050 C.2   200  AMP200      0.4393
     19  N6         8.9030   12.3110   20.1410 N.pl3 200  AMP200      0.2180
     20  N1         7.5690   13.1660   18.2640 N.2   200  AMP200      0.0021
     21  C2         7.4550   13.4810   16.9720 C.3   200  AMP200      0.5254
     22  N3         8.3890   13.2990   16.0380 N.2   200  AMP200     -0.0055
     23  C4         9.4820   12.7210   16.5500 C.2   200  AMP200      0.3518
@<TRIPOS>BOND
     1     2     1    2
     2     4     1    1
     3     1     3    1
     4     1     5    1
     5    10     9    1
     6     5     6    1
     7     9     7    1
     8     9    11    1
     9     7     6    1
    10     7     8    1
    11     8    13    1
    12    11    12    1
    13    11    13    1
    14    13    14    1
    15    14    23    1
    16    14    15    1
    17    22    23    2
    18    22    21    1
    19    23    17    1
    20    15    16    1
    21    21    20    1
    22    17    16    2
    23    17    18    1
    24    20    18    2
    25    18    19    1
