@<TRIPOS>MOLECULE
1kpg_SAH_A_1.pdb
 26 28 0 0 0
SMALL
GASTEIGER

@<TRIPOS>ATOM
      1  N         40.5010   14.6770   23.3220 N.3   1900  SAH1900    -0.1208
      2  CA        41.7050   14.1330   22.6880 C.3   1900  SAH1900     0.1952
      3  CB        41.3730   13.1890   21.5180 C.3   1900  SAH1900     0.0422
      4  CG        40.5440   13.7630   20.3440 C.3   1900  SAH1900     0.0597
      5  SD        40.2640   12.5620   19.0140 S.3   1900  SAH1900    -0.1375
      6  C         42.6160   15.2540   22.1770 C.2   1900  SAH1900     0.3819
      7  O         42.1340   16.4020   22.0800 O.co2 1900  SAH1900    -0.2441
      8  OXT       43.7970   14.9720   21.8670 O.co2 1900  SAH1900    -0.2441
      9  C5'       38.5160   12.0960   19.2290 C.3   1900  SAH1900     0.0899
     10  C4'       38.3560   11.2540   20.4880 C.3   1900  SAH1900     0.1630
     11  O4'       36.9890   11.1120   20.9570 O.3   1900  SAH1900    -0.3153
     12  C3'       38.9080    9.8360   20.3540 C.3   1900  SAH1900     0.2168
     13  O3'       39.6870    9.5410   21.5280 O.3   1900  SAH1900    -0.2175
     14  C2'       37.6590    8.9850   20.2590 C.3   1900  SAH1900     0.2569
     15  O2'       37.9220    7.6390   20.6460 O.3   1900  SAH1900    -0.2130
     16  C1'       36.7460    9.7110   21.1840 C.3   1900  SAH1900     0.3185
     17  N9        35.3110    9.4020   21.0520 N.pl3 1900  SAH1900    -0.1439
     18  C8        34.4030    9.4960   19.8690 C.3   1900  SAH1900     0.3377
     19  N7        33.1780    9.1520   20.1050 N.2   1900  SAH1900    -0.2095
     20  C5        33.1980    8.8050   21.4760 C.2   1900  SAH1900     0.2526
     21  C6        32.1760    8.3440   22.3690 C.2   1900  SAH1900     0.4393
     22  N6        30.9010    8.1560   21.9800 N.pl3 1900  SAH1900     0.2180
     23  N1        32.5250    8.0900   23.6750 N.2   1900  SAH1900     0.0021
     24  C2        33.7990    8.2750   24.0830 C.3   1900  SAH1900     0.5254
     25  N3        34.8440    8.7010   23.3530 N.2   1900  SAH1900    -0.0055
     26  C4        34.4790    8.9510   22.0480 C.2   1900  SAH1900     0.3518
@<TRIPOS>BOND
     1     5     9    1
     2     5     4    1
     3     9    10    1
     4    18    19    1
     5    18    17    1
     6    19    20    2
     7    14    12    1
     8    14    15    1
     9    14    16    1
    10     4     3    1
    11    12    10    1
    12    12    13    1
    13    10    11    1
    14    11    16    1
    15    17    16    1
    16    17    26    1
    17    20    26    1
    18    20    21    1
    19     3     2    1
    20     8     6   ar
    21    22    21    1
    22    26    25    2
    23     7     6   ar
    24     6     2    1
    25    21    23    2
    26     2     1    1
    27    25    24    1
    28    23    24    1
