@<TRIPOS>MOLECULE
1kpg_16A_A_1.pdb
 20 19 0 0 0
SMALL
GASTEIGER

@<TRIPOS>ATOM
      1  C1        40.8800   18.7160   11.8620 C.3   1901  16A1901     0.0000
      2  C2        39.5440   18.1150   11.4190 C.3   1901  16A1901     0.0000
      3  C3        38.6930   19.1390   10.6510 C.3   1901  16A1901     0.0000
      4  C4        37.3250   18.6330   10.1730 C.3   1901  16A1901     0.0000
      5  C5        36.5670   19.7270    9.3990 C.3   1901  16A1901     0.0000
      6  C6        35.1690   19.3420    8.8720 C.3   1901  16A1901     0.0000
      7  C7        34.9590   18.0460    8.0410 C.3   1901  16A1901     0.0000
      8  C8        34.0400   16.8970    8.5250 C.3   1901  16A1901     0.0000
      9  C9        33.0210   17.1230    9.6690 C.3   1901  16A1901     0.0000
     10  C10       33.5340   16.7410   11.0540 C.3   1901  16A1901     0.0000
     11  C11       33.3900   15.2730   11.5330 C.3   1901  16A1901    -0.0000
     12  C12       34.5820   14.5330   12.1900 C.3   1901  16A1901    -0.0000
     13  C13       35.5280   15.3650   13.0870 C.3   1901  16A1901    -0.0001
     14  C14       36.6740   14.5570   13.7010 C.3   1901  16A1901    -0.0021
     15  C15       37.6540   15.5450   14.3620 C.3   1901  16A1901    -0.0223
     16  C16       38.8770   14.7810   14.9200 C.3   1901  16A1901    -0.0733
     17  N1        39.9930   15.3990   15.6300 N.4   1901  16A1901     0.3857
     18  C17       40.9330   14.2510   15.9060 C.3   1901  16A1901    -0.0960
     19  C18       40.7690   16.4310   14.8290 C.3   1901  16A1901    -0.0960
     20  C19       39.5600   15.9270   16.9820 C.3   1901  16A1901    -0.0960
@<TRIPOS>BOND
     1     7     8    1
     2     7     6    1
     3     8     9    1
     4     6     5    1
     5     5     4    1
     6     9    10    1
     7     4     3    1
     8     3     2    1
     9    10    11    1
    10     2     1    1
    11    11    12    1
    12    12    13    1
    13    13    14    1
    14    14    15    1
    15    15    16    1
    16    19    17    1
    17    16    17    1
    18    17    18    1
    19    17    20    1
