@<TRIPOS>MOLECULE
1kph_SAH_A_1.pdb
 24 25 0 0 0
SMALL
GASTEIGER

@<TRIPOS>ATOM
      1  N          3.2870   22.9220  128.5360 N.3   1900  SAH1900    -0.1245
      2  CA         4.5030   23.5230  129.0830 C.3   1900  SAH1900     0.1561
      3  CB         4.1850   24.4720  130.2580 C.3   1900  SAH1900     0.0270
      4  CG         3.2600   23.9670  131.3880 C.3   1900  SAH1900     0.0020
      5  C          5.4920   22.4420  129.5530 C.2   1900  SAH1900     0.2260
      6  OXT        6.6420   22.7890  129.8760 O.2   1900  SAH1900    -0.2867
      7  C5'        1.2720   25.6810  132.3950 C.3   1900  SAH1900     0.0350
      8  C4'        1.1410   26.4890  131.1110 C.3   1900  SAH1900     0.1524
      9  O4'       -0.2240   26.5510  130.6150 O.3   1900  SAH1900    -0.3162
     10  C3'        1.6110   27.9340  131.2630 C.3   1900  SAH1900     0.2159
     11  O3'        2.4190   28.2900  130.1100 O.3   1900  SAH1900    -0.2175
     12  C2'        0.3250   28.7210  131.3260 C.3   1900  SAH1900     0.2569
     13  O2'        0.4980   30.0800  130.9190 O.3   1900  SAH1900    -0.2130
     14  C1'       -0.5680   27.9450  130.4190 C.3   1900  SAH1900     0.3185
     15  N9        -1.9960   28.1780  130.6580 N.pl3 1900  SAH1900    -0.1439
     16  C8        -2.7300   28.1270  131.8030 C.3   1900  SAH1900     0.3377
     17  N7        -3.9970   28.3810  131.7020 N.2   1900  SAH1900    -0.2095
     18  C5        -4.1310   28.6290  130.3360 C.2   1900  SAH1900     0.2526
     19  C6        -5.3250   28.9980  129.4260 C.2   1900  SAH1900     0.4393
     20  N6        -6.5770   29.1520  129.8860 N.pl3 1900  SAH1900     0.2180
     21  N1        -5.0520   29.1670  128.0900 N.2   1900  SAH1900     0.0021
     22  C2        -3.7790   29.0060  127.6370 C.3   1900  SAH1900     0.5254
     23  N3        -2.6610   28.6850  128.3330 N.2   1900  SAH1900    -0.0055
     24  C4        -2.9140   28.5100  129.6860 C.2   1900  SAH1900     0.3518
@<TRIPOS>BOND
     1    22    21    1
     2    22    23    1
     3    21    19    2
     4    23    24    2
     5     1     2    1
     6     2     5    1
     7     2     3    1
     8    19    20    1
     9    19    18    1
    10     5     6    2
    11    24    18    1
    12    24    15    1
    13    11    10    1
    14     3     4    1
    15    18    17    2
    16    14     9    1
    17    14    15    1
    18    14    12    1
    19     9     8    1
    20    15    16    1
    21    13    12    1
    22     8    10    1
    23     8     7    1
    24    10    12    1
    25    17    16    1
