@<TRIPOS>MOLECULE
1kph_10A_A_1.pdb
 23 22 0 0 0
SMALL
GASTEIGER

@<TRIPOS>ATOM
      1  C1        -5.9420   20.2680  144.4810 C.3   1901  10A1901     0.0000
      2  C2        -5.5220   21.5790  143.8070 C.3   1901  10A1901     0.0000
      3  C3        -4.5100   21.2960  142.6910 C.3   1901  10A1901     0.0000
      4  C4        -3.9850   22.5280  141.9390 C.3   1901  10A1901     0.0000
      5  C5        -2.9910   22.0230  140.8830 C.3   1901  10A1901     0.0000
      6  C6        -2.2900   23.1100  140.0540 C.3   1901  10A1901     0.0000
      7  C7        -1.3330   22.3440  139.1270 C.3   1901  10A1901     0.0001
      8  C8        -0.3890   23.2200  138.2990 C.3   1901  10A1901     0.0017
      9  C9         0.5370   22.2860  137.4900 C.3   1901  10A1901     0.0200
     10  C10        1.6400   23.0950  136.8080 C.3   1901  10A1901     0.0757
     11  N1         2.8430   22.4310  136.1180 N.pl3 1901  10A1901    -0.3519
     12  C11        3.7430   23.5630  135.6660 C.3   1901  10A1901     0.0960
     13  C12        2.4250   21.6880  134.8740 C.3   1901  10A1901     0.0960
     14  C13        3.6500   21.4260  136.9550 C.2   1901  10A1901     0.0419
     15  C14        4.2840   21.7910  138.3340 C.2   1901  10A1901    -0.0118
     16  C15        4.7490   20.6070  139.2160 C.3   1901  10A1901     0.0273
     17  C16        3.7030   19.5820  139.7140 C.3   1901  10A1901     0.0047
     18  C17        2.6660   20.1790  140.6850 C.3   1901  10A1901     0.0003
     19  C18        1.6550   19.1430  141.1940 C.3   1901  10A1901     0.0000
     20  C19        0.6610   19.7980  142.1630 C.3   1901  10A1901     0.0000
     21  C20       -0.3070   18.7310  142.6990 C.3   1901  10A1901     0.0000
     22  C21       -1.2970   19.3250  143.7040 C.3   1901  10A1901     0.0000
     23  C22       -2.2060   18.2050  144.2110 C.3   1901  10A1901     0.0000
@<TRIPOS>BOND
     1    13    11    1
     2    12    11    1
     3    11    10    1
     4    11    14    1
     5    10     9    1
     6    14    15    2
     7     9     8    1
     8     8     7    1
     9    15    16    1
    10     7     6    1
    11    16    17    1
    12    17    18    1
    13     6     5    1
    14    18    19    1
    15     5     4    1
    16    19    20    1
    17     4     3    1
    18    20    21    1
    19     3     2    1
    20    21    22    1
    21    22    23    1
    22     2     1    1
