@<TRIPOS>MOLECULE
1kpi_10A_A_1.pdb
 23 22 0 0 0
SMALL
GASTEIGER

@<TRIPOS>ATOM
      1  C1        91.3660   31.1040   22.9310 C.3   901  10A901      0.0000
      2  C2        92.7470   31.6960   22.6220 C.3   901  10A901      0.0000
      3  C3        92.7210   32.2740   21.2090 C.3   901  10A901      0.0000
      4  C4        94.0190   32.9150   20.7080 C.3   901  10A901      0.0000
      5  C5        93.6840   33.3460   19.2790 C.3   901  10A901     -0.0000
      6  C6        94.8590   33.9640   18.5180 C.3   901  10A901     -0.0000
      7  C7        94.3100   34.1570   17.1040 C.3   901  10A901     -0.0001
      8  C8        95.3910   34.5300   16.0880 C.3   901  10A901     -0.0021
      9  C9        94.6520   34.4760   14.7420 C.3   901  10A901     -0.0223
     10  C10       95.6500   34.5170   13.5960 C.3   901  10A901     -0.0732
     11  N1        95.2310   34.2020   12.1550 N.4   901  10A901      0.3871
     12  C11       96.5210   34.2160   11.3590 C.3   901  10A901     -0.0959
     13  C12       94.3330   35.2810   11.5870 C.3   901  10A901     -0.0959
     14  C13       94.4750   32.8980   11.8750 C.3   901  10A901     -0.0732
     15  C14       94.9940   31.4810   12.2580 C.3   901  10A901     -0.0223
     16  C15       93.9570   30.3610   11.9850 C.3   901  10A901     -0.0021
     17  C16       92.7010   30.3340   12.8880 C.3   901  10A901     -0.0001
     18  C17       92.9910   29.9730   14.3630 C.3   901  10A901     -0.0000
     19  C18       91.7020   30.0230   15.1870 C.3   901  10A901     -0.0000
     20  C19       92.0200   29.6380   16.6280 C.3   901  10A901      0.0000
     21  C20       90.7450   29.6820   17.4750 C.3   901  10A901      0.0000
     22  C21       91.0980   29.2350   18.8950 C.3   901  10A901      0.0000
     23  C22       89.8520   29.2980   19.7760 C.3   901  10A901      0.0000
@<TRIPOS>BOND
     1    12    11    1
     2    13    11    1
     3    14    11    1
     4    14    15    1
     5    16    15    1
     6    16    17    1
     7    11    10    1
     8    17    18    1
     9    10     9    1
    10    18    19    1
    11     9     8    1
    12    19    20    1
    13     8     7    1
    14    20    21    1
    15     7     6    1
    16    21    22    1
    17     6     5    1
    18    22    23    1
    19     5     4    1
    20     4     3    1
    21     3     2    1
    22     2     1    1
