@<TRIPOS>MOLECULE
1kpi_SAH_A_1.pdb
 26 28 0 0 0
SMALL
GASTEIGER

@<TRIPOS>ATOM
      1  N         95.9590   40.1080    7.3070 N.3   900  SAH900     -0.1208
      2  CA        96.8710   39.0920    6.7780 C.3   900  SAH900      0.1952
      3  CB        97.7100   38.4040    7.8820 C.3   900  SAH900      0.0422
      4  CG        97.0190   38.0300    9.2080 C.3   900  SAH900      0.0597
      5  SD        98.1420   37.2120   10.3700 S.3   900  SAH900     -0.1375
      6  C         96.1050   38.0240    5.9810 C.2   900  SAH900      0.3819
      7  O         94.8560   38.0450    6.0190 O.co2 900  SAH900     -0.2441
      8  OXT       96.7650   37.1750    5.3270 O.co2 900  SAH900     -0.2441
      9  C5'       98.2410   38.4490   11.7110 C.3   900  SAH900      0.0899
     10  C4'       99.0120   39.6870   11.2630 C.3   900  SAH900      0.1630
     11  O4'       98.8390   40.8370   12.1320 O.3   900  SAH900     -0.3153
     12  C3'      100.5220   39.4570   11.1440 C.3   900  SAH900      0.2168
     13  O3'      101.0000   39.9450    9.8650 O.3   900  SAH900     -0.2175
     14  C2'      101.1000   40.2220   12.3160 C.3   900  SAH900      0.2569
     15  O2'      102.4380   40.6480   12.0460 O.3   900  SAH900     -0.2130
     16  C1'      100.1420   41.3560   12.4750 C.3   900  SAH900      0.3185
     17  N9       100.1250   41.9660   13.8160 N.pl3 900  SAH900     -0.1439
     18  C8        99.9810   41.4140   15.0480 C.3   900  SAH900      0.3377
     19  N7        99.9990   42.2200   16.0710 N.2   900  SAH900     -0.2095
     20  C5       100.1720   43.4510   15.4640 C.2   900  SAH900      0.2526
     21  C6       100.2870   44.8970   15.9990 C.2   900  SAH900      0.4393
     22  N6       100.2230   45.2070   17.3090 N.pl3 900  SAH900      0.2180
     23  N1       100.4560   45.8820   15.0610 N.2   900  SAH900      0.0021
     24  C2       100.5170   45.5530   13.7380 C.3   900  SAH900      0.5254
     25  N3       100.4310   44.3340   13.1550 N.2   900  SAH900     -0.0055
     26  C4       100.2570   43.3200   14.0830 C.2   900  SAH900      0.3518
@<TRIPOS>BOND
     1     8     6   ar
     2     6     7   ar
     3     6     2    1
     4     2     1    1
     5     2     3    1
     6     3     4    1
     7     4     5    1
     8    13    12    1
     9     5     9    1
    10    12    10    1
    11    12    14    1
    12    10     9    1
    13    10    11    1
    14    15    14    1
    15    11    16    1
    16    14    16    1
    17    16    17    1
    18    25    24    1
    19    25    26    2
    20    24    23    1
    21    17    26    1
    22    17    18    1
    23    26    20    1
    24    18    19    1
    25    23    21    2
    26    20    21    1
    27    20    19    2
    28    21    22    1
