@<TRIPOS>MOLECULE
1kpm_VIT_A_1.pdb
 31 31 0 0 0
SMALL
GASTEIGER

@<TRIPOS>ATOM
      1  C1         6.4100   15.4090   39.0000 C.3   401  VIT401      0.0000
      2  C2        15.6250   22.8830   46.6720 C.ar  401  VIT401      0.0157
      3  C3        15.2380   22.6240   45.3140 C.ar  401  VIT401      0.0107
      4  C4        16.1790   22.1020   44.3810 C.ar  401  VIT401      0.1297
      5  C5        17.5320   21.8290   44.7840 C.ar  401  VIT401      0.0109
      6  C6        17.9320   22.0880   46.1540 C.ar  401  VIT401      0.0157
      7  C7        16.9750   22.6150   47.0900 C.ar  401  VIT401      0.1873
      8  C8        14.6190   23.3940   47.6800 C.3   401  VIT401      0.0341
      9  O1        15.7370   21.8570   43.0440 O.3   401  VIT401     -0.4832
     10  C9        14.8120   22.7590   42.2560 C.3   401  VIT401      0.1336
     11  C10       13.7770   22.8900   44.7740 C.3   401  VIT401      0.0328
     12  C11       13.5950   23.2010   43.2290 C.3   401  VIT401      0.0448
     13  C12       18.4970   21.3400   43.7060 C.3   401  VIT401      0.0340
     14  C13       19.3070   21.7440   46.3150 C.3   401  VIT401      0.0341
     15  O2        17.2020   22.8260   48.4770 O.3   401  VIT401     -0.2873
     16  C14       14.8550   23.9000   41.2740 C.3   401  VIT401      0.0436
     17  C15       13.6530   21.3680   42.0150 C.3   401  VIT401      0.0436
     18  C16       12.5960   19.8320   41.2430 C.3   401  VIT401      0.0000
     19  C17       12.5480   18.9170   39.5940 C.3   401  VIT401      0.0000
     20  C18       11.1700   19.1320   38.4550 C.3   401  VIT401      0.0000
     21  C19        9.9120   19.9660   38.5420 C.3   401  VIT401      0.0000
     22  C20       10.7310   17.6220   38.5650 C.3   401  VIT401      0.0000
     23  C21        9.5110   16.9300   38.6600 C.3   401  VIT401      0.0000
     24  C22        9.0100   15.7420   38.1530 C.3   401  VIT401      0.0000
     25  C23        7.4820   15.2990   37.9070 C.3   401  VIT401      0.0000
     26  C24        7.3990   13.7670   37.6660 C.3   401  VIT401      0.0000
     27  C25        5.9430   13.2970   37.4420 C.3   401  VIT401      0.0000
     28  C26        5.9220   11.8050   37.2250 C.3   401  VIT401      0.0000
     29  C27        4.4690   11.3050   36.9960 C.3   401  VIT401      0.0000
     30  C28        3.8600   11.9620   35.7320 C.3   401  VIT401      0.0000
     31  C29        4.4680    9.7770   36.8000 C.3   401  VIT401      0.0000
@<TRIPOS>BOND
     1    30    29    1
     2    31    29    1
     3    29    28    1
     4    28    27    1
     5    27    26    1
     6    26    25    1
     7    25    24    1
     8    25     1    1
     9    24    23    1
    10    20    21    1
    11    20    22    1
    12    20    19    1
    13    22    23    1
    14    19    18    1
    15    16    10    1
    16    17    10    1
    17    10     9    1
    18    10    12    1
    19     9     4    1
    20    12    11    1
    21    13     5    1
    22     4     5   ar
    23     4     3   ar
    24    11     3    1
    25     5     6   ar
    26     3     2   ar
    27     6    14    1
    28     6     7   ar
    29     2     7   ar
    30     2     8    1
    31     7    15    1
