@<TRIPOS>MOLECULE
1kpu_FUC_A_1.pdb
 10 10 0 0 0
SMALL
GASTEIGER

@<TRIPOS>ATOM
      1  C1        60.9680   55.6240   19.8130 C.3   602  FUC602      0.1776
      2  C2        60.1850   56.6190   18.9420 C.3   602  FUC602      0.2141
      3  C3        59.3880   55.8510   17.8890 C.3   602  FUC602      0.2172
      4  C4        58.4100   54.9040   18.5700 C.3   602  FUC602      0.2116
      5  C5        59.2140   54.0410   19.5360 C.3   602  FUC602      0.1483
      6  C6        58.2530   53.0700   20.1990 C.3   602  FUC602      0.0349
      7  O2        61.0670   57.5190   18.3030 O.3   602  FUC602     -0.2176
      8  O3        58.6900   56.7210   17.0080 O.3   602  FUC602     -0.2175
      9  O4        57.3570   55.5490   19.2360 O.3   602  FUC602     -0.2177
     10  O5        60.0000   54.8050   20.4650 O.3   602  FUC602     -0.3508
@<TRIPOS>BOND
     1     8     3    1
     2     3     4    1
     3     3     2    1
     4     7     2    1
     5     4     9    1
     6     4     5    1
     7     2     1    1
     8     5     6    1
     9     5    10    1
    10     1    10    1
