@<TRIPOS>MOLECULE
1kpv_FUC_A_1.pdb
 10 10 0 0 0
SMALL
GASTEIGER

@<TRIPOS>ATOM
      1  C1        61.0190   55.6890   19.5430 C.3   602  FUC602      0.1776
      2  C2        60.2810   56.8870   18.9320 C.3   602  FUC602      0.2141
      3  C3        59.3730   56.4160   17.7930 C.3   602  FUC602      0.2172
      4  C4        58.3460   55.4140   18.3370 C.3   602  FUC602      0.2116
      5  C5        59.0510   54.2590   19.0510 C.3   602  FUC602      0.1483
      6  C6        58.0180   53.4400   19.8190 C.3   602  FUC602      0.0349
      7  O2        61.2530   57.7740   18.4330 O.3   602  FUC602     -0.2176
      8  O3        58.7430   57.4930   17.1140 O.3   602  FUC602     -0.2175
      9  O4        57.4260   55.9950   19.2130 O.3   602  FUC602     -0.2177
     10  O5        60.0940   54.6640   19.9550 O.3   602  FUC602     -0.3508
@<TRIPOS>BOND
     1     8     3    1
     2     3     4    1
     3     3     2    1
     4     4     5    1
     5     4     9    1
     6     7     2    1
     7     2     1    1
     8     5     6    1
     9     5    10    1
    10     1    10    1
