@<TRIPOS>MOLECULE
1kq7_CIT_A_1.pdb
 13 12 0 0 0
SMALL
GASTEIGER

@<TRIPOS>ATOM
      1  C1        87.9090  159.8510   43.6040 C.2   469  CIT469      0.3680
      2  O1        88.2020  160.5870   44.4610 O.co2 469  CIT469     -0.2455
      3  O2        88.6550  159.6850   42.5950 O.co2 469  CIT469     -0.2455
      4  C2        86.6330  159.0600   43.6890 C.3   469  CIT469      0.1560
      5  C3        85.5110  158.3260   44.7180 C.3   469  CIT469      0.2402
      6  O7        84.1550  158.4360   44.6220 O.3   469  CIT469     -0.2129
      7  C4        86.0700  156.9040   44.7970 C.3   469  CIT469      0.1560
      8  C5        85.8340  155.6470   44.8160 C.2   469  CIT469      0.3680
      9  O3        86.3660  154.8990   43.9300 O.co2 469  CIT469     -0.2455
     10  O4        85.0880  155.3540   45.7370 O.co2 469  CIT469     -0.2455
     11  C6        86.0660  158.5090   46.1640 C.2   469  CIT469      0.3927
     12  O5        87.2680  158.5920   46.4050 O.co2 469  CIT469     -0.2429
     13  O6        85.3090  158.5850   47.1500 O.co2 469  CIT469     -0.2429
@<TRIPOS>BOND
     1     3     1   ar
     2     1     4    1
     3     1     2   ar
     4     4     5    1
     5     9     8   ar
     6     6     5    1
     7     5     7    1
     8     5    11    1
     9     7     8    1
    10     8    10   ar
    11    11    12   ar
    12    11    13   ar
