@<TRIPOS>MOLECULE
1kqa_COA_B_1.pdb
 48 50 0 0 0
SMALL
GASTEIGER

@<TRIPOS>ATOM
      1  N1A      -15.3870  -22.9850  -17.0220 N.2   204  COA204      0.0021
      2  C2A      -14.4990  -22.0900  -17.5490 C.3   204  COA204      0.5254
      3  N3A      -13.3230  -22.2800  -18.0980 N.2   204  COA204     -0.0055
      4  C4A      -13.0070  -23.5930  -18.1460 C.2   204  COA204      0.3518
      5  C5A      -13.7890  -24.6100  -17.6400 C.2   204  COA204      0.2526
      6  C6A      -15.0340  -24.3020  -17.0510 C.2   204  COA204      0.4393
      7  N6A      -15.8550  -25.2110  -16.5370 N.pl3 204  COA204      0.2180
      8  N7A      -13.1850  -25.8480  -17.8450 N.2   204  COA204     -0.2095
      9  C8A      -12.0420  -25.5470  -18.4500 C.3   204  COA204      0.3377
     10  N9A      -11.8610  -24.2030  -18.6550 N.pl3 204  COA204     -0.1439
     11  C1B      -10.7110  -23.5230  -19.2950 C.3   204  COA204      0.3185
     12  C2B       -9.4260  -24.0300  -18.6960 C.3   204  COA204      0.2543
     13  O2B       -9.1460  -23.3880  -17.4450 O.3   204  COA204     -0.2131
     14  C3B       -8.3740  -23.7210  -19.7630 C.3   204  COA204      0.1928
     15  O3B       -7.8070  -22.3800  -19.6250 O.3   204  COA204     -0.2673
     16  P3B       -6.6670  -21.8070  -20.6370 P.3   204  COA204      0.5327
     17  O7A       -6.3200  -20.4180  -20.2400 O.3   204  COA204     -0.1145
     18  O8A       -7.1540  -21.9860  -22.0230 O.2   204  COA204     -0.2224
     19  O9A       -5.4440  -22.6510  -20.5200 O.3   204  COA204     -0.1145
     20  C4B       -9.2120  -23.9670  -21.0400 C.3   204  COA204      0.1795
     21  O4B      -10.6030  -23.8320  -20.6590 O.3   204  COA204     -0.3136
     22  C5B       -9.0390  -25.3450  -21.7190 C.3   204  COA204      0.1812
     23  O5B       -9.7690  -26.4460  -21.0740 O.3   204  COA204     -0.3112
     24  P1A       -8.9500  -27.7970  -20.6710 P.3   204  COA204      0.2189
     25  O1A       -8.1620  -27.5780  -19.4450 O.3   204  COA204     -0.4371
     26  O2A       -8.0220  -28.1650  -21.7700 O.2   204  COA204     -0.5170
     27  O3A      -10.0430  -28.9380  -20.4280 O.3   204  COA204     -0.2703
     28  P2A      -11.0470  -29.9240  -21.3200 P.3   204  COA204      0.2188
     29  O4A      -10.6060  -31.3270  -21.2110 O.3   204  COA204     -0.4371
     30  O5A      -11.0240  -29.5250  -22.7470 O.2   204  COA204     -0.5170
     31  O6A      -12.4110  -29.2570  -20.7810 O.3   204  COA204     -0.3138
     32  CBP      -13.6670  -29.7720  -18.5260 C.3   204  COA204      0.0645
     33  CCP      -12.4060  -29.2110  -19.2680 C.3   204  COA204      0.1519
     34  CDP      -14.9470  -29.0960  -19.0630 C.3   204  COA204      0.0056
     35  CEP      -13.8160  -31.2760  -18.6450 C.3   204  COA204      0.0056
     36  CAP      -13.4830  -29.3970  -17.0430 C.3   204  COA204      0.2312
     37  OAP      -13.2390  -27.9810  -16.8920 O.3   204  COA204     -0.2131
     38  C9P      -14.7570  -29.6390  -16.2430 C.2   204  COA204      0.2719
     39  O9P      -15.5320  -28.7020  -16.0230 O.2   204  COA204     -0.2706
     40  N8P      -14.9540  -30.8700  -15.8250 N.am  204  COA204     -0.2028
     41  C7P      -16.1520  -31.2420  -15.0660 C.3   204  COA204      0.1248
     42  C6P      -15.8680  -32.1650  -13.8920 C.3   204  COA204      0.1102
     43  C5P      -17.1460  -32.4350  -13.0710 C.2   204  COA204      0.2432
     44  O5P      -18.0350  -31.5780  -12.9600 O.2   204  COA204     -0.2733
     45  N4P      -17.1660  -33.6510  -12.5350 N.am  204  COA204     -0.2044
     46  C3P      -18.2610  -34.2220  -11.7090 C.3   204  COA204      0.1276
     47  C2P      -18.9310  -35.4220  -12.4090 C.3   204  COA204      0.0920
     48  S1P      -20.0780  -36.3540  -11.2800 S.3   204  COA204     -0.0802
@<TRIPOS>BOND
     1    30    28    2
     2    18    16    2
     3    26    24    2
     4    22    23    1
     5    22    20    1
     6    28    29    1
     7    28    31    1
     8    28    27    1
     9    23    24    1
    10    20    21    1
    11    20    14    1
    12    31    33    1
    13    24    27    1
    14    24    25    1
    15    21    11    1
    16    16    19    1
    17    16    17    1
    18    16    15    1
    19    14    15    1
    20    14    12    1
    21    11    12    1
    22    11    10    1
    23    33    32    1
    24    34    32    1
    25    12    13    1
    26    10     9    1
    27    10     4    1
    28    35    32    1
    29    32    36    1
    30     9     8    1
    31     4     3    2
    32     4     5    1
    33     3     2    1
    34     8     5    2
    35     5     6    1
    36     2     1    1
    37     6     1    2
    38     6     7    1
    39    36    37    1
    40    36    38    1
    41    38    39    2
    42    38    40   am
    43    40    41    1
    44    41    42    1
    45    42    43    1
    46    43    44    2
    47    43    45   am
    48    45    46    1
    49    47    46    1
    50    47    48    1
