@<TRIPOS>MOLECULE
1kqb_FMN_A_1.pdb
 31 33 0 0 0
SMALL
GASTEIGER

@<TRIPOS>ATOM
      1  N1        24.0210    0.1740   54.0300 N.2   518  FMN518     -0.2890
      2  C2        24.0130   -0.1040   55.3960 C.1   518  FMN518      0.3669
      3  O2        24.5690    0.5980   56.2520 O.2   518  FMN518     -0.1744
      4  N3        23.3000   -1.2640   55.7880 N.2   518  FMN518     -0.2300
      5  C4        22.6330   -2.1040   54.9160 C.1   518  FMN518      0.2513
      6  O4        22.0610   -3.1210   55.2830 O.2   518  FMN518     -0.2057
      7  C4A       22.6610   -1.7480   53.4520 C.2   518  FMN518      0.2700
      8  N5        21.9670   -2.3620   52.5030 N.2   518  FMN518     -0.3878
      9  C5A       21.7340   -2.0230   51.1910 C.2   518  FMN518      0.1320
     10  C6        20.7890   -2.6440   50.3000 C.2   518  FMN518      0.0250
     11  C7        20.5260   -2.1640   49.0300 C.2   518  FMN518     -0.0238
     12  C7M       19.4680   -2.8730   48.1950 C.3   518  FMN518      0.0308
     13  C8        21.2180   -0.9970   48.5530 C.2   518  FMN518     -0.0280
     14  C8M       21.0440   -0.2600   47.2570 C.3   518  FMN518      0.0304
     15  C9        22.1630   -0.4000   49.3960 C.2   518  FMN518     -0.0041
     16  C9A       22.4660   -0.8490   50.7360 C.3   518  FMN518      0.1497
     17  N10       23.3810   -0.2610   51.7230 N.pl3 518  FMN518     -0.2691
     18  C10       23.4040   -0.5570   53.0830 C.2   518  FMN518      0.2416
     19  C1'       24.1830    0.9680   51.3360 C.3   518  FMN518      0.1294
     20  C2'       25.3170    0.6120   50.3350 C.3   518  FMN518      0.2044
     21  O2'       26.4780    0.2270   51.0120 O.3   518  FMN518     -0.2185
     22  C3'       25.4260    1.9180   49.4450 C.3   518  FMN518      0.2164
     23  O3'       24.2120    2.1950   48.6770 O.3   518  FMN518     -0.2175
     24  C4'       26.6250    1.9750   48.4900 C.3   518  FMN518      0.2147
     25  O4'       27.8540    1.7270   49.2040 O.3   518  FMN518     -0.2176
     26  C5'       26.8270    3.2180   47.6270 C.3   518  FMN518      0.1892
     27  O5'       26.9440    4.3520   48.4600 O.3   518  FMN518     -0.2674
     28  P         25.7710    5.4790   48.4430 P.3   518  FMN518      0.5327
     29  O1P       24.4440    4.9650   48.7600 O.3   518  FMN518     -0.1145
     30  O2P       25.7420    6.1740   47.1490 O.2   518  FMN518     -0.2224
     31  O3P       26.3040    6.4560   49.5340 O.3   518  FMN518     -0.1145
@<TRIPOS>BOND
     1    30    28    2
     2    14    13    1
     3    26    27    1
     4    26    24    1
     5    12    11    1
     6    28    27    1
     7    28    29    1
     8    28    31    1
     9    24    25    1
    10    24    22    1
    11    13    11    1
    12    13    15    2
    13    23    22    1
    14    11    10    2
    15    15    16    1
    16    22    20    1
    17    10     9    1
    18    20    21    1
    19    20    19    1
    20    16     9    1
    21    16    17    1
    22     9     8    2
    23    19    17    1
    24    17    18    1
    25     8     7    2
    26    18     7    1
    27    18     1    2
    28     7     5    1
    29     1     2    2
    30     5     6    2
    31     5     4    2
    32     2     4    2
    33     2     3    2
