@<TRIPOS>MOLECULE
1kqc_FMN_A_1.pdb
 31 33 0 0 0
SMALL
GASTEIGER

@<TRIPOS>ATOM
      1  N1        24.1080    0.1730   54.0840 N.2   518  FMN518     -0.2890
      2  C2        24.1120   -0.0900   55.4500 C.1   518  FMN518      0.3669
      3  O2        24.6480    0.6380   56.2890 O.2   518  FMN518     -0.1744
      4  N3        23.4450   -1.2700   55.8660 N.2   518  FMN518     -0.2300
      5  C4        22.8020   -2.1420   55.0070 C.1   518  FMN518      0.2513
      6  O4        22.2580   -3.1620   55.3950 O.2   518  FMN518     -0.2057
      7  C4A       22.7980   -1.7990   53.5400 C.2   518  FMN518      0.2700
      8  N5        22.1190   -2.4430   52.5940 N.2   518  FMN518     -0.3878
      9  C5A       21.8750   -2.1160   51.2730 C.2   518  FMN518      0.1320
     10  C6        20.9500   -2.7600   50.3710 C.2   518  FMN518      0.0250
     11  C7        20.6790   -2.2700   49.0990 C.2   518  FMN518     -0.0238
     12  C7M       19.6440   -2.9840   48.2450 C.3   518  FMN518      0.0308
     13  C8        21.3290   -1.0710   48.6380 C.2   518  FMN518     -0.0280
     14  C8M       21.1310   -0.3090   47.3540 C.3   518  FMN518      0.0304
     15  C9        22.2550   -0.4610   49.4910 C.2   518  FMN518     -0.0041
     16  C9A       22.5720   -0.9200   50.8190 C.3   518  FMN518      0.1497
     17  N10       23.4780   -0.3130   51.7950 N.pl3 518  FMN518     -0.2691
     18  C10       23.5070   -0.5910   53.1540 C.2   518  FMN518      0.2416
     19  C1'       24.2620    0.9130   51.3890 C.3   518  FMN518      0.1294
     20  C2'       25.4070    0.5220   50.4090 C.3   518  FMN518      0.2044
     21  O2'       26.5480    0.1280   51.1130 O.3   518  FMN518     -0.2185
     22  C3'       25.5440    1.8170   49.5030 C.3   518  FMN518      0.2164
     23  O3'       24.3350    2.0920   48.7260 O.3   518  FMN518     -0.2175
     24  C4'       26.7500    1.8800   48.5510 C.3   518  FMN518      0.2147
     25  O4'       27.9790    1.5810   49.2440 O.3   518  FMN518     -0.2176
     26  C5'       26.9880    3.1500   47.7330 C.3   518  FMN518      0.1892
     27  O5'       27.0540    4.2740   48.5900 O.3   518  FMN518     -0.2674
     28  P         25.8670    5.3860   48.5130 P.3   518  FMN518      0.5327
     29  O1P       24.5340    4.8460   48.7170 O.3   518  FMN518     -0.1145
     30  O2P       25.9380    6.0990   47.2390 O.2   518  FMN518     -0.2224
     31  O3P       26.3040    6.3560   49.6570 O.3   518  FMN518     -0.1145
@<TRIPOS>BOND
     1    30    28    2
     2    14    13    1
     3    26    24    1
     4    26    27    1
     5    12    11    1
     6    28    27    1
     7    28    29    1
     8    28    31    1
     9    24    25    1
    10    24    22    1
    11    13    11    1
    12    13    15    2
    13    23    22    1
    14    11    10    2
    15    15    16    1
    16    22    20    1
    17    10     9    1
    18    20    21    1
    19    20    19    1
    20    16     9    1
    21    16    17    1
    22     9     8    2
    23    19    17    1
    24    17    18    1
    25     8     7    2
    26    18     7    1
    27    18     1    2
    28     7     5    1
    29     1     2    2
    30     5     6    2
    31     5     4    2
    32     2     4    2
    33     2     3    2
