@<TRIPOS>MOLECULE
1kqd_FMN_A_1.pdb
 31 33 0 0 0
SMALL
GASTEIGER

@<TRIPOS>ATOM
      1  N1        24.1100    0.0440   54.2050 N.2   518  FMN518     -0.2887
      2  C2        24.0430   -0.2140   55.5620 C.1   518  FMN518      0.3669
      3  O2        24.5120    0.4950   56.3950 O.2   518  FMN518     -0.1744
      4  N3        23.3640   -1.3920   55.9120 N.2   518  FMN518     -0.2300
      5  C4        22.7890   -2.2720   54.9870 C.1   518  FMN518      0.2513
      6  O4        22.2050   -3.2870   55.3530 O.2   518  FMN518     -0.2057
      7  C4A       22.8730   -1.9590   53.5700 C.2   518  FMN518      0.2706
      8  N5        22.3020   -2.7100   52.5450 N.2   518  FMN518     -0.3841
      9  C5A       21.9300   -2.2820   51.2630 C.2   518  FMN518      0.1452
     10  C6        20.9920   -2.8590   50.3890 C.2   518  FMN518      0.0252
     11  C7        20.6470   -2.3230   49.1260 C.2   518  FMN518     -0.0375
     12  C7M       19.6130   -2.9990   48.2900 C.3   518  FMN518      0.0268
     13  C8        21.2810   -1.1250   48.6910 C.3   518  FMN518      0.0417
     14  C8M       21.0920   -0.2930   47.4390 C.3   518  FMN518      0.0091
     15  C9        22.2440   -0.5620   49.5630 C.2   518  FMN518     -0.0049
     16  C9A       22.6090   -1.0690   50.8320 C.2   518  FMN518      0.0795
     17  N10       23.5650   -0.5060   51.8200 N.pl3 518  FMN518     -0.2545
     18  C10       23.5400   -0.7970   53.2190 C.2   518  FMN518      0.2449
     19  C1'       24.3360    0.7520   51.4760 C.3   518  FMN518      0.1336
     20  C2'       25.3960    0.4530   50.3890 C.3   518  FMN518      0.2048
     21  O2'       26.5450   -0.0410   50.9680 O.3   518  FMN518     -0.2185
     22  C3'       25.5220    1.7640   49.5660 C.3   518  FMN518      0.2165
     23  O3'       24.2540    2.1120   48.8470 O.3   518  FMN518     -0.2175
     24  C4'       26.7180    1.8050   48.5390 C.3   518  FMN518      0.2147
     25  O4'       27.9860    1.5250   49.2500 O.3   518  FMN518     -0.2176
     26  C5'       26.8910    3.1150   47.7010 C.3   518  FMN518      0.1892
     27  O5'       26.9930    4.2440   48.5920 O.3   518  FMN518     -0.2674
     28  P         25.8600    5.3980   48.5680 P.3   518  FMN518      0.5327
     29  O1P       24.5180    4.9170   48.8480 O.3   518  FMN518     -0.1145
     30  O2P       25.8790    6.0710   47.2260 O.2   518  FMN518     -0.2224
     31  O3P       26.3230    6.3420   49.6820 O.3   518  FMN518     -0.1145
@<TRIPOS>BOND
     1    30    28    2
     2    14    13    1
     3    26    24    1
     4    26    27    1
     5    12    11    1
     6    24    25    1
     7    24    22    1
     8    28    27    1
     9    28    29    1
    10    28    31    1
    11    13    11    1
    12    13    15    1
    13    23    22    1
    14    11    10    2
    15    15    16    2
    16    22    20    1
    17    20    21    1
    18    20    19    1
    19    10     9    1
    20    16     9    1
    21    16    17    1
    22     9     8    2
    23    19    17    1
    24    17    18    1
    25     8     7    2
    26    18     7    1
    27    18     1    2
    28     7     5    1
    29     1     2    2
    30     5     6    2
    31     5     4    2
    32     2     4    2
    33     2     3    2
