@<TRIPOS>MOLECULE
1kqf_MGD_A_1.pdb
 47 52 0 0 0
SMALL
GASTEIGER

@<TRIPOS>ATOM
      1  PB        -2.7370   52.6930  116.1180 P.3   1018  MGD1018     0.2189
      2  O1B       -3.6880   53.3230  115.2670 O.2   1018  MGD1018    -0.5170
      3  O2B       -1.2520   52.8780  115.8170 O.3   1018  MGD1018    -0.4371
      4  O3B       -3.1170   51.0780  116.0850 O.3   1018  MGD1018    -0.2703
      5  O3A       -2.2920   48.8990  115.3570 O.3   1018  MGD1018    -0.3109
      6  PA        -2.5700   49.7430  116.7170 P.3   1018  MGD1018     0.2189
      7  O1A       -1.3500   50.1040  117.5020 O.3   1018  MGD1018    -0.4371
      8  O2A       -3.7260   49.2760  117.4740 O.2   1018  MGD1018    -0.5170
      9  O5'       -3.1090   53.1510  117.6020 O.3   1018  MGD1018    -0.3112
     10  C5'       -2.5890   53.0510  118.8430 C.3   1018  MGD1018     0.1813
     11  C4'       -2.8420   54.1310  119.8150 C.3   1018  MGD1018     0.1799
     12  O4'       -1.7930   54.8000  120.5170 O.3   1018  MGD1018    -0.3326
     13  C3'       -3.5640   55.2800  119.0760 C.3   1018  MGD1018     0.2158
     14  O3'       -4.9940   55.3660  119.3610 O.3   1018  MGD1018    -0.2175
     15  C2'       -2.7990   56.4930  119.5610 C.3   1018  MGD1018     0.2310
     16  O2'       -3.6560   57.6890  119.6810 O.3   1018  MGD1018    -0.2158
     17  C1'       -2.4150   56.0150  120.9470 C.3   1018  MGD1018     0.2293
     18  N9        -1.3010   56.7440  121.6620 N.pl3 1018  MGD1018    -0.2354
     19  C8        -0.4620   57.7720  121.1810 C.3   1018  MGD1018     0.2246
     20  N7         0.4110   58.2000  122.0880 N.2   1018  MGD1018    -0.2322
     21  C5        -0.0210   57.5610  123.2610 C.2   1018  MGD1018     0.2182
     22  C6         0.3210   57.7600  124.6050 C.1   1018  MGD1018     0.2372
     23  O6         1.3500   58.3790  124.9230 O.2   1018  MGD1018    -0.2069
     24  N1        -0.4020   57.0110  125.5640 N.2   1018  MGD1018    -0.2485
     25  C2        -1.4870   56.2030  125.2390 C.1   1018  MGD1018     0.2531
     26  N2        -2.0540   55.6100  126.2950 N.pl3 1018  MGD1018    -0.0226
     27  N3        -1.8700   56.0500  123.9330 N.2   1018  MGD1018    -0.3074
     28  C4        -1.1010   56.7260  123.0170 C.2   1018  MGD1018     0.2300
     29  C10       -1.2640   48.7200  115.1660 C.3   1018  MGD1018     0.1837
     30  C11       -0.9550   47.3330  114.5620 C.3   1018  MGD1018     0.1762
     31  O11       -1.6620   46.9460  113.3760 O.3   1018  MGD1018    -0.3271
     32  C12        0.5240   46.9680  114.1760 C.2   1018  MGD1018     0.0473
     33  S12        1.8530   47.8270  115.0080 S.3   1018  MGD1018    -0.0526
     34  C13        0.8760   46.0840  113.2140 C.2   1018  MGD1018     0.0449
     35  S13        2.5260   45.7180  112.6390 S.3   1018  MGD1018    -0.0530
     36  C14       -0.1320   45.2390  112.4130 C.3   1018  MGD1018     0.1850
     37  N15       -0.1320   45.5050  110.9880 N.2   1018  MGD1018    -0.2411
     38  C16       -1.2430   45.1510  110.2880 C.2   1018  MGD1018     0.2467
     39  C17       -1.1910   44.9670  108.8500 C.1   1018  MGD1018     0.2441
     40  O17       -0.1660   45.1120  108.1410 O.2   1018  MGD1018    -0.2063
     41  N18       -2.3980   44.6360  108.1860 N.2   1018  MGD1018    -0.2474
     42  C19       -3.5440   44.3080  108.8670 C.1   1018  MGD1018     0.2608
     43  N19       -4.6870   44.1460  108.1700 N.pl3 1018  MGD1018    -0.0220
     44  N20       -3.5320   44.3890  110.2130 N.2   1018  MGD1018    -0.2682
     45  C21       -2.4920   44.9090  110.9440 C.1   1018  MGD1018     0.1293
     46  N22       -2.6450   45.0110  112.3080 N.2   1018  MGD1018    -0.1763
     47  C23       -1.4860   45.5830  113.0490 C.3   1018  MGD1018     0.2573
@<TRIPOS>BOND
     1    40    39    2
     2    43    42    1
     3    41    39    2
     4    41    42    2
     5    39    38    1
     6    42    44    2
     7    44    45    2
     8    38    45    1
     9    38    37    2
    10    45    46    2
    11    37    36    1
    12    46    47    1
    13    36    47    1
    14    36    34    1
    15    35    34    1
    16    47    31    1
    17    34    32    2
    18    31    30    1
    19    32    30    1
    20    32    33    1
    21    30    29    1
    22    29     5    1
    23     2     1    2
    24     5     6    1
    25     3     1    1
    26     4     1    1
    27     4     6    1
    28     1     9    1
    29     6     8    2
    30     6     7    1
    31     9    10    1
    32    10    11    1
    33    13    14    1
    34    13    15    1
    35    13    11    1
    36    15    16    1
    37    15    17    1
    38    11    12    1
    39    12    17    1
    40    17    18    1
    41    19    18    1
    42    19    20    1
    43    18    28    1
    44    20    21    2
    45    28    21    1
    46    28    27    2
    47    21    22    1
    48    27    25    2
    49    22    23    2
    50    22    24    2
    51    25    24    2
    52    25    26    1
