@<TRIPOS>MOLECULE
1kqf_HEM_C_1.pdb
 43 50 0 0 0
SMALL
GASTEIGER

@<TRIPOS>ATOM
      1  CHA      -11.9370   93.7710   80.5730 C.2   809  HEM809      0.0000
      2  CHB      -16.1540   91.4340   80.5750 C.2   809  HEM809      0.0000
      3  CHC      -17.9300   94.8550   77.6620 C.2   809  HEM809      0.0000
      4  CHD      -13.6900   97.1490   77.5500 C.2   809  HEM809      0.0000
      5  C1A      -12.9240   92.8740   80.8950 C.2   809  HEM809      0.0000
      6  C2A      -12.8260   91.7380   81.8190 C.2   809  HEM809      0.0000
      7  C3A      -13.9960   91.0930   81.8080 C.2   809  HEM809      0.0000
      8  C4A      -14.8680   91.8140   80.8840 C.2   809  HEM809      0.0000
      9  CMA      -14.4490   89.8250   82.5790 C.3   809  HEM809      0.0000
     10  CAA      -11.5570   91.3900   82.6590 C.3   809  HEM809      0.0000
     11  CBA      -11.5460   92.2560   84.0160 C.3   809  HEM809      0.0000
     12  CGA      -12.7360   92.1230   85.0070 C.2   809  HEM809      0.0000
     13  O1A      -13.0290   90.9520   85.4090 O.co2 809  HEM809      0.0000
     14  O2A      -13.3310   93.2040   85.3390 O.co2 809  HEM809      0.0000
     15  C1B      -16.9920   92.1310   79.7200 C.ar  809  HEM809      0.0000
     16  C2B      -18.3350   91.7030   79.3220 C.ar  809  HEM809      0.0000
     17  C3B      -18.8290   92.6590   78.5010 C.ar  809  HEM809      0.0000
     18  C4B      -17.8060   93.6990   78.3940 C.ar  809  HEM809      0.0000
     19  CMB      -18.9710   90.3700   79.8040 C.3   809  HEM809      0.0000
     20  CAB      -20.2230   92.7190   77.7640 C.2   809  HEM809      0.0000
     21  CBB      -20.3880   92.8710   76.4090 C.2   809  HEM809      0.0000
     22  C1C      -16.9740   95.8000   77.4080 C.2   809  HEM809      0.0000
     23  C2C      -17.1510   96.9990   76.6020 C.2   809  HEM809      0.0000
     24  C3C      -15.9670   97.6420   76.5660 C.2   809  HEM809      0.0000
     25  C4C      -15.0290   96.8510   77.3610 C.2   809  HEM809      0.0000
     26  CMC      -18.5020   97.3940   75.9220 C.3   809  HEM809      0.0000
     27  CAC      -15.5690   98.9630   75.8600 C.2   809  HEM809      0.0000
     28  CBC      -16.1180  100.1170   76.3350 C.2   809  HEM809      0.0000
     29  C1D      -12.8260   96.4050   78.3350 C.ar  809  HEM809      0.0000
     30  C2D      -11.3880   96.6910   78.5220 C.ar  809  HEM809      0.0000
     31  C3D      -10.9240   95.7350   79.3680 C.ar  809  HEM809      0.0000
     32  C4D      -12.0400   94.8590   79.7130 C.ar  809  HEM809      0.0000
     33  CMD      -10.6160   97.8710   77.8590 C.3   809  HEM809      0.0000
     34  CAD       -9.5040   95.4380   79.9710 C.3   809  HEM809      0.0000
     35  CBD       -8.4670   94.7000   79.0430 C.3   809  HEM809      0.0000
     36  CGD       -7.0180   95.0190   79.4330 C.2   809  HEM809      0.0000
     37  O1D       -6.2530   95.4150   78.4900 O.co2 809  HEM809      0.0000
     38  O2D       -6.7260   94.8290   80.6700 O.co2 809  HEM809      0.0000
     39  NA       -14.1980   92.9170   80.3630 N.2   809  HEM809      0.0000
     40  NB       -16.6870   93.3400   79.1200 N.ar  809  HEM809      0.0000
     41  NC       -15.6730   95.7250   77.8790 N.2   809  HEM809      0.0000
     42  ND       -13.1690   95.2550   79.0530 N.ar  809  HEM809      0.0000
     43 FE        -14.9140   94.2900   79.1220 Fe    809  HEM809      0.0000
@<TRIPOS>BOND
     1    27    28    2
     2    27    24    1
     3    26    23    1
     4    21    20    2
     5    24    23    2
     6    24    25    1
     7    23    22    1
     8    25     4    1
     9    25    41    2
    10    22     3    2
    11    22    41    1
    12     4    29    2
    13     3    18    1
    14    20    17    1
    15    33    30    1
    16    41    43    1
    17    29    30   ar
    18    29    42   ar
    19    18    17   ar
    20    18    40   ar
    21    37    36   ar
    22    17    16   ar
    23    30    31   ar
    24    35    36    1
    25    35    34    1
    26    42    43    1
    27    42    32   ar
    28    40    43    1
    29    40    15   ar
    30    43    39    1
    31    16    15   ar
    32    16    19    1
    33    31    32   ar
    34    31    34    1
    35    36    38   ar
    36    32     1    2
    37    15     2    1
    38    39     8    1
    39    39     5    2
    40     1     5    1
    41     2     8    2
    42     8     7    1
    43     5     6    1
    44     7     6    2
    45     7     9    1
    46     6    10    1
    47    10    11    1
    48    11    12    1
    49    12    14   ar
    50    12    13   ar
