@<TRIPOS>MOLECULE
1kqg_HQO_C_1.pdb
 19 20 0 0 0
SMALL
GASTEIGER

@<TRIPOS>ATOM
      1  C1       -22.9340  112.0990   61.7490 C.ar  811  HQO811      0.2070
      2  O1       -23.2610  113.3580   60.9510 O.3   811  HQO811     -0.2862
      3  C2       -21.9190  111.2030   61.2760 C.ar  811  HQO811      0.1078
      4  C3       -21.5830  110.0250   62.0250 C.ar  811  HQO811      0.2166
      5  N1       -22.2290  109.6790   63.2380 N.ar  811  HQO811     -0.1656
      6  O4       -22.0250  108.4950   63.7960 O.co2 811  HQO811     -0.6191
      7  C5       -23.2230  110.5550   63.7120 C.ar  811  HQO811      0.2394
      8  C6       -23.8990  110.2180   64.9310 C.ar  811  HQO811      0.0706
      9  C7       -24.9100  111.0790   65.4540 C.ar  811  HQO811      0.0062
     10  C8       -25.2530  112.2820   64.7510 C.ar  811  HQO811      0.0005
     11  C9       -24.5950  112.6260   63.5210 C.ar  811  HQO811      0.0092
     12  C10      -23.5790  111.7570   62.9900 C.ar  811  HQO811      0.1038
     13  C11      -20.5290  108.6810   61.9260 C.3   811  HQO811      0.0982
     14  C12      -18.4180  108.4610   60.7840 C.3   811  HQO811      0.0006
     15  C13      -19.8140  109.0980   60.6360 C.3   811  HQO811      0.0111
     16  C14      -17.3560  109.1310   59.9170 C.3   811  HQO811      0.0000
     17  C15      -16.4670  108.0520   59.2860 C.3   811  HQO811      0.0000
     18  C16      -15.2790  108.7040   58.5560 C.3   811  HQO811      0.0000
     19  C17      -14.8010  107.7530   57.4160 C.3   811  HQO811      0.0000
@<TRIPOS>UNITY_ATOM_ATTR
5 1
charge 1
6 1
charge -1
@<TRIPOS>BOND
     1    19    18    1
     2    18    17    1
     3    17    16    1
     4    16    14    1
     5    15    14    1
     6    15    13    1
     7     2     1    1
     8     3     1   ar
     9     3     4   ar
    10     1    12   ar
    11    13     4    1
    12     4     5   ar
    13    12    11   ar
    14    12     7   ar
    15     5     7   ar
    16     5     6    1
    17    11    10   ar
    18     7     8   ar
    19    10     9   ar
    20     8     9   ar
