@<TRIPOS>MOLECULE
1kqg_HEM_C_1.pdb
 43 50 0 0 0
SMALL
GASTEIGER

@<TRIPOS>ATOM
      1  CHA      -11.5510   93.6460   80.6070 C.2   809  HEM809      0.0000
      2  CHB      -15.7790   91.2570   80.4950 C.2   809  HEM809      0.0000
      3  CHC      -17.6480   94.7010   77.6710 C.2   809  HEM809      0.0000
      4  CHD      -13.3490   96.9020   77.5150 C.2   809  HEM809      0.0000
      5  C1A      -12.5470   92.7090   80.8740 C.2   809  HEM809      0.0000
      6  C2A      -12.4740   91.6170   81.8270 C.2   809  HEM809      0.0000
      7  C3A      -13.6510   90.9820   81.8100 C.2   809  HEM809      0.0000
      8  C4A      -14.5050   91.6560   80.8330 C.2   809  HEM809      0.0000
      9  CMA      -14.1080   89.7490   82.6280 C.3   809  HEM809      0.0000
     10  CAA      -11.2510   91.3690   82.7370 C.3   809  HEM809      0.0000
     11  CBA      -11.2780   92.1950   84.0550 C.3   809  HEM809      0.0000
     12  CGA      -12.4510   91.9480   84.9550 C.2   809  HEM809      0.0000
     13  O1A      -12.7790   90.7820   85.2160 O.co2 809  HEM809      0.0000
     14  O2A      -13.1000   92.9060   85.3960 O.co2 809  HEM809      0.0000
     15  C1B      -16.6130   91.9430   79.6450 C.ar  809  HEM809      0.0000
     16  C2B      -17.8880   91.4460   79.1450 C.ar  809  HEM809      0.0000
     17  C3B      -18.4040   92.4030   78.3690 C.ar  809  HEM809      0.0000
     18  C4B      -17.4600   93.5050   78.3490 C.ar  809  HEM809      0.0000
     19  CMB      -18.4440   90.0590   79.5340 C.3   809  HEM809      0.0000
     20  CAB      -19.7400   92.3930   77.6020 C.2   809  HEM809      0.0000
     21  CBB      -19.9700   92.6320   76.3090 C.2   809  HEM809      0.0000
     22  C1C      -16.6580   95.6300   77.4190 C.2   809  HEM809      0.0000
     23  C2C      -16.8230   96.8760   76.7080 C.2   809  HEM809      0.0000
     24  C3C      -15.6370   97.4810   76.6400 C.2   809  HEM809      0.0000
     25  C4C      -14.6970   96.6190   77.3450 C.2   809  HEM809      0.0000
     26  CMC      -18.1740   97.3640   76.1280 C.3   809  HEM809      0.0000
     27  CAC      -15.2340   98.8290   76.0010 C.2   809  HEM809      0.0000
     28  CBC      -15.6850   99.9570   76.5740 C.2   809  HEM809      0.0000
     29  C1D      -12.4790   96.1810   78.2970 C.ar  809  HEM809      0.0000
     30  C2D      -11.0590   96.4600   78.4280 C.ar  809  HEM809      0.0000
     31  C3D      -10.5780   95.5690   79.3020 C.ar  809  HEM809      0.0000
     32  C4D      -11.6640   94.7170   79.7330 C.ar  809  HEM809      0.0000
     33  CMD      -10.3280   97.6090   77.7160 C.3   809  HEM809      0.0000
     34  CAD       -9.1220   95.4430   79.7960 C.3   809  HEM809      0.0000
     35  CBD       -8.0780   95.0010   78.7610 C.3   809  HEM809      0.0000
     36  CGD       -6.7080   94.8860   79.4000 C.2   809  HEM809      0.0000
     37  O1D       -5.7520   95.1430   78.6170 O.co2 809  HEM809      0.0000
     38  O2D       -6.7120   94.5740   80.6290 O.co2 809  HEM809      0.0000
     39  NA       -13.8120   92.7080   80.2510 N.2   809  HEM809      0.0000
     40  NB       -16.3490   93.1990   79.1490 N.ar  809  HEM809      0.0000
     41  NC       -15.3290   95.4850   77.8040 N.2   809  HEM809      0.0000
     42  ND       -12.8380   95.1060   79.0810 N.ar  809  HEM809      0.0000
     43 FE        -14.5760   94.1220   79.0380 Fe    809  HEM809      0.0000
@<TRIPOS>BOND
     1    27    28    2
     2    27    24    1
     3    26    23    1
     4    21    20    2
     5    24    23    2
     6    24    25    1
     7    23    22    1
     8    25     4    1
     9    25    41    2
    10    22     3    2
    11    22    41    1
    12     4    29    2
    13    20    17    1
    14     3    18    1
    15    33    30    1
    16    41    43    1
    17    29    30   ar
    18    29    42   ar
    19    18    17   ar
    20    18    40   ar
    21    17    16   ar
    22    30    31   ar
    23    37    36   ar
    24    35    36    1
    25    35    34    1
    26    43    42    1
    27    43    40    1
    28    43    39    1
    29    42    32   ar
    30    16    19    1
    31    16    15   ar
    32    40    15   ar
    33    31    32   ar
    34    31    34    1
    35    36    38   ar
    36    15     2    1
    37    32     1    2
    38    39     8    1
    39    39     5    2
    40     2     8    2
    41     1     5    1
    42     8     7    1
    43     5     6    1
    44     7     6    2
    45     7     9    1
    46     6    10    1
    47    10    11    1
    48    11    12    1
    49    12    13   ar
    50    12    14   ar
