@<TRIPOS>MOLECULE
1kqg_MGD_A_1.pdb
 47 52 0 0 0
SMALL
GASTEIGER

@<TRIPOS>ATOM
      1  PB        -2.3310   52.2780  115.8490 P.3   1017  MGD1017     0.2189
      2  O1B       -3.3730   52.8440  114.9620 O.2   1017  MGD1017    -0.5170
      3  O2B       -0.9260   52.4030  115.4260 O.3   1017  MGD1017    -0.4371
      4  O3B       -2.5890   50.6770  115.6360 O.3   1017  MGD1017    -0.2703
      5  O3A       -1.8560   48.4460  115.0550 O.3   1017  MGD1017    -0.3109
      6  PA        -2.1160   49.3720  116.3800 P.3   1017  MGD1017     0.2189
      7  O1A       -0.8370   49.6560  117.1420 O.2   1017  MGD1017    -0.5170
      8  O2A       -3.3040   48.9790  117.1530 O.3   1017  MGD1017    -0.4371
      9  O5'       -2.5860   52.4510  117.4420 O.3   1017  MGD1017    -0.3112
     10  C5'       -1.8290   53.0800  118.3490 C.3   1017  MGD1017     0.1813
     11  C4'       -2.3930   53.8490  119.4010 C.3   1017  MGD1017     0.1799
     12  O4'       -1.4880   54.4040  120.3180 O.3   1017  MGD1017    -0.3326
     13  C3'       -3.1610   54.9990  118.7550 C.3   1017  MGD1017     0.2158
     14  O3'       -4.5490   55.0680  119.1590 O.3   1017  MGD1017    -0.2175
     15  C2'       -2.4790   56.2130  119.3960 C.3   1017  MGD1017     0.2310
     16  O2'       -3.4830   57.2200  119.6980 O.3   1017  MGD1017    -0.2158
     17  C1'       -2.0810   55.6060  120.7440 C.3   1017  MGD1017     0.2293
     18  N9        -0.8450   56.1520  121.4400 N.pl3 1017  MGD1017    -0.2354
     19  C8        -0.1020   57.2470  120.9700 C.3   1017  MGD1017     0.2246
     20  N7         0.8080   57.6540  121.8460 N.2   1017  MGD1017    -0.2322
     21  C5         0.3300   57.0890  123.0370 C.2   1017  MGD1017     0.2182
     22  C6         0.6550   57.3670  124.3620 C.1   1017  MGD1017     0.2372
     23  O6         1.5800   58.1270  124.6540 O.2   1017  MGD1017    -0.2069
     24  N1         0.0160   56.5230  125.2480 N.2   1017  MGD1017    -0.2485
     25  C2        -1.1360   55.8420  124.9810 C.1   1017  MGD1017     0.2531
     26  N2        -1.5990   55.2120  126.0470 N.pl3 1017  MGD1017    -0.0226
     27  N3        -1.5980   55.7510  123.7200 N.2   1017  MGD1017    -0.3074
     28  C4        -0.7300   56.2410  122.8010 C.2   1017  MGD1017     0.2300
     29  C10       -0.8150   48.2960  114.9350 C.3   1017  MGD1017     0.1837
     30  C11       -0.4520   47.0330  114.2160 C.3   1017  MGD1017     0.1762
     31  O11       -1.2150   46.6440  113.1120 O.3   1017  MGD1017    -0.3271
     32  C12        0.9630   46.5530  113.9240 C.2   1017  MGD1017     0.0473
     33  S12        2.2320   47.3290  114.8380 S.3   1017  MGD1017    -0.0526
     34  C13        1.3550   45.6660  112.9370 C.2   1017  MGD1017     0.0449
     35  S13        2.9620   45.2670  112.3230 S.3   1017  MGD1017    -0.0530
     36  C14        0.2960   44.9650  112.0960 C.3   1017  MGD1017     0.1850
     37  N15        0.3430   45.3280  110.7090 N.2   1017  MGD1017    -0.2411
     38  C16       -0.6950   44.7790  109.9790 C.2   1017  MGD1017     0.2467
     39  C17       -0.5960   44.6260  108.5640 C.1   1017  MGD1017     0.2441
     40  O17        0.3430   44.8870  107.7710 O.2   1017  MGD1017    -0.2063
     41  N18       -1.7210   44.0990  107.9270 N.2   1017  MGD1017    -0.2474
     42  C19       -2.9390   44.0090  108.5630 C.1   1017  MGD1017     0.2608
     43  N19       -4.0410   43.6040  107.8700 N.pl3 1017  MGD1017    -0.0220
     44  N20       -2.9940   44.2130  109.8720 N.2   1017  MGD1017    -0.2682
     45  C21       -1.9730   44.7050  110.5870 C.1   1017  MGD1017     0.1293
     46  N22       -2.1760   44.8040  111.9570 N.2   1017  MGD1017    -0.1763
     47  C23       -1.0380   45.2800  112.7560 C.3   1017  MGD1017     0.2573
@<TRIPOS>BOND
     1    40    39    2
     2    43    42    1
     3    41    42    2
     4    41    39    2
     5    42    44    2
     6    39    38    1
     7    44    45    2
     8    38    45    1
     9    38    37    2
    10    45    46    2
    11    37    36    1
    12    46    47    1
    13    36    47    1
    14    36    34    1
    15    35    34    1
    16    47    31    1
    17    34    32    2
    18    31    30    1
    19    32    30    1
    20    32    33    1
    21    30    29    1
    22    29     5    1
    23     2     1    2
    24     5     6    1
    25     3     1    1
    26     4     1    1
    27     4     6    1
    28     1     9    1
    29     6     7    2
    30     6     8    1
    31     9    10    1
    32    10    11    1
    33    13    14    1
    34    13    15    1
    35    13    11    1
    36    15    16    1
    37    15    17    1
    38    11    12    1
    39    12    17    1
    40    17    18    1
    41    19    18    1
    42    19    20    1
    43    18    28    1
    44    20    21    2
    45    28    21    1
    46    28    27    2
    47    21    22    1
    48    27    25    2
    49    22    23    2
    50    22    24    2
    51    25    24    2
    52    25    26    1
