@<TRIPOS>MOLECULE
1kqm_ANP_A_1.pdb
 31 33 0 0 0
SMALL
GASTEIGER

@<TRIPOS>ATOM
      1  PG        12.1340   -8.2350   27.9850 P.3   999  ANP999      0.4884
      2  O1G       12.4610   -6.9070   27.3290 O.2   999  ANP999     -0.2331
      3  O2G       10.8520   -8.2490   28.7770 O.3   999  ANP999     -0.1240
      4  O3G       13.2880   -8.7650   28.8120 O.3   999  ANP999     -0.1240
      5  PB        13.0470  -10.3730   26.0280 P.3   999  ANP999      0.4669
      6  O1B       13.1420  -10.1940   24.5970 O.2   999  ANP999     -0.2351
      7  O2B       14.3910  -10.1450   26.6970 O.3   999  ANP999     -0.1253
      8  N3B       11.9300   -9.3310   26.6980 N.3   999  ANP999     -0.0163
      9  PA        12.9080  -12.9040   27.5360 P.3   999  ANP999      0.2220
     10  O1A       14.4560  -12.7810   27.7670 O.2   999  ANP999     -0.5170
     11  O2A       12.0850  -12.6410   28.7490 O.3   999  ANP999     -0.4370
     12  O3A       12.5270  -11.8700   26.3600 O.3   999  ANP999     -0.2360
     13  O5'       12.5980  -14.3760   26.9610 O.3   999  ANP999     -0.3111
     14  C5'       11.2060  -14.7490   26.7950 C.3   999  ANP999      0.1813
     15  C4'       11.0130  -16.1790   27.3070 C.3   999  ANP999      0.1821
     16  O4'       10.9810  -17.0390   26.1570 O.3   999  ANP999     -0.3135
     17  C3'       12.2440  -16.6800   28.0360 C.3   999  ANP999      0.2184
     18  O3'       12.1840  -16.2920   29.4040 O.3   999  ANP999     -0.2174
     19  C2'       12.0790  -18.1260   27.8050 C.3   999  ANP999      0.2570
     20  O2'       10.8620  -18.5300   28.4790 O.3   999  ANP999     -0.2130
     21  C1'       11.7820  -18.1190   26.3580 C.3   999  ANP999      0.3186
     22  N9        12.9090  -18.1510   25.4500 N.pl3 999  ANP999     -0.1439
     23  C8        13.4480  -17.1860   24.7180 C.3   999  ANP999      0.3377
     24  N7        14.2680  -17.6410   23.7790 N.2   999  ANP999     -0.2095
     25  C5        14.3170  -19.0010   24.0030 C.2   999  ANP999      0.2526
     26  C6        15.0820  -20.0590   23.3930 C.2   999  ANP999      0.4393
     27  N6        15.9490  -20.0360   22.3270 N.pl3 999  ANP999      0.2180
     28  N1        14.7670  -21.2530   23.9270 N.2   999  ANP999      0.0021
     29  C2        13.9060  -21.4520   24.9620 C.3   999  ANP999      0.5254
     30  N3        13.2460  -20.5010   25.5570 N.2   999  ANP999     -0.0055
     31  C4        13.5000  -19.2960   25.0490 C.2   999  ANP999      0.3518
@<TRIPOS>BOND
     1    27    26    1
     2    26    28    2
     3    26    25    1
     4    24    25    2
     5    24    23    1
     6    28    29    1
     7    25    31    1
     8     6     5    2
     9    23    22    1
    10    29    30    1
    11    31    22    1
    12    31    30    2
    13    22    21    1
    14     5    12    1
    15     5     7    1
    16     5     8    1
    17    16    21    1
    18    16    15    1
    19    21    19    1
    20    12     9    1
    21     8     1    1
    22    14    13    1
    23    14    15    1
    24    13     9    1
    25    15    17    1
    26     2     1    2
    27     9    10    2
    28     9    11    1
    29    19    17    1
    30    19    20    1
    31     1     3    1
    32     1     4    1
    33    17    18    1
