@<TRIPOS>MOLECULE
1kqn_NAD_A_1.pdb
 44 48 0 0 0
SMALL
GASTEIGER

@<TRIPOS>ATOM
      1  PA         9.2300   40.8070   12.6970 P.3   777  NAD777      0.2189
      2  O1A        8.1580   40.5350   11.7000 O.2   777  NAD777     -0.5170
      3  O2A       10.5850   40.7180   12.0930 O.3   777  NAD777     -0.4371
      4  O5B        9.1950   39.6940   13.8860 O.3   777  NAD777     -0.3112
      5  C5B        7.9510   39.2880   14.5580 C.3   777  NAD777      0.1813
      6  C4B        8.4030   38.4960   15.7850 C.3   777  NAD777      0.1821
      7  O4B        9.1670   37.2910   15.4160 O.3   777  NAD777     -0.3135
      8  C3B        9.3330   39.2830   16.7470 C.3   777  NAD777      0.2184
      9  O3B        8.7660   39.3370   18.0680 O.3   777  NAD777     -0.2174
     10  C2B       10.6420   38.4910   16.6270 C.3   777  NAD777      0.2570
     11  O2B       11.4950   38.6160   17.8070 O.3   777  NAD777     -0.2130
     12  C1B       10.1080   37.0540   16.3800 C.3   777  NAD777      0.3186
     13  N9A       11.1140   36.1870   15.8140 N.pl3 777  NAD777     -0.1439
     14  C8A       11.9120   36.4250   14.7390 C.3   777  NAD777      0.3377
     15  N7A       12.7560   35.4140   14.4610 N.2   777  NAD777     -0.2095
     16  C5A       12.4540   34.4970   15.4340 C.2   777  NAD777      0.2526
     17  C6A       12.9770   33.2000   15.7110 C.2   777  NAD777      0.4393
     18  N6A       13.9300   32.5990   15.0120 N.pl3 777  NAD777      0.2180
     19  N1A       12.4560   32.5250   16.7810 N.2   777  NAD777      0.0021
     20  C2A       11.4670   33.1110   17.5250 C.3   777  NAD777      0.5254
     21  N3A       10.9180   34.3010   17.3380 N.2   777  NAD777     -0.0055
     22  C4A       11.4490   34.9510   16.2770 C.2   777  NAD777      0.3518
     23  O3         8.8900   42.2150   13.3870 O.3   777  NAD777     -0.2703
     24  PN         9.8710   43.3790   13.9640 P.3   777  NAD777      0.2189
     25  O1N       10.2670   44.4170   13.0030 O.2   777  NAD777     -0.5170
     26  O2N       11.0780   42.7660   14.6050 O.3   777  NAD777     -0.4371
     27  O5D        8.7740   43.8970   14.9330 O.3   777  NAD777     -0.3112
     28  C5D        8.8980   45.1430   15.6510 C.3   777  NAD777      0.1813
     29  C4D        7.6730   45.2030   16.4660 C.3   777  NAD777      0.1799
     30  O4D        8.1130   45.7150   17.7260 O.3   777  NAD777     -0.3327
     31  C3D        6.5680   46.1330   15.9520 C.3   777  NAD777      0.2158
     32  O3D        5.2850   45.6870   16.4430 O.3   777  NAD777     -0.2175
     33  C2D        6.9380   47.4050   16.6000 C.3   777  NAD777      0.2309
     34  O2D        5.8700   48.3860   16.5920 O.3   777  NAD777     -0.2158
     35  C1D        7.3660   46.8900   18.0050 C.3   777  NAD777      0.2263
     36  N1N        8.1940   47.8870   18.6580 N.pl3 777  NAD777     -0.2787
     37  C2N        7.6210   48.7160   19.6270 C.3   777  NAD777      0.1244
     38  C3N        8.3900   49.7390   20.2900 C.2   777  NAD777      0.0544
     39  C7N        7.6350   50.5280   21.2900 C.2   777  NAD777      0.2818
     40  O7N        8.3240   51.4120   21.8450 O.2   777  NAD777     -0.2670
     41  N7N        6.3160   50.3090   21.5840 N.am  777  NAD777     -0.0839
     42  C4N        9.8200   49.9230   19.9340 C.2   777  NAD777      0.0033
     43  C5N       10.3670   48.9890   18.8780 C.2   777  NAD777      0.0157
     44  C6N        9.5690   48.0660   18.3160 C.2   777  NAD777      0.0633
@<TRIPOS>BOND
     1     2     1    2
     2     3     1    1
     3     1    23    1
     4     1     4    1
     5    25    24    2
     6    23    24    1
     7     4     5    1
     8    24    26    1
     9    24    27    1
    10    15    14    1
    11    15    16    2
    12     5     6    1
    13    14    13    1
    14    27    28    1
    15    18    17    1
    16     7     6    1
    17     7    12    1
    18    16    17    1
    19    16    22    1
    20    28    29    1
    21    17    19    2
    22     6     8    1
    23    13    22    1
    24    13    12    1
    25    31    32    1
    26    31    29    1
    27    31    33    1
    28    22    21    2
    29    12    10    1
    30    29    30    1
    31    34    33    1
    32    33    35    1
    33    10     8    1
    34    10    11    1
    35     8     9    1
    36    19    20    1
    37    21    20    1
    38    30    35    1
    39    35    36    1
    40    44    36    1
    41    44    43    2
    42    36    37    1
    43    43    42    1
    44    37    38    1
    45    42    38    2
    46    38    39    1
    47    39    41   am
    48    39    40    2
