@<TRIPOS>MOLECULE
1kqo_DND_A_1.pdb
 44 41 0 0 0
SMALL
GASTEIGER

@<TRIPOS>ATOM
      1  PN         9.0610   40.5130   12.8830 P.3   482  DND482      0.4144
      2  O11        8.0380   40.3200   11.8380 O.2   482  DND482     -0.2485
      3  O12       10.4710   40.5100   12.3520 O.3   482  DND482     -0.1346
      4  O3P        8.8910   39.3050   13.9400 O.3   482  DND482     -0.1423
      5  O5D        7.5760   39.0050   14.5420 O.3   482  DND482     -0.2087
      6  C5D        7.8750   38.1530   15.7860 C.3   482  DND482      0.2299
      7  C4D        8.7480   37.0210   15.4720 C.3   482  DND482      0.2458
      8  O4D        8.5910   38.9090   16.9120 O.3   482  DND482     -0.2175
      9  C3D        7.8670   38.7900   18.1630 C.3   482  DND482      0.2175
     10  O3D        9.9750   38.2550   16.8460 O.3   482  DND482     -0.2175
     11  C2D       10.7000   38.3680   18.0820 C.3   482  DND482      0.2175
     12  O2D        9.6220   36.8020   16.4680 O.2   482  DND482     -0.4289
     13  C1D       10.7480   36.0790   15.8880 C.2   482  DND482      0.4317
     14  N1N       11.5650   36.4850   14.8650 N.2   482  DND482     -0.2006
     15  C6N       12.5250   35.6010   14.5520 C.3   482  DND482      0.1367
     16  C5N       12.2760   34.5790   15.4440 C.3   482  DND482      0.0529
     17  C4N       12.9280   33.3260   15.6420 C.2   482  DND482     -0.0169
     18  C3N       13.9820   32.9050   14.9230 C.2   482  DND482     -0.0044
     19  C2N       12.4330   32.5020   16.6360 C.2   482  DND482      0.0412
     20  C7N       11.3510   32.9290   17.3740 C.2   482  DND482      0.2341
     21  O7N       10.6900   34.0690   17.2520 O.2   482  DND482     -0.2787
     22  O8N       11.1930   34.8530   16.2730 O.2   482  DND482     -0.2260
     23  PA         8.6450   41.8880   13.5980 P.3   482  DND482      0.1029
     24  O13        9.5310   43.0890   14.1970 O.3   482  DND482      0.0000
     25  O14        9.8480   44.1970   13.2830 O.3   482  DND482      0.0000
     26  O5B       10.7710   42.5220   14.8270 O.3   482  DND482      0.0000
     27  C5B        8.3980   43.5180   15.1980 C.3   482  DND482      0.0347
     28  C4B        8.5750   44.6700   16.0120 C.3   482  DND482      0.1444
     29  O4B        7.3180   44.7330   16.8040 O.3   482  DND482     -0.3327
     30  C3B        7.6840   45.3190   18.0560 C.3   482  DND482      0.2694
     31  O3B        6.2140   45.6260   16.2070 O.3   482  DND482     -0.2175
     32  C2B        4.8840   45.1300   16.5860 C.3   482  DND482      0.2175
     33  O2B        6.4970   46.9530   16.8760 O.3   482  DND482     -0.2175
     34  C1B        5.3300   47.8100   16.8800 C.3   482  DND482      0.2175
     35  N9A        6.9210   46.4840   18.2720 N.pl3 482  DND482     -0.1285
     36  C4A        7.6770   47.5290   18.9730 C.1   482  DND482      0.1760
     37  N3A        7.0260   48.2040   20.0130 N.2   482  DND482     -0.2680
     38  C2A        7.6410   49.2750   20.7590 C.1   482  DND482      0.1569
     39  N1A        6.7880   49.8780   21.8080 N.pl3 482  DND482     -0.2397
     40  C6A        7.3290   50.7900   22.4030 C.3   482  DND482      0.1244
     41  C5A        5.5330   49.4830   22.0970 C.3   482  DND482      0.1244
     42  N7A        9.0360   49.6780   20.4150 N.2   482  DND482     -0.1689
     43  C8A        9.6890   48.8890   19.2770 C.3   482  DND482      0.2753
     44  N6A        9.0160   47.9090   18.6400 N.2   482  DND482     -0.1676
@<TRIPOS>BOND
     1     2     1    2
     2     3     1    1
     3     1    23    1
     4     1     4    1
     5    25    24    1
     6     4     5    1
     7    24    26    1
     8     5     6    1
     9    15    14    1
    10    15    16    1
    11    14    13    2
    12    18    17    2
    13    27    28    1
    14    16    17    1
    15     7     6    1
    16     7    12    1
    17    17    19    1
    18    13    22    1
    19    13    12    1
    20    28    29    1
    21    31    32    1
    22    31    33    1
    23    22    21    1
    24    19    20    2
    25    29    30    1
    26    10     8    1
    27    10    11    1
    28    33    34    1
    29     8     9    1
    30    21    20    1
    31    30    35    1
    32    35    36    1
    33    44    36    2
    34    44    43    1
    35    36    37    2
    36    43    42    1
    37    37    38    2
    38    42    38    2
    39    38    39    1
    40    39    41    1
    41    39    40    1
