@<TRIPOS>MOLECULE
1kqr_MNA_A_1.pdb
 22 22 0 0 0
SMALL
GASTEIGER

@<TRIPOS>ATOM
      1  C1         4.1960   37.8990   18.1400 C.2   1000  MNA1000     0.4152
      2  C2         4.2870   36.7400   19.1650 C.3   1000  MNA1000     0.2863
      3  C3         3.2350   35.6400   18.8940 C.3   1000  MNA1000     0.1028
      4  C4         3.5900   34.7940   17.6830 C.3   1000  MNA1000     0.1797
      5  C5         5.0320   34.2510   17.8140 C.3   1000  MNA1000     0.1554
      6  C6         5.9650   35.4610   17.9840 C.3   1000  MNA1000     0.1733
      7  C7         7.4590   35.1050   18.0870 C.3   1000  MNA1000     0.2135
      8  C8         8.2940   36.3620   18.2800 C.3   1000  MNA1000     0.2173
      9  C9         9.7510   36.0410   17.9380 C.3   1000  MNA1000     0.2175
     10  C10        6.1100   32.4280   16.5990 C.2   1000  MNA1000     0.2420
     11  C11        6.4350   31.8290   15.2400 C.3   1000  MNA1000     0.0964
     12  C12        4.8530   38.3720   20.8630 C.3   1000  MNA1000     0.1772
     13  N5         5.3710   33.5290   16.5990 N.am  1000  MNA1000    -0.2020
     14  O1A        3.0840   38.4320   17.9760 O.co2 1000  MNA1000    -0.2402
     15  O1B        5.2520   38.2780   17.5360 O.co2 1000  MNA1000    -0.2402
     16  O2         4.0350   37.2630   20.4280 O.3   1000  MNA1000    -0.3233
     17  O4         2.6400   33.7290   17.5870 O.3   1000  MNA1000    -0.2210
     18  O6         5.6110   36.1980   19.1650 O.3   1000  MNA1000    -0.3239
     19  O7         7.6950   34.2390   19.2110 O.3   1000  MNA1000    -0.2176
     20  O8         7.8180   37.3730   17.3920 O.3   1000  MNA1000    -0.2175
     21  O9        10.5390   37.2500   17.9590 O.3   1000  MNA1000    -0.2175
     22  O10        6.5740   31.9410   17.6250 O.2   1000  MNA1000    -0.2733
@<TRIPOS>BOND
     1    11    10    1
     2    13    10   am
     3    13     5    1
     4    10    22    2
     5    20     8    1
     6    15     1   ar
     7    17     4    1
     8     4     5    1
     9     4     3    1
    10     5     6    1
    11     9    21    1
    12     9     8    1
    13    14     1   ar
    14     6     7    1
    15     6    18    1
    16     7     8    1
    17     7    19    1
    18     1     2    1
    19     3     2    1
    20     2    18    1
    21     2    16    1
    22    16    12    1
