@<TRIPOS>MOLECULE
1kqw_RTL_A_1.pdb
 21 21 0 0 0
SMALL
GASTEIGER

@<TRIPOS>ATOM
      1  C1        11.8050   54.7250    6.0140 C.3   135  RTL135      0.0000
      2  C2        10.5970   54.6510    6.9890 C.3   135  RTL135      0.0000
      3  C3         9.2630   54.9280    6.3460 C.3   135  RTL135      0.0000
      4  C4         9.2350   56.2860    5.6830 C.3   135  RTL135      0.0000
      5  C5        10.4700   56.5540    4.7800 C.3   135  RTL135      0.0000
      6  C6        11.6660   56.0000    5.0630 C.3   135  RTL135      0.0000
      7  C7        12.8610   56.4190    4.3370 C.3   135  RTL135      0.0000
      8  C8        13.7120   55.7950    3.5290 C.3   135  RTL135      0.0000
      9  C9        14.5610   56.5130    2.5720 C.3   135  RTL135      0.0000
     10  C10       15.4850   55.7520    1.9600 C.3   135  RTL135      0.0000
     11  C11       16.3460   56.1740    0.8610 C.3   135  RTL135      0.0000
     12  C12       16.8550   55.1400    0.1570 C.3   135  RTL135      0.0001
     13  C13       18.0070   55.2070   -0.7070 C.3   135  RTL135      0.0026
     14  C14       18.7780   54.1090   -0.8590 C.3   135  RTL135      0.0355
     15  C15       19.9300   53.7780   -0.0290 C.3   135  RTL135      0.1821
     16  O1        20.8380   54.8850   -0.0430 O.3   135  RTL135     -0.2204
     17  C16       11.8230   53.4510    5.1200 C.3   135  RTL135      0.0000
     18  C17       13.0840   54.7710    6.8730 C.3   135  RTL135      0.0000
     19  C18       10.3270   57.8980    4.0140 C.3   135  RTL135      0.0000
     20  C19       13.9660   57.7360    1.8230 C.3   135  RTL135      0.0000
     21  C20       18.4270   56.5510   -1.3070 C.3   135  RTL135      0.0001
@<TRIPOS>BOND
     1    21    13    1
     2    14    13    1
     3    14    15    1
     4    13    12    1
     5    16    15    1
     6    12    11    1
     7    11    10    1
     8    20     9    1
     9    10     9    1
    10     9     8    1
    11     8     7    1
    12    19     5    1
    13     7     6    1
    14     5     6    1
    15     5     4    1
    16     6     1    1
    17    17     1    1
    18     4     3    1
    19     1    18    1
    20     1     2    1
    21     3     2    1
