@<TRIPOS>MOLECULE
1kqy_NAG_A_1.pdb
 14 14 0 0 0
SMALL
GASTEIGER

@<TRIPOS>ATOM
      1  C1         7.6430   46.7420   16.3540 C.3   901  NAG901      0.1665
      2  C2         6.9310   46.0930   15.1680 C.3   901  NAG901      0.1576
      3  C3         5.5990   46.7990   14.9240 C.3   901  NAG901      0.2069
      4  C4         4.7550   46.8100   16.2050 C.3   901  NAG901      0.2134
      5  C5         5.5720   47.3560   17.3900 C.3   901  NAG901      0.1809
      6  C6         4.8410   47.2140   18.7090 C.3   901  NAG901      0.2141
      7  C7         8.2390   45.0480   13.4350 C.2   901  NAG901      0.2420
      8  C8         9.2330   45.2050   12.2940 C.3   901  NAG901      0.0964
      9  N2         7.7600   46.1640   13.9800 N.am  901  NAG901     -0.2019
     10  O3         4.8890   46.1320   13.8890 O.3   901  NAG901     -0.2184
     11  O4         3.6020   47.6470   16.0020 O.3   901  NAG901     -0.2176
     12  O5         6.8200   46.6400   17.5240 O.3   901  NAG901     -0.3489
     13  O6         5.6340   47.6850   19.7880 O.3   901  NAG901     -0.2176
     14  O7         7.9110   43.9210   13.8160 O.2   901  NAG901     -0.2733
@<TRIPOS>BOND
     1     8     7    1
     2     7    14    2
     3     7     9   am
     4    10     3    1
     5     9     2    1
     6     3     2    1
     7     3     4    1
     8     2     1    1
     9    11     4    1
    10     4     5    1
    11     1    12    1
    12     5    12    1
    13     5     6    1
    14     6    13    1
