@<TRIPOS>MOLECULE
1kqz_NAG_A_1.pdb
 14 14 0 0 0
SMALL
GASTEIGER

@<TRIPOS>ATOM
      1  C1         7.6630   47.7790   17.1880 C.3   901  NAG901      0.1665
      2  C2         6.8720   47.1520   16.0300 C.3   901  NAG901      0.1576
      3  C3         5.5640   47.9200   15.8000 C.3   901  NAG901      0.2069
      4  C4         4.7780   48.0060   17.1070 C.3   901  NAG901      0.2134
      5  C5         5.6580   48.6510   18.1730 C.3   901  NAG901      0.1809
      6  C6         4.9580   48.7770   19.5150 C.3   901  NAG901      0.2141
      7  C7         8.0820   46.0230   14.2680 C.2   901  NAG901      0.2420
      8  C8         8.9480   46.1260   13.0210 C.3   901  NAG901      0.0964
      9  N2         7.6750   47.1650   14.8200 N.am  901  NAG901     -0.2019
     10  O3         4.7860   47.2570   14.8160 O.3   901  NAG901     -0.2184
     11  O4         3.6020   48.7790   16.9190 O.3   901  NAG901     -0.2176
     12  O5         6.8480   47.8570   18.3700 O.3   901  NAG901     -0.3489
     13  O6         5.5350   47.9160   20.4850 O.3   901  NAG901     -0.2176
     14  O7         7.7870   44.9140   14.7180 O.2   901  NAG901     -0.2733
@<TRIPOS>BOND
     1     8     7    1
     2     7    14    2
     3     7     9   am
     4    10     3    1
     5     9     2    1
     6     3     2    1
     7     3     4    1
     8     2     1    1
     9    11     4    1
    10     4     5    1
    11     1    12    1
    12     5    12    1
    13     5     6    1
    14     6    13    1
