@<TRIPOS>MOLECULE
1kr0_NAG_A_1.pdb
 14 14 0 0 0
SMALL
GASTEIGER

@<TRIPOS>ATOM
      1  C1         7.6940   47.6260   17.0670 C.3   901  NAG901      0.1665
      2  C2         6.9100   46.9730   15.9220 C.3   901  NAG901      0.1576
      3  C3         5.5910   47.7150   15.6820 C.3   901  NAG901      0.2069
      4  C4         4.8050   47.8260   16.9900 C.3   901  NAG901      0.2134
      5  C5         5.6850   48.4710   18.0630 C.3   901  NAG901      0.1809
      6  C6         4.9890   48.5690   19.4100 C.3   901  NAG901      0.2141
      7  C7         8.0800   45.8420   14.1420 C.2   901  NAG901      0.2420
      8  C8         8.8500   45.9390   12.8340 C.3   901  NAG901      0.0964
      9  N2         7.7100   46.9860   14.7110 N.am  901  NAG901     -0.2019
     10  O3         4.8180   47.0170   14.7170 O.3   901  NAG901     -0.2184
     11  O4         3.6400   48.6140   16.7860 O.3   901  NAG901     -0.2176
     12  O5         6.8850   47.6900   18.2510 O.3   901  NAG901     -0.3489
     13  O6         5.4780   47.5940   20.3210 O.3   901  NAG901     -0.2176
     14  O7         7.8260   44.7360   14.6260 O.2   901  NAG901     -0.2733
@<TRIPOS>BOND
     1     8     7    1
     2     7    14    2
     3     7     9   am
     4     9     2    1
     5    10     3    1
     6     3     2    1
     7     3     4    1
     8     2     1    1
     9    11     4    1
    10     4     5    1
    11     1    12    1
    12     5    12    1
    13     5     6    1
    14     6    13    1
