@<TRIPOS>MOLECULE
1kr1_NAG_A_1.pdb
 14 14 0 0 0
SMALL
GASTEIGER

@<TRIPOS>ATOM
      1  C1         7.1430   47.3440   16.7280 C.3   901  NAG901      0.1665
      2  C2         6.4320   46.6930   15.5340 C.3   901  NAG901      0.1576
      3  C3         5.1130   47.4160   15.2490 C.3   901  NAG901      0.2069
      4  C4         4.2570   47.4490   16.5170 C.3   901  NAG901      0.2134
      5  C5         5.0580   48.0670   17.6690 C.3   901  NAG901      0.1809
      6  C6         4.2940   48.0410   18.9780 C.3   901  NAG901      0.2141
      7  C7         7.7740   45.5980   13.8540 C.2   901  NAG901      0.2420
      8  C8         8.8280   45.7310   12.7660 C.3   901  NAG901      0.0964
      9  N2         7.2810   46.7280   14.3580 N.am  901  NAG901     -0.2019
     10  O3         4.4110   46.7390   14.2150 O.3   901  NAG901     -0.2184
     11  O4         3.0820   48.2120   16.2870 O.3   901  NAG901     -0.2176
     12  O5         6.2840   47.3310   17.8770 O.3   901  NAG901     -0.3489
     13  O6         5.1510   48.3040   20.0780 O.3   901  NAG901     -0.2176
     14  O7         7.4150   44.4780   14.2280 O.2   901  NAG901     -0.2733
@<TRIPOS>BOND
     1     8     7    1
     2     7    14    2
     3     7     9   am
     4    10     3    1
     5     9     2    1
     6     3     2    1
     7     3     4    1
     8     2     1    1
     9    11     4    1
    10     4     5    1
    11     1    12    1
    12     5    12    1
    13     5     6    1
    14     6    13    1
