@<TRIPOS>MOLECULE
1kr2_TAD_A_1.pdb
 43 47 0 0 0
SMALL
GASTEIGER

@<TRIPOS>ATOM
      1  PA         9.1950   40.5100   12.9340 P.3   809  TAD809      0.3820
      2  O1A        7.9010   40.9980   12.4200 O.3   809  TAD809     -0.1392
      3  O2A       10.1940   39.9500   11.9310 O.2   809  TAD809     -0.2548
      4  O5B        8.8910   39.5320   14.1910 O.3   809  TAD809     -0.2896
      5  C5B        7.6230   39.2030   14.7620 C.3   809  TAD809      0.1836
      6  C4B        7.9380   38.3440   15.9670 C.3   809  TAD809      0.1822
      7  O4B        8.5840   37.1210   15.7090 O.3   809  TAD809     -0.3135
      8  C3B        8.8780   39.0580   16.9610 C.3   809  TAD809      0.2184
      9  O3B        8.4100   39.0190   18.2780 O.3   809  TAD809     -0.2174
     10  C2B       10.2590   38.3710   16.7790 C.3   809  TAD809      0.2570
     11  O2B       11.0210   38.6100   17.9640 O.3   809  TAD809     -0.2130
     12  C1B        9.7980   36.9850   16.5080 C.3   809  TAD809      0.3186
     13  N9A       10.7790   36.0420   15.8400 N.pl3 809  TAD809     -0.1439
     14  C8A       11.3430   36.2490   14.6220 C.3   809  TAD809      0.3377
     15  N7A       12.1710   35.2510   14.2610 N.2   809  TAD809     -0.2095
     16  C5A       12.1050   34.4230   15.3070 C.2   809  TAD809      0.2526
     17  C6A       12.8040   33.2220   15.4010 C.2   809  TAD809      0.4393
     18  N6A       13.6140   32.8240   14.4110 N.pl3 809  TAD809      0.2180
     19  N1A       12.6060   32.4900   16.5590 N.2   809  TAD809      0.0021
     20  C2A       11.7750   32.9110   17.5560 C.3   809  TAD809      0.5254
     21  N3A       11.1140   34.0760   17.4360 N.2   809  TAD809     -0.0055
     22  C4A       11.2530   34.8660   16.3180 C.2   809  TAD809      0.3518
     23  C3        10.1000   41.7230   13.9360 C.3   809  TAD809      0.2353
     24  PN        10.0710   43.5050   13.5600 P.3   809  TAD809      0.3820
     25  O1N        9.8270   43.7220   12.1450 O.2   809  TAD809     -0.2548
     26  O2N       11.3460   44.0880   14.0210 O.3   809  TAD809     -0.1392
     27  O5D        8.9120   43.9740   14.5170 O.3   809  TAD809     -0.2896
     28  C5D        9.1920   44.9180   15.6190 C.3   809  TAD809      0.1835
     29  C4D        7.9110   45.1210   16.4170 C.3   809  TAD809      0.1786
     30  O4D        8.0720   45.6800   17.7550 O.3   809  TAD809     -0.3431
     31  C3D        6.8690   45.9710   15.7020 C.3   809  TAD809      0.2144
     32  O3D        5.5570   45.3730   15.6410 O.3   809  TAD809     -0.2176
     33  C2D        6.8740   47.2470   16.4900 C.3   809  TAD809      0.2189
     34  O2D        5.6580   47.9950   16.3610 O.3   809  TAD809     -0.2172
     35  C1D        7.1600   46.7830   17.9200 C.3   809  TAD809      0.2057
     36  C2N        7.7650   47.8510   18.8050 C.2   809  TAD809      0.1642
     37  N3N        7.1000   48.4610   19.7720 N.2   809  TAD809     -0.3963
     38  C4N        7.8800   49.3790   20.3400 C.2   809  TAD809      0.1768
     39  C5N        9.1110   49.4670   19.8390 C.3   809  TAD809      0.1280
     40  S1N        9.3660   48.3500   18.5640 S.3   809  TAD809     -0.0765
     41  C6N        7.3410   50.2220   21.4530 C.2   809  TAD809      0.3106
     42  O6N        7.9870   51.1160   22.0200 O.2   809  TAD809     -0.2642
     43  N6N        6.0870   49.9340   21.7860 N.am  809  TAD809     -0.0817
@<TRIPOS>BOND
     1     3     1    2
     2    25    24    2
     3     2     1    1
     4     1    23    1
     5     1     4    1
     6    24    23    1
     7    24    26    1
     8    24    27    1
     9     4     5    1
    10    15    14    1
    11    15    16    2
    12    18    17    1
    13    27    28    1
    14    14    13    1
    15     5     6    1
    16    16    17    1
    17    16    22    1
    18    17    19    2
    19    28    29    1
    20    32    31    1
    21    31    29    1
    22    31    33    1
    23     7     6    1
    24     7    12    1
    25    13    22    1
    26    13    12    1
    27     6     8    1
    28    22    21    2
    29    34    33    1
    30    29    30    1
    31    33    35    1
    32    12    10    1
    33    19    20    1
    34    10     8    1
    35    10    11    1
    36     8     9    1
    37    21    20    1
    38    30    35    1
    39    35    36    1
    40    40    36    1
    41    40    39    1
    42    36    37    2
    43    37    38    2
    44    39    38    1
    45    38    41    1
    46    41    43   am
    47    41    42    2
