@<TRIPOS>MOLECULE
1kr3_113_A_1.pdb
 23 25 0 0 0
SMALL
GASTEIGER

@<TRIPOS>ATOM
      1  C1        -8.4010  -25.2030   16.7480 C.ar  602  113602      0.2375
      2  C2        -8.7350  -26.2580   15.8980 C.ar  602  113602      0.0829
      3  C3        -9.0250  -27.5000   16.4600 C.ar  602  113602      0.1514
      4  C4        -8.7720  -27.7290   17.8250 C.ar  602  113602      0.0831
      5  C5        -8.0110  -26.7770   18.5500 C.ar  602  113602      0.1278
      6  C6        -7.9340  -25.4560   18.0400 C.ar  602  113602      0.2408
      7  O8        -9.5650  -28.4950   15.6700 O.2   602  113602     -0.4575
      8  C9        -9.8710  -29.7460   16.1730 C.ar  602  113602      0.1290
      9  C10       -9.7960  -30.0420   17.4940 C.ar  602  113602      0.1029
     10  C11       -9.3230  -28.9540   18.4300 C.ar  602  113602      0.2022
     11  C12      -10.2880  -30.7620   15.1360 C.3   602  113602      0.0940
     12  C13       -9.9900  -32.1950   15.6270 C.3   602  113602      0.1257
     13  O14      -10.4640  -32.3900   16.9660 O.3   602  113602     -0.3290
     14  C15      -10.1690  -31.4390   18.0040 C.3   602  113602      0.2658
     15  O16       -7.4130  -24.3660   18.7330 O.3   602  113602     -0.2829
     16  O17       -8.5280  -23.8780   16.3590 O.3   602  113602     -0.2830
     17  C18       -7.3020  -27.1410   19.7960 C.2   602  113602      0.3912
     18  O19       -8.0010  -26.9500   20.9310 O.co2 602  113602     -0.2404
     19  O20       -9.2380  -31.9630   18.9490 O.3   602  113602     -0.3243
     20  C22       -7.9290  -32.3360   18.5560 C.3   602  113602      0.1772
     21  C26      -10.6130  -33.2820   14.7330 C.3   602  113602      0.0326
     22  O30       -6.1810  -27.6190   19.7930 O.co2 602  113602     -0.2404
     23  O31       -9.4210  -29.1300   19.6280 O.2   602  113602     -0.2865
@<TRIPOS>BOND
     1    21    12    1
     2    11    12    1
     3    11     8    1
     4    12    13    1
     5     7     8   ar
     6     7     3   ar
     7     2     3   ar
     8     2     1   ar
     9     8     9   ar
    10    16     1    1
    11     3     4   ar
    12     1     6   ar
    13    13    14    1
    14     9    14    1
    15     9    10   ar
    16     4    10   ar
    17     4     5   ar
    18    14    19    1
    19     6     5   ar
    20     6    15    1
    21    10    23    2
    22     5    17    1
    23    20    19    1
    24    22    17   ar
    25    17    18   ar
