@<TRIPOS>MOLECULE
1kr6_DGL_A_1.pdb
 10 9 0 0 0
SMALL
GASTEIGER

@<TRIPOS>ATOM
      1  N         34.9210   39.1910   61.4640 N.3   1317  DGL1317    -0.1208
      2  CA        35.4120   38.7690   60.1400 C.3   1317  DGL1317     0.1949
      3  C         34.3310   37.9470   59.4070 C.2   1317  DGL1317     0.3819
      4  O         34.4690   37.4750   58.3190 O.co2 1317  DGL1317    -0.2441
      5  CB        35.7700   40.0190   59.2940 C.3   1317  DGL1317     0.0424
      6  CG        34.8030   41.2010   59.5310 C.3   1317  DGL1317     0.1161
      7  CD        35.4320   42.5850   59.2580 C.2   1317  DGL1317     0.3649
      8  OE1       34.8470   43.6080   59.4070 O.co2 1317  DGL1317    -0.2457
      9  OE2       36.7010   42.5170   58.8040 O.co2 1317  DGL1317    -0.2457
     10  OXT       33.1950   37.8400   60.1400 O.co2 1317  DGL1317    -0.2441
@<TRIPOS>BOND
     1     4     3   ar
     2     9     7   ar
     3     7     8   ar
     4     7     6    1
     5     5     6    1
     6     5     2    1
     7     3     2    1
     8     3    10   ar
     9     2     1    1
