@<TRIPOS>MOLECULE
1kr7_HEM_A_1.pdb
 43 50 0 0 0
SMALL
GASTEIGER

@<TRIPOS>ATOM
      1 FE         28.1260   31.2630   10.1850 Fe    144  HEM144      0.0000
      2  CHA       24.9950   30.9430    8.8120 C.2   144  HEM144      0.0000
      3  CHB       27.0120   33.9160   12.0720 C.2   144  HEM144      0.0000
      4  CHC       31.2550   31.6230   11.5380 C.2   144  HEM144      0.0000
      5  CHD       29.3550   28.7860    8.1320 C.2   144  HEM144      0.0000
      6  NA        26.3580   32.2520   10.3880 N.2   144  HEM144      0.0000
      7  C1A       25.1680   31.9190    9.7660 C.2   144  HEM144      0.0000
      8  C2A       24.1170   32.7830   10.2630 C.2   144  HEM144      0.0000
      9  C3A       24.6820   33.6140   11.1570 C.2   144  HEM144      0.0000
     10  C4A       26.0920   33.3000   11.2480 C.2   144  HEM144      0.0000
     11  CMA       24.0010   34.7300   11.9640 C.3   144  HEM144      0.0000
     12  CAA       22.6340   32.7050    9.8230 C.3   144  HEM144      0.0000
     13  CBA       22.0200   31.7340   10.8400 C.3   144  HEM144      0.0000
     14  CGA       20.6700   31.1470   10.5370 C.2   144  HEM144      0.0000
     15  O1A       20.6020   30.1660    9.7500 O.co2 144  HEM144      0.0000
     16  O2A       19.6620   31.6060   11.1170 O.co2 144  HEM144      0.0000
     17  NB        28.9490   32.5260   11.5210 N.ar  144  HEM144      0.0000
     18  C1B       28.3160   33.5270   12.2370 C.ar  144  HEM144      0.0000
     19  C2B       29.2710   34.0930   13.1690 C.ar  144  HEM144      0.0000
     20  C3B       30.4260   33.4580   13.0170 C.ar  144  HEM144      0.0000
     21  C4B       30.2590   32.4650   11.9800 C.ar  144  HEM144      0.0000
     22  CMB       28.9590   35.2410   14.1510 C.3   144  HEM144      0.0000
     23  CAB       31.7400   33.7050   13.7830 C.2   144  HEM144      0.0000
     24  CBB       32.2660   34.9300   13.8220 C.2   144  HEM144      0.0000
     25  NC        29.9530   30.3770    9.8780 N.2   144  HEM144      0.0000
     26  C1C       31.1170   30.6650   10.5650 C.2   144  HEM144      0.0000
     27  C2C       32.1790   29.8030   10.0750 C.2   144  HEM144      0.0000
     28  C3C       31.6530   29.0080    9.1340 C.2   144  HEM144      0.0000
     29  C4C       30.2560   29.3700    8.9870 C.2   144  HEM144      0.0000
     30  CMC       33.6330   29.7680   10.6050 C.3   144  HEM144      0.0000
     31  CAC       32.4170   27.9080    8.3680 C.2   144  HEM144      0.0000
     32  CBC       32.1470   27.6040    7.0950 C.2   144  HEM144      0.0000
     33  ND        27.3240   30.0940    8.7410 N.ar  144  HEM144      0.0000
     34  C1D       28.0260   29.1310    8.0120 C.ar  144  HEM144      0.0000
     35  C2D       27.1440   28.5360    7.0390 C.ar  144  HEM144      0.0000
     36  C3D       25.7990   29.2010    7.2330 C.ar  144  HEM144      0.0000
     37  C4D       25.9980   30.1400    8.3160 C.ar  144  HEM144      0.0000
     38  CMD       27.4880   27.4500    6.0050 C.3   144  HEM144      0.0000
     39  CAD       24.5020   28.9490    6.4460 C.3   144  HEM144      0.0000
     40  CBD       24.5260   29.8880    5.2410 C.3   144  HEM144      0.0000
     41  CGD       23.3690   29.6120    4.3090 C.2   144  HEM144      0.0000
     42  O1D       23.5760   29.6130    3.0620 O.co2 144  HEM144      0.0000
     43  O2D       22.2300   29.4100    4.8050 O.co2 144  HEM144      0.0000
@<TRIPOS>BOND
     1    42    41   ar
     2    41    43   ar
     3    41    40    1
     4    40    39    1
     5    38    35    1
     6    39    36    1
     7    35    36   ar
     8    35    34   ar
     9    32    31    2
    10    36    37   ar
    11    34     5    2
    12    34    33   ar
    13     5    29    1
    14    37    33   ar
    15    37     2    2
    16    31    28    1
    17    33     1    1
    18     2     7    1
    19    29    28    1
    20    29    25    2
    21    28    27    2
    22    15    14   ar
    23     7     8    1
    24     7     6    2
    25    12     8    1
    26    12    13    1
    27    25     1    1
    28    25    26    1
    29    27    26    1
    30    27    30    1
    31     1     6    1
    32     1    17    1
    33     8     9    2
    34     6    10    1
    35    14    13    1
    36    14    16   ar
    37    26     4    2
    38     9    10    1
    39     9    11    1
    40    10     3    2
    41    17    21   ar
    42    17    18   ar
    43     4    21    1
    44    21    20   ar
    45     3    18    1
    46    18    19   ar
    47    20    19   ar
    48    20    23    1
    49    19    22    1
    50    23    24    2
