@<TRIPOS>MOLECULE
1kre_MAN_A_1.pdb
 11 11 0 0 0
SMALL
GASTEIGER

@<TRIPOS>ATOM
      1  C1        61.0480   39.5570  -51.0480 C.3   704  MAN704      0.1777
      2  C2        60.8870   40.4330  -52.2900 C.3   704  MAN704      0.2141
      3  C3        59.4030   40.5910  -52.6220 C.3   704  MAN704      0.2173
      4  C4        58.7480   39.2140  -52.7800 C.3   704  MAN704      0.2142
      5  C5        59.0130   38.3540  -51.5390 C.3   704  MAN704      0.1810
      6  C6        58.5270   36.9240  -51.6900 C.3   704  MAN704      0.2141
      7  O2        61.5550   39.8230  -53.3860 O.3   704  MAN704     -0.2176
      8  O3        59.2650   41.3270  -53.8280 O.3   704  MAN704     -0.2175
      9  O4        57.3480   39.3720  -52.9640 O.3   704  MAN704     -0.2176
     10  O5        60.4320   38.2920  -51.2670 O.3   704  MAN704     -0.3481
     11  O6        58.9870   36.1140  -50.6160 O.3   704  MAN704     -0.2176
@<TRIPOS>BOND
     1     8     3    1
     2     7     2    1
     3     9     4    1
     4     4     3    1
     5     4     5    1
     6     3     2    1
     7     2     1    1
     8     6     5    1
     9     6    11    1
    10     5    10    1
    11    10     1    1
