@<TRIPOS>MOLECULE
1kre_NAG_A_1.pdb
 14 14 0 0 0
SMALL
GASTEIGER

@<TRIPOS>ATOM
      1  C1        10.3860   20.4840  -38.4310 C.3   600  NAG600      0.1665
      2  C2        10.7330   20.0690  -37.0050 C.3   600  NAG600      0.1576
      3  C3         9.9730   18.8030  -36.6030 C.3   600  NAG600      0.2069
      4  C4         8.4760   18.9120  -36.9380 C.3   600  NAG600      0.2134
      5  C5         8.2760   19.3990  -38.3730 C.3   600  NAG600      0.1809
      6  C6         6.8220   19.6470  -38.7150 C.3   600  NAG600      0.2141
      7  C7        12.8490   20.3790  -35.9200 C.2   600  NAG600      0.2420
      8  C8        13.4960   19.4470  -34.9090 C.3   600  NAG600      0.0964
      9  N2        12.1560   19.8260  -36.9080 N.am  600  NAG600     -0.2019
     10  O3        10.1300   18.5910  -35.2060 O.3   600  NAG600     -0.2184
     11  O4         7.8410   17.6290  -36.7810 O.3   600  NAG600     -0.2176
     12  O5         8.9760   20.6390  -38.5700 O.3   600  NAG600     -0.3489
     13  O6         6.4590   18.9430  -39.8930 O.3   600  NAG600     -0.2176
     14  O7        12.9650   21.5960  -35.7930 O.2   600  NAG600     -0.2733
@<TRIPOS>BOND
     1    13     6    1
     2     6     5    1
     3    12     1    1
     4    12     5    1
     5     1     2    1
     6     5     4    1
     7     2     9    1
     8     2     3    1
     9     4    11    1
    10     4     3    1
    11     9     7   am
    12     3    10    1
    13     7    14    2
    14     7     8    1
