@<TRIPOS>MOLECULE
1kre_DMJ_A_1.pdb
 11 11 0 0 0
SMALL
GASTEIGER

@<TRIPOS>ATOM
      1  C4        34.7740   25.5090  -42.9130 C.3   901  DMJ901      0.2031
      2  O4        33.3380   25.3390  -42.8920 O.3   901  DMJ901     -0.2187
      3  C3        35.0300   26.4920  -44.1500 C.3   901  DMJ901      0.2151
      4  O3        36.4130   26.8030  -44.3920 O.3   901  DMJ901     -0.2176
      5  C2        34.2190   27.8600  -43.9200 C.3   901  DMJ901      0.2020
      6  O2        34.4490   28.7540  -45.0020 O.3   901  DMJ901     -0.2188
      7  C1        34.6590   28.5030  -42.5430 C.3   901  DMJ901      0.1243
      8  N5        34.3530   27.5040  -41.5270 N.3   901  DMJ901     -0.2113
      9  C5        35.1180   26.1490  -41.5060 C.3   901  DMJ901      0.1386
     10  C6        36.6540   26.3820  -41.2670 C.3   901  DMJ901      0.2020
     11  O6        37.5550   27.0330  -40.3610 O.3   901  DMJ901     -0.2188
@<TRIPOS>BOND
     1     6     5    1
     2     4     3    1
     3     3     5    1
     4     3     1    1
     5     5     7    1
     6     1     2    1
     7     1     9    1
     8     7     8    1
     9     8     9    1
    10     9    10    1
    11    10    11    1
