@<TRIPOS>MOLECULE
1krf_NAG_A_1.pdb
 14 14 0 0 0
SMALL
GASTEIGER

@<TRIPOS>ATOM
      1  C1        10.3150   20.6020  -38.5060 C.3   600  NAG600      0.1665
      2  C2        10.6800   20.1760  -37.0930 C.3   600  NAG600      0.1576
      3  C3         9.8950   18.9260  -36.6720 C.3   600  NAG600      0.2069
      4  C4         8.3940   19.0560  -36.9920 C.3   600  NAG600      0.2134
      5  C5         8.1890   19.5480  -38.4250 C.3   600  NAG600      0.1809
      6  C6         6.7340   19.8190  -38.7470 C.3   600  NAG600      0.2141
      7  C7        12.8010   20.2170  -35.9720 C.2   600  NAG600      0.2420
      8  C8        13.2290   19.0800  -35.0570 C.3   600  NAG600      0.0964
      9  N2        12.0980   19.8920  -37.0480 N.am  600  NAG600     -0.2019
     10  O3        10.0590   18.7280  -35.2750 O.3   600  NAG600     -0.2184
     11  O4         7.7440   17.7790  -36.8330 O.3   600  NAG600     -0.2176
     12  O5         8.9050   20.7810  -38.6240 O.3   600  NAG600     -0.3489
     13  O6         6.2610   18.9170  -39.7340 O.3   600  NAG600     -0.2176
     14  O7        13.0970   21.3770  -35.6960 O.2   600  NAG600     -0.2733
@<TRIPOS>BOND
     1    13     6    1
     2     6     5    1
     3    12     1    1
     4    12     5    1
     5     1     2    1
     6     5     4    1
     7     2     9    1
     8     2     3    1
     9     9     7   am
    10     4    11    1
    11     4     3    1
    12     3    10    1
    13     7    14    2
    14     7     8    1
