@<TRIPOS>MOLECULE
1krf_KIF_A_1.pdb
 16 17 0 0 0
SMALL
GASTEIGER

@<TRIPOS>ATOM
      1  C4        34.9990   25.6940  -42.9850 C.3   901  KIF901      0.2054
      2  O4        33.5740   25.5080  -42.9520 O.3   901  KIF901     -0.2184
      3  C3        35.2230   26.7320  -44.1740 C.3   901  KIF901      0.2177
      4  O3        36.5840   27.0540  -44.4210 O.3   901  KIF901     -0.2175
      5  C2        34.4060   28.0720  -43.8560 C.3   901  KIF901      0.2268
      6  O2        34.6420   28.9990  -44.9060 O.3   901  KIF901     -0.2163
      7  C1        34.8730   28.6280  -42.4390 C.3   901  KIF901      0.2260
      8  N9        34.0400   29.8030  -42.1680 N.2   901  KIF901     -0.1772
      9  C8        33.7930   29.6240  -40.8310 C.1   901  KIF901      0.2069
     10  O8        33.3800   30.4890  -40.0840 O.2   901  KIF901     -0.2176
     11  C7        34.1150   28.1940  -40.4180 C.2   901  KIF901      0.3335
     12  O7        34.0070   27.7140  -39.3050 O.2   901  KIF901     -0.2568
     13  N         34.4850   27.6110  -41.5270 N.am  901  KIF901     -0.2424
     14  C5        35.3410   26.2870  -41.5570 C.3   901  KIF901      0.1439
     15  C6        36.8730   26.5420  -41.3370 C.3   901  KIF901      0.2045
     16  O6        37.7680   27.2290  -40.4490 O.3   901  KIF901     -0.2185
@<TRIPOS>BOND
     1     6     5    1
     2     4     3    1
     3     3     5    1
     4     3     1    1
     5     5     7    1
     6     1     2    1
     7     1    14    1
     8     7     8    1
     9     7    13    1
    10     8     9    2
    11    14    13    1
    12    14    15    1
    13    13    11   am
    14    15    16    1
    15     9    11    1
    16     9    10    2
    17    11    12    2
