@<TRIPOS>MOLECULE
1krf_MAN_A_1.pdb
 11 11 0 0 0
SMALL
GASTEIGER

@<TRIPOS>ATOM
      1  C1        61.0670   39.5220  -51.1370 C.3   704  MAN704      0.1777
      2  C2        60.9750   40.4000  -52.3850 C.3   704  MAN704      0.2141
      3  C3        59.5080   40.6940  -52.6960 C.3   704  MAN704      0.2173
      4  C4        58.7360   39.3820  -52.8610 C.3   704  MAN704      0.2142
      5  C5        58.9280   38.4930  -51.6230 C.3   704  MAN704      0.1810
      6  C6        58.3310   37.1070  -51.8020 C.3   704  MAN704      0.2141
      7  O2        61.5630   39.7170  -53.4820 O.3   704  MAN704     -0.2176
      8  O3        59.4160   41.4560  -53.8900 O.3   704  MAN704     -0.2175
      9  O4        57.3570   39.6630  -53.0420 O.3   704  MAN704     -0.2176
     10  O5        60.3390   38.3130  -51.3450 O.3   704  MAN704     -0.3481
     11  O6        58.8350   36.2010  -50.8290 O.3   704  MAN704     -0.2176
@<TRIPOS>BOND
     1     8     3    1
     2     7     2    1
     3     9     4    1
     4     4     3    1
     5     4     5    1
     6     3     2    1
     7     2     1    1
     8     6     5    1
     9     6    11    1
    10     5    10    1
    11    10     1    1
