@<TRIPOS>MOLECULE
1krj_HEM_A_1.pdb
 43 50 0 0 0
SMALL
GASTEIGER

@<TRIPOS>ATOM
      1 FE         28.3770   91.5710   52.1020 Fe    296  HEM296      0.0000
      2  CHA       28.0320   93.7430   49.4830 C.2   296  HEM296      0.0000
      3  CHB       30.8970   93.5180   53.3960 C.2   296  HEM296      0.0000
      4  CHC       28.5410   89.5680   54.9280 C.2   296  HEM296      0.0000
      5  CHD       25.6640   89.8070   51.0040 C.2   296  HEM296      0.0000
      6  NA        29.3040   93.2720   51.5320 N.2   296  HEM296      0.0000
      7  C1A       29.0040   94.0450   50.4300 C.2   296  HEM296      0.0000
      8  C2A       29.8630   95.2020   50.3980 C.2   296  HEM296      0.0000
      9  C3A       30.6790   95.1230   51.4700 C.2   296  HEM296      0.0000
     10  C4A       30.3290   93.9250   52.1920 C.2   296  HEM296      0.0000
     11  CMA       31.7530   96.1420   51.8540 C.3   296  HEM296      0.0000
     12  CAA       29.8250   96.2910   49.3430 C.3   296  HEM296      0.0000
     13  CBA       28.7540   97.3390   49.5420 C.3   296  HEM296      0.0000
     14  CGA       28.6810   98.2940   48.3830 C.2   296  HEM296      0.0000
     15  O1A       29.6580   99.0240   48.1480 O.co2 296  HEM296      0.0000
     16  O2A       27.6550   98.3160   47.6840 O.co2 296  HEM296      0.0000
     17  NB        29.5380   91.5060   53.8060 N.ar  296  HEM296      0.0000
     18  C1B       30.5380   92.4000   54.1490 C.ar  296  HEM296      0.0000
     19  C2B       31.1460   91.9990   55.3970 C.ar  296  HEM296      0.0000
     20  C3B       30.5410   90.8550   55.7920 C.ar  296  HEM296      0.0000
     21  C4B       29.4780   90.5980   54.8390 C.ar  296  HEM296      0.0000
     22  CMB       32.2710   92.7540   56.0920 C.3   296  HEM296      0.0000
     23  CAB       30.8120   90.0080   56.8860 C.3   296  HEM296      0.0000
     24  CBB       31.9570   89.9280   57.8030 C.3   296  HEM296      0.0000
     25  NC        27.3370   89.9760   52.8060 N.2   296  HEM296      0.0000
     26  C1C       27.5390   89.2900   53.9900 C.2   296  HEM296      0.0000
     27  C2C       26.4710   88.3320   54.1810 C.2   296  HEM296      0.0000
     28  C3C       25.6160   88.4680   53.1340 C.2   296  HEM296      0.0000
     29  C4C       26.2160   89.4200   52.2260 C.2   296  HEM296      0.0000
     30  CMC       26.3390   87.4320   55.4160 C.3   296  HEM296      0.0000
     31  CAC       24.3330   87.9080   52.9270 C.3   296  HEM296      0.0000
     32  CBC       23.9090   86.5660   53.2530 C.3   296  HEM296      0.0000
     33  ND        27.1610   91.6850   50.5060 N.ar  296  HEM296      0.0000
     34  C1D       26.1150   90.8450   50.1950 C.ar  296  HEM296      0.0000
     35  C2D       25.6350   91.1390   48.8660 C.ar  296  HEM296      0.0000
     36  C3D       26.3120   92.2260   48.4340 C.ar  296  HEM296      0.0000
     37  C4D       27.1880   92.6350   49.5060 C.ar  296  HEM296      0.0000
     38  CMD       24.5910   90.3760   48.0530 C.3   296  HEM296      0.0000
     39  CAD       26.1950   92.8740   47.0420 C.3   296  HEM296      0.0000
     40  CBD       25.3400   94.1340   47.0920 C.3   296  HEM296      0.0000
     41  CGD       25.2610   94.8790   45.7680 C.2   296  HEM296      0.0000
     42  O1D       24.6590   95.9660   45.7540 O.co2 296  HEM296      0.0000
     43  O2D       25.7780   94.3930   44.7360 O.co2 296  HEM296      0.0000
@<TRIPOS>BOND
     1    43    41   ar
     2    42    41   ar
     3    41    40    1
     4    39    40    1
     5    39    36    1
     6    16    14   ar
     7    38    35    1
     8    15    14   ar
     9    14    13    1
    10    36    35   ar
    11    36    37   ar
    12    35    34   ar
    13    12    13    1
    14    12     8    1
    15     2    37    2
    16     2     7    1
    17    37    33   ar
    18    34    33   ar
    19    34     5    2
    20     8     7    1
    21     8     9    2
    22     7     6    2
    23    33     1    1
    24     5    29    1
    25     9    11    1
    26     9    10    1
    27     6     1    1
    28     6    10    1
    29     1    25    1
    30     1    17    1
    31    10     3    2
    32    29    25    2
    33    29    28    1
    34    25    26    1
    35    31    28    1
    36    31    32    1
    37    28    27    2
    38     3    18    1
    39    17    18   ar
    40    17    21   ar
    41    26    27    1
    42    26     4    2
    43    18    19   ar
    44    27    30    1
    45    21     4    1
    46    21    20   ar
    47    19    20   ar
    48    19    22    1
    49    20    23    1
    50    23    24    1
