@<TRIPOS>MOLECULE
1krm_PRH_A_1.pdb
 19 21 0 0 0
SMALL
GASTEIGER

@<TRIPOS>ATOM
      1  N1        56.6320   52.8150   17.6970 N.3   401  PRH401     -0.1314
      2  C2        55.8440   53.8670   17.1720 C.3   401  PRH401      0.3590
      3  N3        55.6240   54.9970   17.8540 N.2   401  PRH401     -0.0430
      4  C4        56.0530   54.9100   19.2050 C.2   401  PRH401      0.3406
      5  C5        56.4840   53.7240   19.7550 C.2   401  PRH401      0.1865
      6  C6        56.4820   52.4470   19.0630 C.3   401  PRH401      0.2767
      7  O6        57.7720   51.8330   19.3370 O.3   401  PRH401     -0.1965
      8  N7        56.8360   53.9120   21.0020 N.2   401  PRH401     -0.2168
      9  C8        56.5650   55.2280   21.1990 C.3   401  PRH401      0.3373
     10  N9        56.1270   55.8710   20.0980 N.pl3 401  PRH401     -0.1443
     11  C1'       56.0540   57.3260   19.8390 C.3   401  PRH401      0.3186
     12  C2'       55.0190   58.2730   20.4600 C.3   401  PRH401      0.2570
     13  O2'       54.4310   59.1110   19.3730 O.3   401  PRH401     -0.2130
     14  C3'       55.8920   59.3320   21.1550 C.3   401  PRH401      0.2186
     15  O3'       55.5290   60.7390   21.0320 O.3   401  PRH401     -0.2174
     16  C4'       57.1340   59.2410   20.3290 C.3   401  PRH401      0.1851
     17  O4'       57.2620   57.8640   20.3240 O.3   401  PRH401     -0.3134
     18  C5'       58.3600   59.9240   20.8840 C.3   401  PRH401      0.2143
     19  O5'       58.4830   59.4140   22.3020 O.3   401  PRH401     -0.2176
@<TRIPOS>BOND
     1     2     1    1
     2     2     3    1
     3     1     6    1
     4     3     4    2
     5     6     7    1
     6     6     5    1
     7     4     5    1
     8     4    10    1
     9    13    12    1
    10     5     8    2
    11    11    10    1
    12    11    17    1
    13    11    12    1
    14    10     9    1
    15    17    16    1
    16    16    18    1
    17    16    14    1
    18    12    14    1
    19    18    19    1
    20     8     9    1
    21    15    14    1
