@<TRIPOS>MOLECULE
1kru_COA_A_1.pdb
 48 50 0 0 0
SMALL
GASTEIGER

@<TRIPOS>ATOM
      1  N1A      -15.1660  -23.1840  -16.8990 N.2   204  COA204      0.0021
      2  C2A      -14.3070  -22.2680  -17.4040 C.3   204  COA204      0.5254
      3  N3A      -13.1180  -22.4900  -18.0130 N.2   204  COA204     -0.0055
      4  C4A      -12.8250  -23.8240  -18.0840 C.2   204  COA204      0.3518
      5  C5A      -13.6210  -24.8650  -17.6150 C.2   204  COA204      0.2526
      6  C6A      -14.8440  -24.5220  -16.9870 C.2   204  COA204      0.4393
      7  N6A      -15.6800  -25.4150  -16.4860 N.pl3 204  COA204      0.2180
      8  N7A      -13.0400  -26.0700  -17.8490 N.2   204  COA204     -0.2095
      9  C8A      -11.9050  -25.7740  -18.4530 C.3   204  COA204      0.3377
     10  N9A      -11.6970  -24.4410  -18.6360 N.pl3 204  COA204     -0.1439
     11  C1B      -10.5270  -23.7790  -19.2550 C.3   204  COA204      0.3185
     12  C2B       -9.2310  -24.3680  -18.7130 C.3   204  COA204      0.2543
     13  O2B       -8.9070  -23.8690  -17.4020 O.3   204  COA204     -0.2131
     14  C3B       -8.2060  -23.9940  -19.7430 C.3   204  COA204      0.1928
     15  O3B       -7.6550  -22.6900  -19.4520 O.3   204  COA204     -0.2673
     16  P3B       -6.5300  -22.0250  -20.3580 P.3   204  COA204      0.5327
     17  O7A       -6.1760  -20.7000  -19.7900 O.3   204  COA204     -0.1145
     18  O8A       -7.0310  -21.8420  -21.7530 O.2   204  COA204     -0.2224
     19  O9A       -5.3200  -22.8910  -20.3700 O.3   204  COA204     -0.1145
     20  C4B       -9.0410  -24.1160  -21.0400 C.3   204  COA204      0.1795
     21  O4B      -10.4440  -23.9870  -20.6380 O.3   204  COA204     -0.3136
     22  C5B       -8.8890  -25.4410  -21.8100 C.3   204  COA204      0.1812
     23  O5B       -9.5530  -26.5650  -21.1330 O.3   204  COA204     -0.3112
     24  P1A       -8.7370  -27.9650  -20.9150 P.3   204  COA204      0.2189
     25  O1A       -7.7670  -27.8120  -19.8150 O.3   204  COA204     -0.4371
     26  O2A       -8.0260  -28.3390  -22.1580 O.2   204  COA204     -0.5170
     27  O3A       -9.8670  -29.0000  -20.5700 O.3   204  COA204     -0.2703
     28  P2A      -10.8550  -30.0140  -21.4730 P.3   204  COA204      0.2188
     29  O4A      -10.3220  -31.4140  -21.4380 O.3   204  COA204     -0.4371
     30  O5A      -10.8440  -29.5640  -22.8820 O.2   204  COA204     -0.5170
     31  O6A      -12.2160  -29.7320  -20.6560 O.3   204  COA204     -0.3138
     32  CBP      -13.5360  -30.6050  -18.5540 C.3   204  COA204      0.0645
     33  CCP      -12.1640  -30.3810  -19.2920 C.3   204  COA204      0.1519
     34  CDP      -14.7070  -30.0450  -19.3800 C.3   204  COA204      0.0056
     35  CEP      -13.7670  -32.1120  -18.3780 C.3   204  COA204      0.0056
     36  CAP      -13.4690  -29.8950  -17.1370 C.3   204  COA204      0.2312
     37  OAP      -13.1220  -28.5320  -17.3130 O.3   204  COA204     -0.2131
     38  C9P      -14.8180  -29.8970  -16.2900 C.2   204  COA204      0.2719
     39  O9P      -15.3610  -28.8040  -15.9480 O.2   204  COA204     -0.2706
     40  N8P      -15.3670  -31.0440  -15.9480 N.am  204  COA204     -0.2028
     41  C7P      -16.6190  -31.1490  -15.1550 C.3   204  COA204      0.1248
     42  C6P      -16.3330  -31.9040  -13.8420 C.3   204  COA204      0.1102
     43  C5P      -17.5870  -32.0690  -12.9870 C.2   204  COA204      0.2432
     44  O5P      -18.4150  -31.1580  -12.8640 O.2   204  COA204     -0.2733
     45  N4P      -17.7070  -33.2550  -12.4140 N.am  204  COA204     -0.2044
     46  C3P      -18.8580  -33.5970  -11.5620 C.3   204  COA204      0.1276
     47  C2P      -18.9870  -35.1090  -11.4190 C.3   204  COA204      0.0920
     48  S1P      -19.2610  -35.9620  -13.0420 S.3   204  COA204     -0.0802
@<TRIPOS>BOND
     1    30    28    2
     2    26    24    2
     3    22    23    1
     4    22    20    1
     5    18    16    2
     6    28    29    1
     7    28    31    1
     8    28    27    1
     9    23    24    1
    10    20    21    1
    11    20    14    1
    12    24    27    1
    13    24    25    1
    14    31    33    1
    15    21    11    1
    16    19    16    1
    17    16    17    1
    18    16    15    1
    19    14    15    1
    20    14    12    1
    21    34    32    1
    22    33    32    1
    23    11    12    1
    24    11    10    1
    25    12    13    1
    26    10     9    1
    27    10     4    1
    28    32    35    1
    29    32    36    1
    30     9     8    1
    31     4     3    2
    32     4     5    1
    33     3     2    1
    34     8     5    2
    35     5     6    1
    36     2     1    1
    37    37    36    1
    38    36    38    1
    39     6     1    2
    40     6     7    1
    41    38    40   am
    42    38    39    2
    43    40    41    1
    44    41    42    1
    45    42    43    1
    46    48    47    1
    47    43    44    2
    48    43    45   am
    49    45    46    1
    50    46    47    1
