@<TRIPOS>MOLECULE
1kru_IPT_A_1.pdb
 15 15 0 0 0
SMALL
GASTEIGER

@<TRIPOS>ATOM
      1  C1       -43.7040  -19.6100  -10.6040 C.3   209  IPT209      0.1955
      2  C2       -44.1600  -20.9690  -11.2490 C.3   209  IPT209      0.2219
      3  O2       -45.3920  -21.4310  -10.6700 O.3   209  IPT209     -0.2167
      4  C3       -43.0650  -22.0240  -11.0300 C.3   209  IPT209      0.2181
      5  O3       -43.4310  -23.2880  -11.6220 O.3   209  IPT209     -0.2175
      6  C4       -41.7620  -21.5040  -11.6680 C.3   209  IPT209      0.2143
      7  O4       -41.9210  -21.3360  -13.0890 O.3   209  IPT209     -0.2176
      8  C5       -41.3840  -20.1440  -11.0260 C.3   209  IPT209      0.1820
      9  O5       -42.4770  -19.1660  -11.1610 O.3   209  IPT209     -0.3398
     10  C6       -40.1170  -19.5750  -11.6380 C.3   209  IPT209      0.2142
     11  O6       -39.7720  -18.3190  -11.0290 O.3   209  IPT209     -0.2176
     12  S1       -44.6860  -18.5560  -10.8100 S.3   209  IPT209     -0.1102
     13  C1'      -44.6010  -17.1900  -10.3660 C.3   209  IPT209      0.0500
     14  C2'      -45.6820  -16.7560   -9.2380 C.3   209  IPT209      0.0117
     15  C3'      -43.1420  -16.6290   -9.9250 C.3   209  IPT209      0.0117
@<TRIPOS>BOND
     1     7     6    1
     2     6     4    1
     3     6     8    1
     4    10    11    1
     5    10     8    1
     6     5     4    1
     7     2     4    1
     8     2     3    1
     9     2     1    1
    10     9     8    1
    11     9     1    1
    12    12     1    1
    13    12    13    1
    14    13    15    1
    15    13    14    1
