@<TRIPOS>MOLECULE
1krv_COA_A_1.pdb
 48 50 0 0 0
SMALL
GASTEIGER

@<TRIPOS>ATOM
      1  N1A      -15.1490  -23.2330  -17.0520 N.2   207  COA207      0.0021
      2  C2A      -14.3120  -22.3200  -17.6120 C.3   207  COA207      0.5254
      3  N3A      -13.0680  -22.5260  -18.1030 N.2   207  COA207     -0.0055
      4  C4A      -12.6960  -23.8470  -17.9850 C.2   207  COA207      0.3518
      5  C5A      -13.4570  -24.8750  -17.4350 C.2   207  COA207      0.2526
      6  C6A      -14.7460  -24.5450  -16.9450 C.2   207  COA207      0.4393
      7  N6A      -15.5720  -25.4290  -16.3980 N.pl3 207  COA207      0.2180
      8  N7A      -12.7870  -26.0550  -17.4750 N.2   207  COA207     -0.2095
      9  C8A      -11.6280  -25.7580  -18.0310 C.3   207  COA207      0.3377
     10  N9A      -11.4920  -24.4460  -18.3740 N.pl3 207  COA207     -0.1439
     11  C1B      -10.3250  -23.7820  -18.9990 C.3   207  COA207      0.3185
     12  C2B       -9.0230  -24.3820  -18.4920 C.3   207  COA207      0.2543
     13  O2B       -8.6080  -23.8200  -17.2310 O.3   207  COA207     -0.2131
     14  C3B       -8.0280  -24.1220  -19.5810 C.3   207  COA207      0.1928
     15  O3B       -7.3050  -22.8930  -19.3180 O.3   207  COA207     -0.2673
     16  P3B       -6.1600  -22.3370  -20.2800 P.3   207  COA207      0.5327
     17  O7A       -5.6430  -21.0730  -19.6970 O.3   207  COA207     -0.1145
     18  O8A       -6.7050  -22.0690  -21.6540 O.2   207  COA207     -0.2224
     19  O9A       -5.0490  -23.3260  -20.3700 O.3   207  COA207     -0.1145
     20  C4B       -8.9300  -24.1490  -20.8400 C.3   207  COA207      0.1795
     21  O4B      -10.2920  -23.9560  -20.3900 O.3   207  COA207     -0.3136
     22  C5B       -8.8850  -25.4410  -21.6820 C.3   207  COA207      0.1812
     23  O5B       -9.4480  -26.6190  -20.9890 O.3   207  COA207     -0.3112
     24  P1A       -8.5830  -28.0190  -20.8880 P.3   207  COA207      0.2189
     25  O1A       -7.7260  -27.9820  -19.6880 O.3   207  COA207     -0.4371
     26  O2A       -7.7360  -28.2090  -22.1000 O.2   207  COA207     -0.5170
     27  O3A       -9.6860  -29.1310  -20.7800 O.3   207  COA207     -0.2703
     28  P2A      -10.8810  -29.7380  -21.7870 P.3   207  COA207      0.2188
     29  O4A      -10.6730  -31.2090  -21.9890 O.3   207  COA207     -0.4371
     30  O5A      -10.7970  -29.0770  -23.1100 O.2   207  COA207     -0.5170
     31  O6A      -12.1390  -29.3130  -20.8580 O.3   207  COA207     -0.3138
     32  CBP      -13.6460  -30.2780  -18.9110 C.3   207  COA207      0.0645
     33  CCP      -12.2710  -30.2640  -19.6840 C.3   207  COA207      0.1519
     34  CDP      -14.6470  -29.3110  -19.5650 C.3   207  COA207      0.0056
     35  CEP      -14.2280  -31.6900  -18.9850 C.3   207  COA207      0.0056
     36  CAP      -13.4100  -29.8730  -17.3980 C.3   207  COA207      0.2312
     37  OAP      -12.8510  -28.5830  -17.3570 O.3   207  COA207     -0.2131
     38  C9P      -14.7120  -29.7960  -16.4660 C.2   207  COA207      0.2719
     39  O9P      -15.0450  -28.7070  -15.9120 O.2   207  COA207     -0.2706
     40  N8P      -15.4390  -30.8740  -16.2690 N.am  207  COA207     -0.2028
     41  C7P      -16.6530  -30.9130  -15.4100 C.3   207  COA207      0.1248
     42  C6P      -16.3250  -31.7900  -14.1860 C.3   207  COA207      0.1102
     43  C5P      -17.4960  -31.9530  -13.2230 C.2   207  COA207      0.2432
     44  O5P      -18.3110  -31.0400  -13.0080 O.2   207  COA207     -0.2733
     45  N4P      -17.5530  -33.1490  -12.6560 N.am  207  COA207     -0.2044
     46  C3P      -18.6090  -33.5170  -11.6960 C.3   207  COA207      0.1276
     47  C2P      -18.7060  -35.0320  -11.5390 C.3   207  COA207      0.0920
     48  S1P      -19.4380  -35.8590  -13.0230 S.3   207  COA207     -0.0802
@<TRIPOS>BOND
     1    30    28    2
     2    26    24    2
     3    29    28    1
     4    28    31    1
     5    28    27    1
     6    22    23    1
     7    22    20    1
     8    18    16    2
     9    23    24    1
    10    24    27    1
    11    24    25    1
    12    31    33    1
    13    20    21    1
    14    20    14    1
    15    21    11    1
    16    19    16    1
    17    16    17    1
    18    16    15    1
    19    33    32    1
    20    14    15    1
    21    14    12    1
    22    34    32    1
    23    11    12    1
    24    11    10    1
    25    35    32    1
    26    32    36    1
    27    12    13    1
    28    10     9    1
    29    10     4    1
    30     3     4    2
    31     3     2    1
    32     9     8    1
    33     4     5    1
    34     2     1    1
    35     8     5    2
    36     5     6    1
    37    36    37    1
    38    36    38    1
    39     1     6    2
    40     6     7    1
    41    38    40   am
    42    38    39    2
    43    40    41    1
    44    41    42    1
    45    42    43    1
    46    43    44    2
    47    43    45   am
    48    48    47    1
    49    45    46    1
    50    46    47    1
