@<TRIPOS>MOLECULE
1krv_147_A_1.pdb
 21 22 0 0 0
SMALL
GASTEIGER

@<TRIPOS>ATOM
      1  C1       -44.1810  -20.3950  -10.4980 C.3   206  147206      0.3218
      2  C2       -44.6440  -21.6990  -11.2010 C.3   206  147206      0.2542
      3  O2       -45.9130  -22.1450  -10.6440 O.3   206  147206     -0.2135
      4  C3       -43.5020  -22.7850  -11.0410 C.3   206  147206      0.2211
      5  O3       -43.9290  -24.0210  -11.7100 O.3   206  147206     -0.2173
      6  C4       -42.1430  -22.2230  -11.6760 C.3   206  147206      0.2145
      7  O4       -42.3220  -21.8450  -13.0640 O.3   206  147206     -0.2176
      8  C5       -41.7090  -20.8980  -10.9220 C.3   206  147206      0.1846
      9  C6       -40.3760  -20.3330  -11.5160 C.3   206  147206      0.2142
     10  O6       -39.9030  -19.1200  -10.8690 O.3   206  147206     -0.2176
     11  O5       -42.8720  -19.9160  -11.0410 O.3   206  147206     -0.3157
     12  O1'      -45.2270  -19.4340  -10.6540 O.3   206  147206     -0.4505
     13  C1'      -45.2010  -18.0300  -10.0880 C.ar  206  147206      0.1415
     14  C2'      -44.1420  -17.0690  -10.2700 C.ar  206  147206      0.0387
     15  C3'      -44.2370  -15.7930   -9.6620 C.ar  206  147206      0.0272
     16  C4'      -45.4380  -15.4680   -8.8410 C.ar  206  147206      0.1431
     17  C5'      -46.4830  -16.3560   -8.6440 C.ar  206  147206      0.0272
     18  C6'      -46.4000  -17.6400   -9.2500 C.ar  206  147206      0.0387
     19  N1'      -45.4000  -14.0750   -8.2390 N.pl3 206  147206      0.0577
     20  O2'      -46.4340  -13.4510   -8.1670 O.2   206  147206     -0.1261
     21  O3'      -44.3250  -13.7160   -7.7030 O.2   206  147206     -0.1261
@<TRIPOS>BOND
     1     7     6    1
     2     5     4    1
     3     6     4    1
     4     6     8    1
     5     9     8    1
     6     9    10    1
     7     2     4    1
     8     2     3    1
     9     2     1    1
    10    11     8    1
    11    11     1    1
    12    12     1    1
    13    12    13    1
    14    14    13   ar
    15    14    15   ar
    16    13    18   ar
    17    15    16   ar
    18    18    17   ar
    19    16    17   ar
    20    16    19    1
    21    19    20    2
    22    19    21    2
