@<TRIPOS>MOLECULE
1ksf_ADP_X_1.pdb
 27 29 0 0 0
SMALL
GASTEIGER

@<TRIPOS>ATOM
      1  PB       131.1530   28.1920   18.4700 P.3   780  ADP780      0.5373
      2  O1B      132.0000   27.5230   17.4450 O.2   780  ADP780     -0.2221
      3  O2B      131.7860   28.0900   19.8400 O.3   780  ADP780     -0.1143
      4  O3B      129.7420   27.5210   18.5090 O.3   780  ADP780     -0.1143
      5  PA       131.2460   30.2910   16.6280 P.3   780  ADP780      0.2231
      6  O1A      132.6910   30.1900   16.2680 O.3   780  ADP780     -0.4370
      7  O2A      130.3360   29.5700   15.6500 O.2   780  ADP780     -0.5169
      8  O3A      131.0020   29.7410   18.1090 O.3   780  ADP780     -0.2261
      9  O5'      130.8670   31.8030   16.7220 O.3   780  ADP780     -0.3111
     10  C5'      129.5350   32.1820   16.9260 C.3   780  ADP780      0.1813
     11  C4'      129.1710   33.2870   15.9550 C.3   780  ADP780      0.1821
     12  O4'      129.6370   34.5460   16.4500 O.3   780  ADP780     -0.3135
     13  C3'      129.8230   33.0890   14.6250 C.3   780  ADP780      0.2184
     14  O3'      128.9760   33.6620   13.7150 O.3   780  ADP780     -0.2174
     15  C2'      131.0190   33.9690   14.6340 C.3   780  ADP780      0.2570
     16  O2'      131.2070   34.5350   13.3630 O.3   780  ADP780     -0.2130
     17  C1'      130.6860   35.0420   15.6310 C.3   780  ADP780      0.3186
     18  N9       131.8330   35.3030   16.4610 N.pl3 780  ADP780     -0.1439
     19  C8       132.2260   34.6030   17.5560 C.3   780  ADP780      0.3377
     20  N7       133.3440   35.1940   18.0550 N.2   780  ADP780     -0.2095
     21  C5       133.6220   36.2450   17.2900 C.2   780  ADP780      0.2526
     22  C6       134.6240   37.1640   17.3230 C.2   780  ADP780      0.4393
     23  N6       135.4400   37.2510   18.3980 N.pl3 780  ADP780      0.2180
     24  N1       134.6470   38.1300   16.3520 N.2   780  ADP780      0.0021
     25  C2       133.6780   38.1700   15.3950 C.3   780  ADP780      0.5254
     26  N3       132.7080   37.2610   15.3670 N.2   780  ADP780     -0.0055
     27  C4       132.6770   36.3050   16.2880 C.2   780  ADP780      0.3518
@<TRIPOS>BOND
     1    16    15    1
     2    14    13    1
     3    13    15    1
     4    13    11    1
     5    15    17    1
     6    26    25    1
     7    26    27    2
     8    25    24    1
     9    17    12    1
    10    17    18    1
    11     7     5    2
    12    11    12    1
    13    11    10    1
    14     6     5    1
    15    27    18    1
    16    27    21    1
    17    24    22    2
    18    18    19    1
    19     5     9    1
    20     5     8    1
    21     9    10    1
    22    21    22    1
    23    21    20    2
    24    22    23    1
    25     2     1    2
    26    19    20    1
    27     8     1    1
    28     1     4    1
    29     1     3    1
