@<TRIPOS>MOLECULE
1ksg_GTP_A_1.pdb
 32 34 0 0 0
SMALL
GASTEIGER

@<TRIPOS>ATOM
      1  PG        15.7800   -2.1520   23.6390 P.3   201  GTP201      0.5373
      2  O1G       15.5640   -3.1860   24.7340 O.3   201  GTP201     -0.1143
      3  O2G       16.7730   -1.0800   23.9710 O.3   201  GTP201     -0.1143
      4  O3G       14.4780   -1.6610   23.2410 O.2   201  GTP201     -0.2221
      5  O3B       16.3850   -3.0200   22.3680 O.3   201  GTP201     -0.2258
      6  PB        16.6490   -2.5900   20.7910 P.3   201  GTP201      0.2277
      7  O1B       15.3710   -2.8730   20.0160 O.2   201  GTP201     -0.5168
      8  O2B       17.1180   -1.2060   20.7640 O.3   201  GTP201     -0.4368
      9  O3A       17.8070   -3.5430   20.3970 O.3   201  GTP201     -0.2700
     10  PA        19.3380   -3.2420   20.0130 P.3   201  GTP201      0.2189
     11  O1A       19.4780   -2.3660   18.8630 O.2   201  GTP201     -0.5170
     12  O2A       19.9920   -2.7640   21.3180 O.3   201  GTP201     -0.4371
     13  O5'       19.8580   -4.7610   19.5490 O.3   201  GTP201     -0.3112
     14  C5'       19.7700   -5.7820   20.6390 C.3   201  GTP201      0.1813
     15  C4'       20.9660   -6.7560   20.1410 C.3   201  GTP201      0.1799
     16  O4'       20.7570   -7.3630   18.8330 O.3   201  GTP201     -0.3326
     17  C3'       22.2980   -6.1570   20.0740 C.3   201  GTP201      0.2158
     18  O3'       23.2690   -6.9370   20.7330 O.3   201  GTP201     -0.2175
     19  C2'       22.6680   -5.8700   18.5860 C.3   201  GTP201      0.2310
     20  O2'       23.9620   -5.8630   18.3440 O.3   201  GTP201     -0.2158
     21  C1'       21.8510   -7.1900   17.9270 C.3   201  GTP201      0.2293
     22  N9        21.3020   -6.8220   16.5600 N.pl3 201  GTP201     -0.2354
     23  C8        20.5060   -5.7060   16.3160 C.3   201  GTP201      0.2246
     24  N7        20.3150   -5.8920   14.9980 N.2   201  GTP201     -0.2322
     25  C5        20.9040   -7.0150   14.4390 C.2   201  GTP201      0.2182
     26  C6        20.8810   -7.4160   13.2290 C.1   201  GTP201      0.2372
     27  O6        20.3860   -7.0910   12.1160 O.2   201  GTP201     -0.2069
     28  N1        21.6760   -8.7270   13.0620 N.2   201  GTP201     -0.2485
     29  C2        22.2320   -9.1890   14.1340 C.1   201  GTP201      0.2531
     30  N2        23.0030  -10.4560   13.9370 N.pl3 201  GTP201     -0.0226
     31  N3        22.2720   -8.7510   15.4110 N.2   201  GTP201     -0.3074
     32  C4        21.5110   -7.6020   15.4560 C.2   201  GTP201      0.2300
@<TRIPOS>BOND
     1    27    26    2
     2    28    26    2
     3    28    29    2
     4    26    25    1
     5    30    29    1
     6    29    31    2
     7    25    24    2
     8    25    32    1
     9    24    23    1
    10    31    32    2
    11    32    22    1
    12    23    22    1
    13    22    21    1
    14    21    19    1
    15    21    16    1
    16    20    19    1
    17    19    17    1
    18    16    15    1
    19    11    10    2
    20    13    10    1
    21    13    14    1
    22    10     9    1
    23    10    12    1
    24     7     6    2
    25    17    15    1
    26    17    18    1
    27    15    14    1
    28     9     6    1
    29     8     6    1
    30     6     5    1
    31     5     1    1
    32     4     1    2
    33     1     3    1
    34     1     2    1
