@<TRIPOS>MOLECULE
1ksh_GDP_A_1.pdb
 28 30 0 0 0
SMALL
GASTEIGER

@<TRIPOS>ATOM
      1  PB        14.5400    3.8020   40.1060 P.3   201  GDP201      0.5373
      2  O1B       15.9460    3.7180   40.5310 O.3   201  GDP201     -0.1143
      3  O2B       13.8340    5.1230   40.4330 O.3   201  GDP201     -0.1143
      4  O3B       14.1480    3.6420   38.6420 O.2   201  GDP201     -0.2221
      5  O3A       13.6250    2.8640   40.9800 O.3   201  GDP201     -0.2261
      6  PA        13.8740    1.9560   42.1170 P.3   201  GDP201      0.2231
      7  O1A       14.8280    0.8270   41.7650 O.2   201  GDP201     -0.5169
      8  O2A       14.5280    2.7080   43.2620 O.3   201  GDP201     -0.4370
      9  O5'       12.4990    1.4060   42.4330 O.3   201  GDP201     -0.3111
     10  C5'       11.4310    2.2650   42.8200 C.3   201  GDP201      0.1813
     11  C4'       10.3710    1.4540   43.6580 C.3   201  GDP201      0.1799
     12  O4'        9.8540    0.4220   42.8570 O.3   201  GDP201     -0.3326
     13  C3'       10.9770    0.8000   44.9220 C.3   201  GDP201      0.2158
     14  O3'        9.8980    0.9050   45.8750 O.3   201  GDP201     -0.2175
     15  C2'       11.2180   -0.6370   44.4750 C.3   201  GDP201      0.2310
     16  O2'       11.2450   -1.6390   45.5140 O.3   201  GDP201     -0.2158
     17  C1'       10.0830   -0.8570   43.4710 C.3   201  GDP201      0.2293
     18  N9        10.4740   -1.7760   42.3760 N.pl3 201  GDP201     -0.2354
     19  C8        11.5660   -1.7360   41.5060 C.3   201  GDP201      0.2246
     20  N7        11.5620   -2.7530   40.6360 N.2   201  GDP201     -0.2322
     21  C5        10.3750   -3.5320   40.9380 C.2   201  GDP201      0.2182
     22  C6         9.7060   -4.8020   40.3920 C.1   201  GDP201      0.2372
     23  O6        10.1840   -5.4160   39.4500 O.2   201  GDP201     -0.2069
     24  N1         8.5380   -5.3070   40.9190 N.2   201  GDP201     -0.2485
     25  C2         7.8710   -4.7050   41.9990 C.1   201  GDP201      0.2531
     26  N2         6.7400   -5.2080   42.5050 N.pl3 201  GDP201     -0.0226
     27  N3         8.4780   -3.5390   42.5060 N.2   201  GDP201     -0.3074
     28  C4         9.7450   -2.9410   41.9680 C.2   201  GDP201      0.2300
@<TRIPOS>BOND
     1     4     1    2
     2    23    22    2
     3     1     3    1
     4     1     2    1
     5     1     5    1
     6    22    24    2
     7    22    21    1
     8    20    21    2
     9    20    19    1
    10    24    25    2
    11    21    28    1
    12     5     6    1
    13    19    18    1
    14     7     6    2
    15    28    18    1
    16    28    27    2
    17    25    26    1
    18    25    27    2
    19     6     9    1
    20     6     8    1
    21    18    17    1
    22     9    10    1
    23    10    11    1
    24    12    17    1
    25    12    11    1
    26    17    15    1
    27    11    13    1
    28    15    13    1
    29    15    16    1
    30    13    14    1
