@<TRIPOS>MOLECULE
1ksj_GTP_A_1.pdb
 32 34 0 0 0
SMALL
GASTEIGER

@<TRIPOS>ATOM
      1  PG        15.6510    6.7190   40.4700 P.3   203  GTP203      0.5373
      2  O1G       14.6470    7.7970   40.8830 O.3   203  GTP203     -0.1143
      3  O2G       16.7660    6.4740   41.4780 O.3   203  GTP203     -0.1143
      4  O3G       16.0600    6.8960   39.0890 O.2   203  GTP203     -0.2221
      5  O3B       14.7450    5.3580   40.4820 O.3   203  GTP203     -0.2258
      6  PB        15.1900    3.8320   40.0510 P.3   203  GTP203      0.2277
      7  O1B       14.8900    3.6770   38.5480 O.2   203  GTP203     -0.5168
      8  O2B       16.5690    3.6010   40.5030 O.3   203  GTP203     -0.4368
      9  O3A       14.1860    2.9990   40.9090 O.3   203  GTP203     -0.2700
     10  PA        14.4220    2.1050   42.2190 P.3   203  GTP203      0.2189
     11  O1A       15.2980    0.9720   41.9740 O.2   203  GTP203     -0.5170
     12  O2A       14.7780    3.0920   43.3430 O.3   203  GTP203     -0.4371
     13  O5'       12.9040    1.4400   42.4440 O.3   203  GTP203     -0.3112
     14  C5'       11.8590    2.4660   42.7100 C.3   203  GTP203      0.1813
     15  C4'       10.7460    1.4770   43.3340 C.3   203  GTP203      0.1799
     16  O4'       10.2020    0.4660   42.4650 O.3   203  GTP203     -0.3326
     17  C3'       10.9780    0.8220   44.5890 C.3   203  GTP203      0.2158
     18  O3'        9.9530    1.0870   45.5150 O.3   203  GTP203     -0.2175
     19  C2'       11.2660   -0.6990   44.3720 C.3   203  GTP203      0.2310
     20  O2'       10.7820   -1.4340   45.3500 O.3   203  GTP203     -0.2158
     21  C1'       10.0930   -0.8040   43.1210 C.3   203  GTP203      0.2293
     22  N9        10.5440   -1.8400   42.1080 N.pl3 203  GTP203     -0.2354
     23  C8        11.7500   -1.7630   41.4170 C.3   203  GTP203      0.2246
     24  N7        11.6090   -2.8790   40.6640 N.2   203  GTP203     -0.2322
     25  C5        10.4260   -3.6030   40.8510 C.2   203  GTP203      0.2182
     26  C6        10.0480   -4.6560   40.2640 C.1   203  GTP203      0.2372
     27  O6        10.4330   -5.4650   39.3660 O.2   203  GTP203     -0.2069
     28  N1         8.7070   -5.0910   40.7850 N.2   203  GTP203     -0.2485
     29  C2         8.2070   -4.3370   41.6900 C.1   203  GTP203      0.2531
     30  N2         6.8740   -4.7910   42.1880 N.pl3 203  GTP203     -0.0226
     31  N3         8.5920   -3.2210   42.2920 N.2   203  GTP203     -0.3074
     32  C4         9.7840   -2.9240   41.7730 C.2   203  GTP203      0.2300
@<TRIPOS>BOND
     1     7     6    2
     2     4     1    2
     3    27    26    2
     4     6     5    1
     5     6     8    1
     6     6     9    1
     7    26    28    2
     8    26    25    1
     9     1     5    1
    10     1     2    1
    11     1     3    1
    12    24    25    2
    13    24    23    1
    14    28    29    2
    15    25    32    1
    16     9    10    1
    17    23    22    1
    18    29    30    1
    19    29    31    2
    20    32    22    1
    21    32    31    2
    22    11    10    2
    23    22    21    1
    24    10    13    1
    25    10    12    1
    26    13    14    1
    27    16    21    1
    28    16    15    1
    29    14    15    1
    30    21    19    1
    31    15    17    1
    32    19    17    1
    33    19    20    1
    34    17    18    1
