@<TRIPOS>MOLECULE
1ksj_GDP_A_1.pdb
 28 30 0 0 0
SMALL
GASTEIGER

@<TRIPOS>ATOM
      1  PB        14.8820    4.0500   39.5870 P.3   201  GDP201      0.5373
      2  O1B       16.3610    4.1750   39.9970 O.3   201  GDP201     -0.1143
      3  O2B       14.2020    5.2220   39.0490 O.3   201  GDP201     -0.1143
      4  O3B       14.7620    2.8490   38.4680 O.2   201  GDP201     -0.2221
      5  O3A       14.0530    3.4860   40.7830 O.3   201  GDP201     -0.2261
      6  PA        14.3570    2.2720   41.7870 P.3   201  GDP201      0.2231
      7  O1A       15.1660    1.2380   41.1710 O.2   201  GDP201     -0.5169
      8  O2A       14.8470    2.9280   43.0860 O.3   201  GDP201     -0.4370
      9  O5'       12.8380    1.5900   41.9700 O.3   201  GDP201     -0.3111
     10  C5'       11.8540    2.5050   42.6160 C.3   201  GDP201      0.1813
     11  C4'       11.0550    1.3940   43.4790 C.3   201  GDP201      0.1799
     12  O4'       10.4370    0.3050   42.7560 O.3   201  GDP201     -0.3326
     13  C3'       11.6840    0.7750   44.6100 C.3   201  GDP201      0.2158
     14  O3'       10.8750    0.8380   45.7570 O.3   201  GDP201     -0.2175
     15  C2'       12.1390   -0.6740   44.2500 C.3   201  GDP201      0.2310
     16  O2'       12.0730   -1.4860   45.2810 O.3   201  GDP201     -0.2158
     17  C1'       10.6960   -0.9710   43.3730 C.3   201  GDP201      0.2293
     18  N9        11.0200   -1.9310   42.2410 N.pl3 201  GDP201     -0.2354
     19  C8        12.1070   -1.7650   41.3840 C.3   201  GDP201      0.2246
     20  N7        11.8800   -2.8290   40.5810 N.2   201  GDP201     -0.2322
     21  C5        10.7490   -3.6040   40.8840 C.2   201  GDP201      0.2182
     22  C6        10.2970   -4.6150   40.2680 C.1   201  GDP201      0.2372
     23  O6        10.5340   -5.3250   39.2450 O.2   201  GDP201     -0.2069
     24  N1         9.0500   -5.1190   40.9320 N.2   201  GDP201     -0.2485
     25  C2         8.6840   -4.4660   41.9630 C.1   201  GDP201      0.2531
     26  N2         7.4260   -4.9890   42.5830 N.pl3 201  GDP201     -0.0226
     27  N3         9.1480   -3.4000   42.6070 N.2   201  GDP201     -0.3074
     28  C4        10.2440   -3.0210   41.9440 C.2   201  GDP201      0.2300
@<TRIPOS>BOND
     1     4     1    2
     2     3     1    1
     3    23    22    2
     4     1     2    1
     5     1     5    1
     6    22    21    1
     7    22    24    2
     8    20    21    2
     9    20    19    1
    10     5     6    1
    11    21    28    1
    12    24    25    2
    13     7     6    2
    14    19    18    1
    15     6     9    1
    16     6     8    1
    17    28    18    1
    18    28    27    2
    19    25    26    1
    20    25    27    2
    21     9    10    1
    22    18    17    1
    23    10    11    1
    24    12    17    1
    25    12    11    1
    26    17    15    1
    27    11    13    1
    28    15    13    1
    29    15    16    1
    30    13    14    1
