@<TRIPOS>MOLECULE
1ksn_FXV_A_1.pdb
 33 35 0 0 0
SMALL
GASTEIGER

@<TRIPOS>ATOM
      1  C1         6.6430    0.2470   17.8810 C.2   401  FXV401      0.0205
      2  C2         7.3750    0.8760   18.9420 C.2   401  FXV401     -0.0008
      3  C3         8.7800    0.5740   19.0640 C.2   401  FXV401      0.0006
      4  C4         9.4060   -0.3310   18.1450 C.3   401  FXV401      0.1614
      5  N1         8.6940   -0.9280   17.1340 N.4   401  FXV401     -0.2008
      6  C6         7.3370   -0.6420   17.0070 C.2   401  FXV401      0.1030
      7  C7         6.7400    3.9330   21.2570 C.ar  401  FXV401      0.0046
      8  C8         5.3630    3.6970   21.6850 C.ar  401  FXV401      0.0550
      9  C9         4.6930    2.5190   21.1940 C.ar  401  FXV401      0.0046
     10  C10        5.3450    1.6040   20.3140 C.ar  401  FXV401      0.0001
     11  C11        6.6950    1.8250   19.8820 C.ar  401  FXV401     -0.0002
     12  C12        7.3700    2.9970   20.3700 C.ar  401  FXV401      0.0001
     13  C13        4.6220    4.5930   22.5660 C.2   401  FXV401      0.2647
     14  N14        5.0990    5.8520   22.6160 N.am  401  FXV401     -0.2029
     15  C15        4.4840    6.8990   23.3920 C.3   401  FXV401      0.1065
     16  C16        3.8060    7.8740   22.4050 C.3   401  FXV401      0.0240
     17  C17        5.5890    7.5560   24.3010 C.3   401  FXV401      0.1233
     18  C18        4.9640    8.6890   25.1360 C.2   401  FXV401      0.3186
     19  O19        3.8600    8.2640   25.8080 O.3   401  FXV401     -0.4443
     20  C20        6.8610    8.0770   23.4910 C.3   401  FXV401      0.0392
     21  C23        8.4840    7.4690   25.4770 C.ar  401  FXV401      0.0037
     22  C24        9.7170    7.6990   26.2280 C.ar  401  FXV401      0.0972
     23  C25       10.6090    8.7590   25.7890 C.ar  401  FXV401      0.0080
     24  C26       10.2870    9.5570   24.6450 C.ar  401  FXV401     -0.0001
     25  C27        9.0690    9.3220   23.9130 C.ar  401  FXV401     -0.0042
     26  C28        8.1480    8.2810   24.3060 C.ar  401  FXV401     -0.0213
     27  C29       10.0580    6.8890   27.4000 C.2   401  FXV401      0.4766
     28  N30       11.3210    6.7490   27.8130 N.pl3 401  FXV401      0.2047
     29  N31        9.0740    6.2750   28.0810 N.pl3 401  FXV401      0.2047
     30  O32        5.3900    9.7910   25.1720 O.2   401  FXV401     -0.2500
     31  O33        3.6160    4.2310   23.2050 O.2   401  FXV401     -0.2684
     32  C34        3.0950    9.1320   26.6480 C.3   401  FXV401      0.2556
     33  O1         9.2870   -1.7890   16.2600 O.3   401  FXV401     -0.0838
@<TRIPOS>BOND
     1    33     5    1
     2     6     5    1
     3     6     1    2
     4     5     4    1
     5     1     2    1
     6     4     3    1
     7     2     3    2
     8     2    11    1
     9    11    10   ar
    10    11    12   ar
    11    10     9   ar
    12    12     7   ar
    13     9     8   ar
    14     7     8   ar
    15     8    13    1
    16    16    15    1
    17    13    14   am
    18    13    31    2
    19    14    15    1
    20    15    17    1
    21    20    17    1
    22    20    26    1
    23    25    26   ar
    24    25    24   ar
    25    17    18    1
    26    26    21   ar
    27    24    23   ar
    28    18    30    2
    29    18    19    1
    30    21    22   ar
    31    23    22   ar
    32    19    32    1
    33    22    27    1
    34    27    28    2
    35    27    29    1
