@<TRIPOS>MOLECULE
1kss_HEM_A_1.pdb
 43 50 0 0 0
SMALL
GASTEIGER

@<TRIPOS>ATOM
      1 FE         30.4090   58.7690   43.5370 Fe    801  HEM801      0.0000
      2  CHA       28.4930   55.9630   43.9000 C.2   801  HEM801      0.0000
      3  CHB       28.9440   59.4490   40.5480 C.2   801  HEM801      0.0000
      4  CHC       31.9970   61.7870   43.4960 C.2   801  HEM801      0.0000
      5  CHD       32.3400   57.7960   46.2210 C.2   801  HEM801      0.0000
      6  NA        28.9850   57.8800   42.4430 N.ar  801  HEM801      0.0000
      7  C1A       28.2860   56.7130   42.7390 C.ar  801  HEM801      0.0000
      8  C2A       27.3370   56.4390   41.6800 C.ar  801  HEM801      0.0000
      9  C3A       27.4650   57.4130   40.7760 C.ar  801  HEM801      0.0000
     10  C4A       28.4990   58.3210   41.2220 C.ar  801  HEM801      0.0000
     11  CMA       26.6940   57.6210   39.4390 C.3   801  HEM801      0.0000
     12  CAA       26.3750   55.2260   41.6210 C.3   801  HEM801      0.0000
     13  CBA       26.7890   54.1550   40.6010 C.3   801  HEM801      0.0000
     14  CGA       25.9730   52.9010   40.4690 C.2   801  HEM801      0.0000
     15  O1A       26.4070   52.0020   39.6950 O.co2 801  HEM801      0.0000
     16  O2A       24.9160   52.8200   41.1180 O.co2 801  HEM801      0.0000
     17  NB        30.4660   60.3150   42.2370 N.2   801  HEM801      0.0000
     18  C1B       29.7590   60.4330   41.0640 C.2   801  HEM801      0.0000
     19  C2B       30.0330   61.7500   40.5080 C.2   801  HEM801      0.0000
     20  C3B       30.8480   62.3840   41.3430 C.2   801  HEM801      0.0000
     21  C4B       31.1540   61.4760   42.4470 C.2   801  HEM801      0.0000
     22  CMB       29.3940   62.2510   39.1900 C.3   801  HEM801      0.0000
     23  CAB       31.3900   63.8290   41.4160 C.2   801  HEM801      0.0000
     24  CBB       30.5600   64.8560   41.0710 C.2   801  HEM801      0.0000
     25  NC        31.9030   59.5920   44.5840 N.ar  801  HEM801      0.0000
     26  C1C       32.3610   60.9070   44.4890 C.ar  801  HEM801      0.0000
     27  C2C       33.2090   61.2270   45.6090 C.ar  801  HEM801      0.0000
     28  C3C       33.2950   60.1260   46.3680 C.ar  801  HEM801      0.0000
     29  C4C       32.4920   59.0950   45.7430 C.ar  801  HEM801      0.0000
     30  CMC       33.8670   62.6040   45.8530 C.3   801  HEM801      0.0000
     31  CAC       33.9880   59.8940   47.7210 C.2   801  HEM801      0.0000
     32  CBC       34.2850   60.8270   48.6360 C.2   801  HEM801      0.0000
     33  ND        30.4320   57.1710   44.7980 N.2   801  HEM801      0.0000
     34  C1D       31.3000   56.9750   45.8450 C.2   801  HEM801      0.0000
     35  C2D       30.9280   55.7470   46.5280 C.2   801  HEM801      0.0000
     36  C3D       29.8750   55.2380   45.8910 C.2   801  HEM801      0.0000
     37  C4D       29.5150   56.1450   44.8040 C.2   801  HEM801      0.0000
     38  CMD       31.6750   55.1920   47.7670 C.3   801  HEM801      0.0000
     39  CAD       29.0260   53.9880   46.2540 C.3   801  HEM801      0.0000
     40  CBD       27.6880   54.4070   46.9580 C.3   801  HEM801      0.0000
     41  CGD       27.7800   55.4930   48.0110 C.2   801  HEM801      0.0000
     42  O1D       27.0140   56.4950   47.9290 O.co2 801  HEM801      0.0000
     43  O2D       28.5750   55.3570   48.9880 O.co2 801  HEM801      0.0000
@<TRIPOS>BOND
     1    22    19    1
     2    11     9    1
     3    15    14   ar
     4    14    13    1
     5    14    16   ar
     6    19    18    1
     7    19    20    2
     8     3    18    1
     9     3    10    2
    10    13    12    1
    11     9    10   ar
    12     9     8   ar
    13    18    17    2
    14    24    23    2
    15    10     6   ar
    16    20    23    1
    17    20    21    1
    18    12     8    1
    19     8     7   ar
    20    17    21    1
    21    17     1    1
    22     6     7   ar
    23     6     1    1
    24    21     4    2
    25     7     2    2
    26     4    26    1
    27     1    25    1
    28     1    33    1
    29     2    37    1
    30    26    25   ar
    31    26    27   ar
    32    25    29   ar
    33    33    37    2
    34    33    34    1
    35    37    36    1
    36    27    30    1
    37    27    28   ar
    38    29     5    1
    39    29    28   ar
    40    34     5    2
    41    34    35    1
    42    36    39    1
    43    36    35    2
    44    39    40    1
    45    28    31    1
    46    35    38    1
    47    40    41    1
    48    31    32    2
    49    42    41   ar
    50    41    43   ar
