@<TRIPOS>MOLECULE
1ksu_HEM_A_1.pdb
 43 50 0 0 0
SMALL
GASTEIGER

@<TRIPOS>ATOM
      1 FE         33.4200   23.8940    9.9420 Fe    801  HEM801      0.0000
      2  CHA       33.2030   21.2280    7.9030 C.2   801  HEM801      0.0000
      3  CHB       36.4620   24.7440    8.5930 C.2   801  HEM801      0.0000
      4  CHC       33.3800   26.7890   11.7370 C.2   801  HEM801      0.0000
      5  CHD       30.8440   22.6720   11.8590 C.2   801  HEM801      0.0000
      6  NA        34.6120   23.1280    8.5320 N.ar  801  HEM801      0.0000
      7  C1A       34.3250   22.0320    7.7390 C.ar  801  HEM801      0.0000
      8  C2A       35.3500   21.9050    6.7220 C.ar  801  HEM801      0.0000
      9  C3A       36.2630   22.8500    6.9260 C.ar  801  HEM801      0.0000
     10  C4A       35.8110   23.6450    8.0570 C.ar  801  HEM801      0.0000
     11  CMA       37.5500   23.1050    6.1130 C.3   801  HEM801      0.0000
     12  CAA       35.3980   20.7780    5.6520 C.3   801  HEM801      0.0000
     13  CBA       36.2910   19.6310    6.1570 C.3   801  HEM801      0.0000
     14  CGA       36.5180   18.4610    5.2440 C.2   801  HEM801      0.0000
     15  O1A       37.3770   17.6010    5.5640 O.co2 801  HEM801      0.0000
     16  O2A       35.8430   18.3510    4.1910 O.co2 801  HEM801      0.0000
     17  NB        34.7050   25.4450   10.1640 N.2   801  HEM801      0.0000
     18  C1B       35.8460   25.6490    9.4350 C.2   801  HEM801      0.0000
     19  C2B       36.2900   27.0190    9.6800 C.2   801  HEM801      0.0000
     20  C3B       35.4360   27.5680   10.5230 C.2   801  HEM801      0.0000
     21  C4B       34.4190   26.5930   10.8560 C.2   801  HEM801      0.0000
     22  CMB       37.5380   27.6060    8.9940 C.3   801  HEM801      0.0000
     23  CAB       35.3150   29.0190   11.0770 C.3   801  HEM801      0.0000
     24  CBB       35.5320   30.0050   10.1540 C.3   801  HEM801      0.0000
     25  NC        32.3820   24.5650   11.5300 N.ar  801  HEM801      0.0000
     26  C1C       32.4210   25.8550   12.0480 C.ar  801  HEM801      0.0000
     27  C2C       31.2880   26.0620   12.9170 C.ar  801  HEM801      0.0000
     28  C3C       30.5690   24.9320   12.9090 C.ar  801  HEM801      0.0000
     29  C4C       31.2480   23.9810   12.0750 C.ar  801  HEM801      0.0000
     30  CMC       30.9860   27.3910   13.6460 C.3   801  HEM801      0.0000
     31  CAC       29.2420   24.6370   13.6420 C.2   801  HEM801      0.0000
     32  CBC       28.3480   25.5800   13.9860 C.2   801  HEM801      0.0000
     33  ND        32.2790   22.2310    9.9120 N.2   801  HEM801      0.0000
     34  C1D       31.2350   21.9320   10.7730 C.2   801  HEM801      0.0000
     35  C2D       30.5980   20.7100   10.3300 C.2   801  HEM801      0.0000
     36  C3D       31.2530   20.2900    9.2470 C.2   801  HEM801      0.0000
     37  C4D       32.2910   21.2400    8.9370 C.2   801  HEM801      0.0000
     38  CMD       29.3950   20.0510   11.0700 C.3   801  HEM801      0.0000
     39  CAD       30.9330   19.0540    8.3550 C.3   801  HEM801      0.0000
     40  CBD       30.2750   19.5300    7.0270 C.3   801  HEM801      0.0000
     41  CGD       29.2170   20.6000    7.1700 C.2   801  HEM801      0.0000
     42  O1D       29.2700   21.6800    6.5240 O.co2 801  HEM801      0.0000
     43  O2D       28.2720   20.3930    7.9720 O.co2 801  HEM801      0.0000
@<TRIPOS>BOND
     1    16    14   ar
     2    14    15   ar
     3    14    13    1
     4    12    13    1
     5    12     8    1
     6    11     9    1
     7    42    41   ar
     8     8     9   ar
     9     8     7   ar
    10     9    10   ar
    11    40    41    1
    12    40    39    1
    13    41    43   ar
    14     7     2    2
    15     7     6   ar
    16     2    37    1
    17    10     6   ar
    18    10     3    2
    19    39    36    1
    20     6     1    1
    21     3    18    1
    22    37    36    1
    23    37    33    2
    24    22    19    1
    25    36    35    2
    26    18    19    1
    27    18    17    2
    28    19    20    2
    29    33     1    1
    30    33    34    1
    31     1    17    1
    32     1    25    1
    33    24    23    1
    34    17    21    1
    35    35    34    1
    36    35    38    1
    37    20    21    1
    38    20    23    1
    39    34     5    2
    40    21     4    2
    41    25    26   ar
    42    25    29   ar
    43     4    26    1
    44     5    29    1
    45    26    27   ar
    46    29    28   ar
    47    28    27   ar
    48    28    31    1
    49    27    30    1
    50    31    32    2
