@<TRIPOS>MOLECULE
1ksv_U_A_1.pdb
 21 22 0 0 0
SMALL
GASTEIGER

@<TRIPOS>ATOM
      1  OP3       44.3730    7.6900   -0.1670 O.3   232  U232       -0.1145
      2  P         44.1050    6.3850   -1.1650 P.3   232  U232        0.5327
      3  OP1       43.6680    5.0340   -0.3560 O.3   232  U232       -0.1145
      4  OP2       42.9450    6.6160   -2.2900 O.2   232  U232       -0.2224
      5  O5'       45.5310    6.1540   -1.9660 O.3   232  U232       -0.2675
      6  C5'       46.3690    7.1860   -2.3200 C.3   232  U232        0.1859
      7  C4'       47.6020    7.6150   -1.4350 C.3   232  U232        0.1801
      8  O4'       48.9860    7.0940   -1.5630 O.3   232  U232       -0.3320
      9  C3'       47.8160    9.1280   -1.1480 C.3   232  U232        0.2158
     10  O3'       46.8520    9.2230   -0.3860 O.3   232  U232       -0.2175
     11  C2'       49.1500    9.1610   -0.2830 C.3   232  U232        0.2319
     12  O2'       49.0870    8.9670    1.0920 O.3   232  U232       -0.2157
     13  C1'       49.9420    7.9710   -0.8970 C.3   232  U232        0.2401
     14  N1        50.7420    8.2810   -1.9430 N.am  232  U232       -0.1766
     15  C2        52.0600    7.5820   -1.9610 C.1   232  U232        0.2845
     16  O2        52.5050    6.7310   -1.0750 O.2   232  U232       -0.1918
     17  N3        52.8220    7.9420   -3.0960 N.2   232  U232       -0.2452
     18  C4        52.4750    8.8630   -4.1800 C.1   232  U232        0.2182
     19  O4        53.2970    9.0420   -5.1070 O.2   232  U232       -0.2085
     20  C5        51.1950    9.5120   -4.1060 C.2   232  U232        0.1242
     21  C6        50.4220    9.2280   -3.0700 C.2   232  U232        0.0929
@<TRIPOS>BOND
     1    19    18    2
     2    18    20    1
     3    18    17    2
     4    20    21    2
     5    17    15    2
     6    21    14    1
     7     6     5    1
     8     6     7    1
     9     4     2    2
    10     5     2    1
    11    15    14   am
    12    15    16    2
    13    14    13    1
    14     8     7    1
    15     8    13    1
    16     7     9    1
    17     2     3    1
    18     2     1    1
    19     9    10    1
    20     9    11    1
    21    13    11    1
    22    11    12    1
