@<TRIPOS>MOLECULE
1ksw_NBS_A_1.pdb
 34 37 0 0 0
SMALL
GASTEIGER

@<TRIPOS>ATOM
      1  PB        -4.7070   48.1450   -1.9340 P.3     1  NBS1        0.5373
      2  O4P       -5.0240   48.6850   -3.2930 O.2     1  NBS1       -0.2221
      3  O5P       -5.8080   48.2840   -0.9090 O.3     1  NBS1       -0.1143
      4  O6P       -3.9720   46.8260   -1.9400 O.3     1  NBS1       -0.1143
      5  PA        -3.5430   50.2600   -0.2760 P.3     1  NBS1        0.2231
      6  O1P       -2.6870   51.4060   -0.6610 O.2     1  NBS1       -0.5169
      7  O2P       -4.8480   50.5340    0.3820 O.3     1  NBS1       -0.4370
      8  O3P       -3.5640   49.3110   -1.6210 O.3     1  NBS1       -0.2261
      9  O5'       -2.6100   49.4210    0.7400 O.3     1  NBS1       -0.3111
     10  C5'       -1.5730   48.5330    0.3070 C.3     1  NBS1        0.1813
     11  C4'       -0.6510   49.1140   -0.7840 C.3     1  NBS1        0.1821
     12  O4'       -0.0100   50.3640   -0.3810 O.3     1  NBS1       -0.3135
     13  C1'        1.2840   50.0480    0.1960 C.3     1  NBS1        0.3186
     14  N9         1.2160   50.2210    1.6630 N.pl3   1  NBS1       -0.1439
     15  C4         2.2810   50.3380    2.5230 C.2     1  NBS1        0.3517
     16  N3         3.5890   50.2680    2.2000 N.2     1  NBS1       -0.0055
     17  C2         4.3560   50.4370    3.2780 C.3     1  NBS1        0.5253
     18  N1         3.9830   50.6480    4.5380 N.2     1  NBS1       -0.0020
     19  C6         2.6670   50.7150    4.8390 C.2     1  NBS1        0.3858
     20  N6         2.3000   50.9860    6.1610 N.pl3   1  NBS1       -0.0249
     21  CB1        0.9770   50.7440    6.7120 C.3     1  NBS1        0.2778
     22  CB2        0.0740   52.0090    6.7670 C.ar    1  NBS1        0.0285
     23  CB3       -0.8340   52.1600    7.8060 C.ar    1  NBS1       -0.0002
     24  CB4       -1.7040   53.2770    7.8560 C.ar    1  NBS1       -0.0002
     25  CB5       -1.6410   54.2420    6.8390 C.ar    1  NBS1       -0.0000
     26  CB6       -0.7240   54.0910    5.7980 C.ar    1  NBS1       -0.0002
     27  CB7        0.1390   52.9660    5.7740 C.ar    1  NBS1       -0.0002
     28  C5         1.7540   50.5600    3.7720 C.2     1  NBS1        0.2478
     29  N7         0.3700   50.5660    3.7120 N.2     1  NBS1       -0.2097
     30  C8         0.1070   50.3590    2.4570 C.3     1  NBS1        0.3377
     31  C2'        1.6020   48.6060   -0.1670 C.3     1  NBS1        0.2570
     32  O2'        2.8500   48.5220   -0.8500 O.3     1  NBS1       -0.2130
     33  C3'        0.4700   48.1430   -1.0510 C.3     1  NBS1        0.2184
     34  O3'        0.8100   48.2310   -2.4170 O.3     1  NBS1       -0.2174
@<TRIPOS>BOND
     1     2     1    2
     2    34    33    1
     3     4     1    1
     4     1     8    1
     5     1     3    1
     6     8     5    1
     7    33    11    1
     8    33    31    1
     9    32    31    1
    10    11    12    1
    11    11    10    1
    12     6     5    2
    13    12    13    1
    14     5     7    1
    15     5     9    1
    16    31    13    1
    17    13    14    1
    18    10     9    1
    19    14    30    1
    20    14    15    1
    21    16    15    2
    22    16    17    1
    23    30    29    1
    24    15    28    1
    25    17    18    1
    26    29    28    2
    27    28    19    1
    28    18    19    2
    29    19    20    1
    30    27    26   ar
    31    27    22   ar
    32    26    25   ar
    33    20    21    1
    34    21    22    1
    35    22    23   ar
    36    25    24   ar
    37    23    24   ar
