@<TRIPOS>MOLECULE
1ksz_PGS_A_1.pdb
 37 39 0 0 0
SMALL
GASTEIGER

@<TRIPOS>ATOM
      1  PA       -16.3530   54.7480   50.0300 P.3   440  PGS440      0.5320
      2  O1A      -16.3660   55.6210   48.8560 O.2   440  PGS440     -0.2224
      3  O2A      -17.6750   54.7330   50.6630 O.3   440  PGS440     -0.1145
      4  O3A      -15.9460   53.4030   49.6540 O.3   440  PGS440     -0.1145
      5  O5'      -15.3030   55.3080   51.0560 O.3   440  PGS440     -0.2809
      6  C5'      -15.4770   55.1360   52.3490 C.3   440  PGS440      0.0880
      7  C4'      -14.2070   54.9110   52.8210 C.3   440  PGS440      0.1153
      8  O4'      -13.8300   53.8260   51.9870 O.3   440  PGS440     -0.3290
      9  C3'      -13.3130   56.1320   52.7470 C.3   440  PGS440      0.1156
     10  O3'      -12.4280   56.1110   53.8700 O.3   440  PGS440     -0.3863
     11  C2'      -12.4360   55.5530   51.6600 C.3   440  PGS440      0.1480
     12  O2'      -11.0610   55.9390   51.6980 O.3   440  PGS440     -0.3825
     13  C1'      -12.4700   54.0390   51.8260 C.3   440  PGS440      0.2295
     14  N9       -12.1080   53.5080   50.5910 N.pl3 440  PGS440     -0.1349
     15  C8       -12.9280   53.0170   49.5700 C.2   440  PGS440      0.2299
     16  N7       -12.2870   52.3350   48.6770 N.2   440  PGS440     -0.3669
     17  C5       -10.9520   52.3720   49.1070 C.2   440  PGS440      0.2189
     18  C6        -9.8220   51.7950   48.5010 C.3   440  PGS440      0.1773
     19  S6        -9.7220   50.9880   46.8780 S.3   440  PGS440     -0.0038
     20  P         -8.8300   49.3910   46.6100 P.3   440  PGS440      0.4469
     21  O1P       -9.8900   48.4050   46.2280 O.3   440  PGS440     -0.1297
     22  O2P       -8.1440   49.0130   47.8930 O.3   440  PGS440     -0.1297
     23  O3P       -7.8410   49.5150   45.5180 O.2   440  PGS440     -0.2411
     24  N1        -8.6730   52.0140   49.2410 N.3   440  PGS440     -0.2381
     25  C2        -8.6310   52.7590   50.3930 C.3   440  PGS440      0.3399
     26  N3        -9.7040   53.3210   50.9570 N.2   440  PGS440     -0.0433
     27  C4       -10.8280   53.0750   50.2610 C.2   440  PGS440      0.3550
     28 H5'1      -16.0840   54.2520   52.5520 H     440  PGS440      0.0592
     29 H5'2      -15.8770   55.9690   52.9060 H     440  PGS440      0.0592
     30  H4'      -14.2610   54.5760   53.8570 H     440  PGS440      0.0647
     31  H3'      -13.7580   57.1040   52.5850 H     440  PGS440      0.0648
     32 HO3'      -12.9500   56.0290   54.6780 H     440  PGS440      0.2100
     33  H2'      -12.8710   55.8570   50.7110 H     440  PGS440      0.0687
     34 HO2'      -10.5740   55.1560   51.4180 H     440  PGS440      0.2102
     35  H1'      -11.8580   53.6950   52.6630 H     440  PGS440      0.1122
     36  H8       -14.0060   53.1580   49.5420 H     440  PGS440      0.1440
     37  HN1       -7.7930   51.6210   48.9320 H     440  PGS440      0.1284
@<TRIPOS>BOND
     1    23    20    2
     2    21    20    1
     3    20    19    1
     4    20    22    1
     5    19    18    1
     6    18    17    1
     7    18    24    1
     8    16    17    2
     9    16    15    2
    10     2     1    2
    11    37    24    1
    12    17    27    1
    13    24    25    1
    14    36    15    1
    15    15    14    1
    16     4     1    1
    17     1     3    1
    18     1     5    1
    19    27    14    1
    20    27    26    2
    21    25    26    1
    22    14    13    1
    23    33    11    1
    24     5     6    1
    25    34    12    1
    26    11    12    1
    27    11    13    1
    28    11     9    1
    29    13     8    1
    30    13    35    1
    31     8     7    1
    32     6    28    1
    33     6     7    1
    34     6    29    1
    35    31     9    1
    36     9     7    1
    37     9    10    1
    38     7    30    1
    39    10    32    1
