@<TRIPOS>MOLECULE
1ksz_GDP_A_1.pdb
 40 42 0 0 0
SMALL
GASTEIGER

@<TRIPOS>ATOM
      1  PB        -4.7280   47.7680   45.4790 P.3   432  GDP432      0.5373
      2  O1B       -5.5950   48.3620   46.5380 O.3   432  GDP432     -0.1143
      3  O2B       -4.4370   46.3640   45.7910 O.3   432  GDP432     -0.1143
      4  O3B       -5.3860   47.8790   44.1800 O.2   432  GDP432     -0.2221
      5  O3A       -3.3400   48.5490   45.4130 O.3   432  GDP432     -0.2261
      6  PA        -2.8490   49.8940   44.7270 P.3   432  GDP432      0.2224
      7  O1A       -2.6300   49.6460   43.2870 O.2   432  GDP432     -0.5170
      8  O2A       -3.8760   50.9200   44.9170 O.3   432  GDP432     -0.4370
      9  O5'       -1.4760   50.4030   45.3880 O.3   432  GDP432     -0.3245
     10  C5'       -0.3170   49.5710   45.4500 C.3   432  GDP432      0.0836
     11  C4'        0.7790   50.2370   44.4760 C.3   432  GDP432      0.1131
     12  O4'        2.1530   49.8040   44.6200 O.3   432  GDP432     -0.3474
     13  C3'        0.7360   50.1590   42.9430 C.3   432  GDP432      0.1133
     14  O3'        1.8030   51.0290   42.5430 O.3   432  GDP432     -0.3864
     15  C2'        1.4570   48.8420   42.6350 C.3   432  GDP432      0.1266
     16  O2'        1.8180   48.4730   41.2860 O.3   432  GDP432     -0.3849
     17  C1'        2.6860   49.0310   43.5280 C.3   432  GDP432      0.1617
     18  N9         3.2290   47.9100   44.1210 N.pl3 432  GDP432     -0.2241
     19  C8         2.7740   46.6680   44.1880 C.2   432  GDP432      0.1451
     20  N7         3.5840   45.7760   44.6770 N.2   432  GDP432     -0.3865
     21  C5         4.6750   46.5590   44.9600 C.2   432  GDP432      0.2296
     22  C6         5.9010   46.1940   45.5240 C.2   432  GDP432      0.2859
     23  O6         6.1500   45.0850   45.9590 O.2   432  GDP432     -0.2668
     24  N1         6.8190   47.2340   45.6330 N.am  432  GDP432     -0.2418
     25  C2         6.5680   48.5280   45.2690 C.2   432  GDP432      0.2395
     26  N2         7.5990   49.3490   45.3710 N.pl3 432  GDP432     -0.3206
     27  N3         5.4020   48.9500   44.7680 N.2   432  GDP432     -0.3551
     28  C4         4.4790   47.8810   44.6160 C.2   432  GDP432      0.2272
     29  H5'       -0.4960   48.5250   45.1950 H     432  GDP432      0.0591
     30 H5''        0.0650   49.6330   46.4710 H     432  GDP432      0.0591
     31  H4'        0.7680   51.2950   44.7400 H     432  GDP432      0.0647
     32  H3'       -0.2410   50.3150   42.4870 H     432  GDP432      0.0647
     33 HO3'        2.1430   51.5170   43.2980 H     432  GDP432      0.2100
     34  H2'        0.8090   48.0660   43.0440 H     432  GDP432      0.0663
     35 HO2'        2.1080   47.5570   41.2730 H     432  GDP432      0.2101
     36  H1'        3.4440   49.5990   42.9860 H     432  GDP432      0.0841
     37  H8         1.7620   46.3920   43.8980 H     432  GDP432      0.1149
     38  HN1        7.7460   47.0530   46.0080 H     432  GDP432      0.1589
     39 HN21        7.4940   50.2110   45.8300 H     432  GDP432      0.1459
     40 HN22        8.4970   49.0890   45.0700 H     432  GDP432      0.1459
@<TRIPOS>BOND
     1    35    16    1
     2    16    15    1
     3    32    13    1
     4    14    13    1
     5    14    33    1
     6    15    13    1
     7    15    34    1
     8    15    17    1
     9    13    11    1
    10    36    17    1
    11     7     6    2
    12    17    18    1
    13    17    12    1
    14    37    19    1
    15    18    19    1
    16    18    28    1
    17     4     1    2
    18    19    20    2
    19    11    12    1
    20    11    31    1
    21    11    10    1
    22    28    27    2
    23    28    21    1
    24    20    21    2
    25     6     8    1
    26     6     9    1
    27     6     5    1
    28    27    25    2
    29    21    22    1
    30    40    26    1
    31    29    10    1
    32    25    26    1
    33    25    24    1
    34    26    39    1
    35     9    10    1
    36     5     1    1
    37    10    30    1
    38     1     3    1
    39     1     2    1
    40    22    24   am
    41    22    23    2
    42    24    38    1
