@<TRIPOS>MOLECULE
1kt3_RTL_A_1.pdb
 21 21 0 0 0
SMALL
GASTEIGER

@<TRIPOS>ATOM
      1  C1        30.8960   21.8060   46.4680 C.3   184  RTL184      0.0183
      2  C2        30.6250   21.8590   44.9380 C.3   184  RTL184      0.0044
      3  C3        31.8460   21.3920   44.1060 C.3   184  RTL184      0.0047
      4  C4        32.2380   19.9490   44.4850 C.3   184  RTL184      0.0217
      5  C5        32.2810   19.6530   45.9970 C.2   184  RTL184     -0.0479
      6  C6        31.6270   20.5450   46.9460 C.2   184  RTL184     -0.0310
      7  C7        31.7720   20.2050   48.3860 C.2   184  RTL184     -0.0095
      8  C8        32.8660   20.0040   49.1590 C.2   184  RTL184     -0.0265
      9  C9        33.0410   19.8320   50.5460 C.3   184  RTL184      0.0264
     10  C10       34.2580   19.5660   51.1490 C.3   184  RTL184      0.0303
     11  C11       34.6630   19.3530   52.4610 C.2   184  RTL184     -0.0261
     12  C12       35.9380   19.1640   52.8620 C.2   184  RTL184     -0.0091
     13  C13       36.5770   18.9110   54.0920 C.2   184  RTL184     -0.0239
     14  C14       37.9400   18.5180   54.2490 C.2   184  RTL184      0.0048
     15  C15       38.5710   18.2110   55.5990 C.3   184  RTL184      0.2080
     16  O1        38.9540   16.8370   55.8080 O.3   184  RTL184     -0.2152
     17  C16       29.5000   22.0510   47.1090 C.3   184  RTL184      0.0043
     18  C17       31.7150   23.0550   46.8280 C.3   184  RTL184      0.0043
     19  C18       33.0510   18.3950   46.2590 C.3   184  RTL184      0.0260
     20  C19       31.7180   19.4730   51.3010 C.3   184  RTL184      0.0050
     21  C20       35.7110   18.9120   55.4120 C.3   184  RTL184      0.0308
@<TRIPOS>BOND
     1     3     4    1
     2     3     2    1
     3     4     5    1
     4     2     1    1
     5     5    19    1
     6     5     6    2
     7     1    18    1
     8     1     6    1
     9     1    17    1
    10     6     7    1
    11     7     8    2
    12     8     9    1
    13     9    10    1
    14     9    20    1
    15    10    11    1
    16    11    12    2
    17    12    13    1
    18    13    14    2
    19    13    21    1
    20    14    15    1
    21    15    16    1
