@<TRIPOS>MOLECULE
1kt4_RTL_A_1.pdb
 21 21 0 0 0
SMALL
GASTEIGER

@<TRIPOS>ATOM
      1  C1        29.0230   21.3050   44.9780 C.3   184  RTL184      0.0183
      2  C2        28.7430   21.3040   43.4620 C.3   184  RTL184      0.0044
      3  C3        29.9460   20.8460   42.5990 C.3   184  RTL184      0.0047
      4  C4        30.2930   19.3930   42.9950 C.3   184  RTL184      0.0217
      5  C5        30.4490   19.1780   44.5000 C.2   184  RTL184     -0.0479
      6  C6        29.8020   20.0770   45.4530 C.2   184  RTL184     -0.0307
      7  C7        29.9170   19.8000   46.8980 C.2   184  RTL184     -0.0052
      8  C8        31.0590   19.5890   47.6050 C.2   184  RTL184     -0.0046
      9  C9        31.1300   19.3160   48.9660 C.2   184  RTL184     -0.0219
     10  C10       32.3510   19.2060   49.5750 C.2   184  RTL184     -0.0043
     11  C11       32.7100   18.9700   50.8540 C.2   184  RTL184     -0.0007
     12  C12       33.9950   18.7760   51.1740 C.2   184  RTL184     -0.0045
     13  C13       34.5200   18.3910   52.4230 C.2   184  RTL184     -0.0236
     14  C14       35.9190   18.2390   52.5460 C.2   184  RTL184      0.0048
     15  C15       36.5870   17.9200   53.8800 C.3   184  RTL184      0.2080
     16  O1        36.6950   16.4990   53.9940 O.3   184  RTL184     -0.2152
     17  C16       27.6620   21.5110   45.6490 C.3   184  RTL184      0.0043
     18  C17       29.8620   22.5260   45.3900 C.3   184  RTL184      0.0043
     19  C18       31.1200   17.8780   44.8060 C.3   184  RTL184      0.0260
     20  C19       29.8000   19.0970   49.7440 C.3   184  RTL184      0.0310
     21  C20       33.6350   18.4010   53.7010 C.3   184  RTL184      0.0308
@<TRIPOS>BOND
     1     3     4    1
     2     3     2    1
     3     4     5    1
     4     2     1    1
     5     5    19    1
     6     5     6    2
     7     1    18    1
     8     1     6    1
     9     1    17    1
    10     6     7    1
    11     7     8    2
    12     8     9    1
    13     9    10    2
    14     9    20    1
    15    10    11    1
    16    11    12    2
    17    12    13    1
    18    13    14    2
    19    13    21    1
    20    14    15    1
    21    15    16    1
