@<TRIPOS>MOLECULE
1kt5_RTL_A_1.pdb
 21 21 0 0 0
SMALL
GASTEIGER

@<TRIPOS>ATOM
      1  C1        29.2740   21.1900   44.3400 C.3   176  RTL176      0.0037
      2  C2        29.0610   21.3090   42.8210 C.3   176  RTL176      0.0003
      3  C3        30.1360   20.7040   41.9170 C.3   176  RTL176      0.0000
      4  C4        30.6300   19.2830   42.3330 C.3   176  RTL176      0.0003
      5  C5        30.8040   19.0760   43.8570 C.3   176  RTL176      0.0040
      6  C6        30.0200   19.9210   44.7900 C.3   176  RTL176      0.0220
      7  C7        30.1300   19.6970   46.2720 C.2   176  RTL176     -0.0268
      8  C8        31.3090   19.5050   46.9890 C.2   176  RTL176     -0.0092
      9  C9        31.3450   19.2300   48.3500 C.2   176  RTL176     -0.0261
     10  C10       32.6400   19.2770   48.9260 C.2   176  RTL176     -0.0257
     11  C11       32.8850   18.9390   50.2290 C.3   176  RTL176      0.0510
     12  C12       34.2020   18.7120   50.5120 C.2   176  RTL176     -0.0298
     13  C13       34.7170   18.3860   51.8130 C.2   176  RTL176     -0.0452
     14  C14       36.1240   18.0500   51.9020 C.3   176  RTL176      0.0572
     15  C15       36.8170   17.6620   53.1880 C.3   176  RTL176      0.1864
     16  O1        36.8860   16.2740   53.4470 O.3   176  RTL176     -0.2201
     17  C16       27.8910   21.3010   45.0210 C.3   176  RTL176      0.0003
     18  C17       30.1700   22.3690   44.7070 C.3   176  RTL176      0.0003
     19  C18       31.3230   17.7070   44.2270 C.3   176  RTL176      0.0003
     20  C19       30.0640   18.9170   49.1640 C.3   176  RTL176      0.0307
     21  C20       33.7780   18.3430   53.0600 C.3   176  RTL176      0.0261
@<TRIPOS>BOND
     1     3     4    1
     2     3     2    1
     3     4     5    1
     4     2     1    1
     5     5    19    1
     6     5     6    1
     7     1    18    1
     8     1     6    1
     9     1    17    1
    10     6     7    1
    11     7     8    2
    12     8     9    1
    13     9    10    2
    14     9    20    1
    15    10    11    1
    16    11    12    1
    17    12    13    2
    18    13    14    1
    19    13    21    1
    20    14    15    1
    21    15    16    1
