@<TRIPOS>MOLECULE
1kt6_RTL_A_1.pdb
 21 21 0 0 0
SMALL
GASTEIGER

@<TRIPOS>ATOM
      1  C1        30.2450   21.1740   44.9380 C.3   184  RTL184      0.0183
      2  C2        29.9460   21.1660   43.4300 C.3   184  RTL184      0.0044
      3  C3        31.1430   20.7020   42.5660 C.3   184  RTL184      0.0047
      4  C4        31.5090   19.2850   43.0060 C.3   184  RTL184      0.0217
      5  C5        31.5580   18.9740   44.4790 C.2   184  RTL184     -0.0479
      6  C6        31.0180   19.9180   45.4090 C.2   184  RTL184     -0.0307
      7  C7        31.1500   19.6750   46.8440 C.2   184  RTL184     -0.0052
      8  C8        32.2410   19.4360   47.5770 C.2   184  RTL184     -0.0046
      9  C9        32.3750   19.1630   48.9480 C.2   184  RTL184     -0.0219
     10  C10       33.6230   19.0720   49.5290 C.2   184  RTL184     -0.0043
     11  C11       34.0280   18.8570   50.8320 C.2   184  RTL184     -0.0007
     12  C12       35.2860   18.5800   51.2160 C.2   184  RTL184     -0.0045
     13  C13       35.8370   18.2670   52.4910 C.2   184  RTL184     -0.0236
     14  C14       37.1930   18.0510   52.6440 C.2   184  RTL184      0.0048
     15  C15       38.0880   17.7500   53.8170 C.3   184  RTL184      0.2080
     16  O1        38.0260   16.3320   54.0050 O.3   184  RTL184     -0.2152
     17  C16       28.9240   21.3580   45.6720 C.3   184  RTL184      0.0043
     18  C17       31.1560   22.3490   45.2500 C.3   184  RTL184      0.0043
     19  C18       32.2540   17.6940   44.7780 C.3   184  RTL184      0.0260
     20  C19       31.0870   18.9020   49.7990 C.3   184  RTL184      0.0310
     21  C20       34.8900   18.3140   53.7430 C.3   184  RTL184      0.0308
@<TRIPOS>BOND
     1     3     4    1
     2     3     2    1
     3     4     5    1
     4     2     1    1
     5     5    19    1
     6     5     6    2
     7     1    18    1
     8     1     6    1
     9     1    17    1
    10     6     7    1
    11     7     8    2
    12     8     9    1
    13     9    10    2
    14     9    20    1
    15    10    11    1
    16    11    12    2
    17    12    13    1
    18    13    14    2
    19    13    21    1
    20    14    15    1
    21    15    16    1
