@<TRIPOS>MOLECULE
1kt7_RTL_A_1.pdb
 21 21 0 0 0
SMALL
GASTEIGER

@<TRIPOS>ATOM
      1  C1        29.6080   21.0380   44.6920 C.3   184  RTL184      0.0183
      2  C2        29.2860   20.9430   43.1990 C.3   184  RTL184      0.0044
      3  C3        30.4830   20.5330   42.3350 C.3   184  RTL184      0.0047
      4  C4        30.8770   19.1140   42.7390 C.3   184  RTL184      0.0217
      5  C5        30.8860   18.8400   44.2190 C.2   184  RTL184     -0.0479
      6  C6        30.3510   19.7760   45.1600 C.2   184  RTL184     -0.0307
      7  C7        30.4430   19.5790   46.6050 C.2   184  RTL184     -0.0052
      8  C8        31.5660   19.3440   47.3070 C.2   184  RTL184     -0.0046
      9  C9        31.6670   19.0500   48.6810 C.2   184  RTL184     -0.0219
     10  C10       32.9240   18.9750   49.2110 C.2   184  RTL184     -0.0043
     11  C11       33.3370   18.6990   50.4810 C.2   184  RTL184     -0.0007
     12  C12       34.6060   18.4700   50.8590 C.2   184  RTL184     -0.0045
     13  C13       35.0810   18.1760   52.1470 C.2   184  RTL184     -0.0236
     14  C14       36.4680   17.9720   52.3160 C.2   184  RTL184      0.0048
     15  C15       37.1890   17.6820   53.6290 C.3   184  RTL184      0.2080
     16  O1        37.2390   16.2740   53.8010 O.3   184  RTL184     -0.2152
     17  C16       28.2650   21.2080   45.4260 C.3   184  RTL184      0.0043
     18  C17       30.5060   22.2210   45.0220 C.3   184  RTL184      0.0043
     19  C18       31.5410   17.5380   44.5590 C.3   184  RTL184      0.0260
     20  C19       30.4020   18.8450   49.5710 C.3   184  RTL184      0.0310
     21  C20       34.1840   18.3300   53.4210 C.3   184  RTL184      0.0308
@<TRIPOS>BOND
     1     3     4    1
     2     3     2    1
     3     4     5    1
     4     2     1    1
     5     5    19    1
     6     5     6    2
     7     1    18    1
     8     1     6    1
     9     1    17    1
    10     6     7    1
    11     7     8    2
    12     8     9    1
    13     9    10    2
    14     9    20    1
    15    10    11    1
    16    11    12    2
    17    12    13    1
    18    13    14    2
    19    13    21    1
    20    14    15    1
    21    15    16    1
