@<TRIPOS>MOLECULE
1kt8_ILP_A_1.pdb
 24 24 0 0 0
SMALL
GASTEIGER

@<TRIPOS>ATOM
      1  P         -6.7130   39.0100   14.2240 P.3   400  ILP400      0.5329
      2  O1P       -7.2590   38.3530   15.3980 O.3   400  ILP400     -0.1145
      3  O2P       -5.7190   38.0010   13.5720 O.3   400  ILP400     -0.1145
      4  O3P       -7.6010   39.4690   13.1530 O.2   400  ILP400     -0.2224
      5  O4P       -5.7370   40.2120   14.6060 O.3   400  ILP400     -0.2653
      6  C5A       -6.2500   41.4090   15.1240 C.3   400  ILP400      0.1819
      7  C5        -5.3250   42.0640   16.1080 C.ar  400  ILP400      0.0316
      8  N1        -3.8470   43.8740   16.5360 N.ar  400  ILP400     -0.2452
      9  C6        -4.7150   43.2220   15.7010 C.ar  400  ILP400      0.0968
     10  C2        -3.5630   43.4570   17.7830 C.ar  400  ILP400      0.0981
     11  C2A       -2.5740   44.2780   18.6050 C.3   400  ILP400      0.0555
     12  C3        -4.1540   42.2680   18.2520 C.ar  400  ILP400      0.2103
     13  O3        -3.8680   41.8630   19.4940 O.3   400  ILP400     -0.2853
     14  C4        -5.0850   41.5530   17.4210 C.ar  400  ILP400      0.0587
     15  C4A       -5.8000   40.2440   17.9430 C.2   400  ILP400      0.0967
     16  N         -5.0380   39.0910   18.0810 N.2   400  ILP400     -0.2593
     17  CA        -5.4920   38.0680   18.8930 C.3   400  ILP400      0.2056
     18  CB        -5.5810   38.2590   20.4510 C.3   400  ILP400      0.0335
     19  CG2       -4.5260   39.1940   21.0180 C.3   400  ILP400      0.0026
     20  CG1       -7.0170   38.6120   20.9100 C.3   400  ILP400      0.0025
     21  CD1       -7.1410   39.0830   22.4060 C.3   400  ILP400      0.0001
     22  C         -6.2310   36.8830   18.2680 C.2   400  ILP400      0.3866
     23  O         -7.1780   36.3850   18.9540 O.co2 400  ILP400     -0.2435
     24  OXT       -5.9010   36.4640   17.1060 O.co2 400  ILP400     -0.2435
@<TRIPOS>BOND
     1     4     1    2
     2     3     1    1
     3     1     5    1
     4     1     2    1
     5     5     6    1
     6     6     7    1
     7     9     7   ar
     8     9     8   ar
     9     7    14   ar
    10     8    10   ar
    11    24    22   ar
    12    14    15    1
    13    14    12   ar
    14    10    12   ar
    15    10    11    1
    16    15    16    2
    17    16    17    1
    18    12    13    1
    19    22    17    1
    20    22    23   ar
    21    17    18    1
    22    18    20    1
    23    18    19    1
    24    20    21    1
