@<TRIPOS>MOLECULE
1kta_PMP_A_1.pdb
 16 16 0 0 0
SMALL
GASTEIGER

@<TRIPOS>ATOM
      1  N1        -3.8310   43.8710   16.7150 N.ar  400  PMP400     -0.2452
      2  C2        -3.5000   43.3830   17.9720 C.ar  400  PMP400      0.0978
      3  C2A       -2.5080   44.1950   18.8100 C.3   400  PMP400      0.0555
      4  C3        -4.0810   42.1780   18.4040 C.ar  400  PMP400      0.2063
      5  O3        -3.7720   41.6660   19.6210 O.3   400  PMP400     -0.2856
      6  C4        -4.9980   41.4870   17.5750 C.ar  400  PMP400      0.0369
      7  C4A       -5.6450   40.1690   18.0940 C.3   400  PMP400      0.1386
      8  N4A       -4.8610   39.0990   17.7290 N.3   400  PMP400     -0.1261
      9  C5        -5.2940   42.0310   16.2970 C.ar  400  PMP400      0.0275
     10  C6        -4.7130   43.2090   15.8830 C.ar  400  PMP400      0.0965
     11  C5A       -6.2080   41.3540   15.3330 C.3   400  PMP400      0.1816
     12  O4P       -5.6580   40.1450   14.8190 O.3   400  PMP400     -0.2653
     13  P         -6.6890   38.9890   14.3520 P.3   400  PMP400      0.5329
     14  O1P       -7.3010   38.3820   15.5250 O.3   400  PMP400     -0.1145
     15  O2P       -5.7340   37.9770   13.7250 O.3   400  PMP400     -0.1145
     16  O3P       -7.5720   39.5190   13.3140 O.2   400  PMP400     -0.2224
@<TRIPOS>BOND
     1    16    13    2
     2    15    13    1
     3    13    12    1
     4    13    14    1
     5    12    11    1
     6    11     9    1
     7    10     9   ar
     8    10     1   ar
     9     9     6   ar
    10     1     2   ar
    11     6     7    1
    12     6     4   ar
    13     8     7    1
    14     2     4   ar
    15     2     3    1
    16     4     5    1
