@<TRIPOS>MOLECULE
1ktb_NAG_A_1.pdb
 14 14 0 0 0
SMALL
GASTEIGER

@<TRIPOS>ATOM
      1  C1        76.9960   56.4570   34.6420 C.3   661  NAG661      0.1665
      2  C2        75.5780   56.9390   34.9970 C.3   661  NAG661      0.1576
      3  C3        75.6160   58.1000   35.9970 C.3   661  NAG661      0.2069
      4  C4        76.5050   57.7580   37.1920 C.3   661  NAG661      0.2134
      5  C5        77.8800   57.3170   36.6950 C.3   661  NAG661      0.1809
      6  C6        78.8110   56.9120   37.8190 C.3   661  NAG661      0.2141
      7  C7        73.7840   56.7430   33.4020 C.2   661  NAG661      0.2420
      8  C8        73.0380   57.3400   32.2210 C.3   661  NAG661      0.0964
      9  N2        74.8900   57.3670   33.7960 N.am  661  NAG661     -0.2019
     10  O3        74.2980   58.3790   36.4510 O.3   661  NAG661     -0.2184
     11  O4        76.6420   58.9100   38.0420 O.3   661  NAG661     -0.2176
     12  O5        77.7440   56.1720   35.8300 O.3   661  NAG661     -0.3489
     13  O6        79.9000   56.1470   37.3250 O.3   661  NAG661     -0.2176
     14  O7        73.3570   55.7240   33.9470 O.2   661  NAG661     -0.2733
@<TRIPOS>BOND
     1     8     7    1
     2     7     9   am
     3     7    14    2
     4     9     2    1
     5     1     2    1
     6     1    12    1
     7     2     3    1
     8    12     5    1
     9     3    10    1
    10     3     4    1
    11     5     4    1
    12     5     6    1
    13     4    11    1
    14    13     6    1
