@<TRIPOS>MOLECULE
1ktc_NAG_A_1.pdb
 14 14 0 0 0
SMALL
GASTEIGER

@<TRIPOS>ATOM
      1  C1        77.1700   56.5490   34.5540 C.3   661  NAG661      0.1665
      2  C2        75.7530   57.0350   34.9080 C.3   661  NAG661      0.1576
      3  C3        75.7930   58.2000   35.9020 C.3   661  NAG661      0.2069
      4  C4        76.6830   57.8630   37.0980 C.3   661  NAG661      0.2134
      5  C5        78.0570   57.4170   36.6020 C.3   661  NAG661      0.1809
      6  C6        78.9880   57.0160   37.7270 C.3   661  NAG661      0.2141
      7  C7        73.9580   56.8340   33.3150 C.2   661  NAG661      0.2420
      8  C8        73.2120   57.4270   32.1320 C.3   661  NAG661      0.0964
      9  N2        75.0650   57.4590   33.7050 N.am  661  NAG661     -0.2019
     10  O3        74.4760   58.4830   36.3560 O.3   661  NAG661     -0.2184
     11  O4        76.8220   59.0180   37.9430 O.3   661  NAG661     -0.2176
     12  O5        77.9190   56.2690   35.7420 O.3   661  NAG661     -0.3489
     13  O6        80.0760   56.2470   37.2360 O.3   661  NAG661     -0.2176
     14  O7        73.5300   55.8180   33.8650 O.2   661  NAG661     -0.2733
@<TRIPOS>BOND
     1     8     7    1
     2     7     9   am
     3     7    14    2
     4     9     2    1
     5     1     2    1
     6     1    12    1
     7     2     3    1
     8    12     5    1
     9     3    10    1
    10     3     4    1
    11     5     4    1
    12     5     6    1
    13     4    11    1
    14    13     6    1
