@<TRIPOS>MOLECULE
1ktc_NGA_A_1.pdb
 15 15 0 0 0
SMALL
GASTEIGER

@<TRIPOS>ATOM
      1  C1        63.6800   33.4900   29.6630 C.3   870  NGA870      0.2917
      2  C2        63.4560   34.4710   30.8540 C.3   870  NGA870      0.1871
      3  C3        61.9650   34.6170   31.0680 C.3   870  NGA870      0.2095
      4  C4        61.2940   35.1960   29.8110 C.3   870  NGA870      0.2136
      5  C5        61.5650   34.2040   28.6630 C.3   870  NGA870      0.1835
      6  C6        61.0580   34.7310   27.3380 C.3   870  NGA870      0.2142
      7  C7        65.1350   34.6880   32.6100 C.2   870  NGA870      0.2421
      8  C8        65.8580   33.9710   33.7490 C.3   870  NGA870      0.0964
      9  N2        64.2060   33.9270   31.9800 N.am  870  NGA870     -0.1991
     10  O1        63.2060   32.2200   30.0030 O.3   870  NGA870     -0.1879
     11  O3        61.7170   35.5210   32.1600 O.3   870  NGA870     -0.2183
     12  O4        61.8770   36.4780   29.5690 O.3   870  NGA870     -0.2176
     13  O5        62.9990   34.0210   28.4960 O.3   870  NGA870     -0.3242
     14  O6        61.3450   33.7970   26.3190 O.3   870  NGA870     -0.2176
     15  O7        65.3180   35.8590   32.2040 O.2   870  NGA870     -0.2733
@<TRIPOS>BOND
     1    14     6    1
     2     6     5    1
     3    13     5    1
     4    13     1    1
     5     5     4    1
     6    12     4    1
     7     1    10    1
     8     1     2    1
     9     4     3    1
    10     2     3    1
    11     2     9    1
    12     3    11    1
    13     9     7   am
    14    15     7    2
    15     7     8    1
