@<TRIPOS>MOLECULE
1ktg_AMP_A_1.pdb
 23 25 0 0 0
SMALL
GASTEIGER

@<TRIPOS>ATOM
      1  P         22.1240    1.0670   26.8580 P.3   701  AMP701      0.5327
      2  O1P       21.1410    1.3570   25.7400 O.2   701  AMP701     -0.2224
      3  O2P       23.5430    1.2990   26.3900 O.3   701  AMP701     -0.1145
      4  O3P       21.8030   -0.2720   27.4530 O.3   701  AMP701     -0.1145
      5  O5'       21.8130    2.1650   27.9950 O.3   701  AMP701     -0.2675
      6  C5'       22.4800    2.1370   29.2530 C.3   701  AMP701      0.1860
      7  C4'       22.2380    3.4670   29.9430 C.3   701  AMP701      0.1823
      8  O4'       22.9200    4.4720   29.2010 O.3   701  AMP701     -0.3135
      9  C3'       20.7640    3.8400   29.9690 C.3   701  AMP701      0.2184
     10  O3'       20.4410    4.3860   31.2390 O.3   701  AMP701     -0.2174
     11  C2'       20.5980    4.8560   28.8500 C.3   701  AMP701      0.2570
     12  O2'       19.7060    5.9080   29.1880 O.3   701  AMP701     -0.2130
     13  C1'       21.9980    5.4100   28.6390 C.3   701  AMP701      0.3186
     14  N9        22.3510    5.6560   27.2210 N.pl3 701  AMP701     -0.1439
     15  C8        22.0120    4.9280   26.1350 C.3   701  AMP701      0.3377
     16  N7        22.5430    5.4910   25.0210 N.2   701  AMP701     -0.2095
     17  C5        23.2290    6.5720   25.3800 C.2   701  AMP701      0.2526
     18  C6        24.0230    7.6010   24.6790 C.2   701  AMP701      0.4393
     19  N6        24.1700    7.5550   23.3320 N.pl3 701  AMP701      0.2180
     20  N1        24.5800    8.5760   25.4140 N.2   701  AMP701      0.0021
     21  C2        24.4350    8.6260   26.7560 C.3   701  AMP701      0.5254
     22  N3        23.7210    7.7110   27.4500 N.2   701  AMP701     -0.0055
     23  C4        23.1080    6.6900   26.8310 C.2   701  AMP701      0.3518
@<TRIPOS>BOND
     1    19    18    1
     2    18    17    1
     3    18    20    2
     4    16    17    2
     5    16    15    1
     6    17    23    1
     7    20    21    1
     8     2     1    2
     9    15    14    1
    10     3     1    1
    11    21    22    1
    12    23    14    1
    13    23    22    2
    14     1     4    1
    15     1     5    1
    16    14    13    1
    17     5     6    1
    18    13    11    1
    19    13     8    1
    20    11    12    1
    21    11     9    1
    22     8     7    1
    23     6     7    1
    24     7     9    1
    25     9    10    1
