@<TRIPOS>MOLECULE
1kti_AZC_A_1.pdb
 18 18 0 0 0
SMALL
GASTEIGER

@<TRIPOS>ATOM
      1  C1        33.4160   22.8210   27.8210 C.3   998  AZC998      0.2462
      2  C2        33.7160   23.0440   26.3300 C.3   998  AZC998      0.2326
      3  O2        33.8450   24.4240   26.0560 O.3   998  AZC998     -0.2157
      4  C3        32.6040   22.4320   25.4650 C.3   998  AZC998      0.2190
      5  O3        32.9470   22.5150   24.0980 O.3   998  AZC998     -0.2174
      6  C4        32.3730   20.9670   25.8430 C.3   998  AZC998      0.2144
      7  O4        31.2540   20.4710   25.1430 O.3   998  AZC998     -0.2176
      8  C5        32.1520   20.8170   27.3540 C.3   998  AZC998      0.1828
      9  O5        33.2490   21.4160   28.0610 O.3   998  AZC998     -0.3314
     10  C6        32.0780   19.3360   27.7240 C.3   998  AZC998      0.2142
     11  O6        33.2250   18.6610   27.2630 O.3   998  AZC998     -0.2176
     12  N1        34.5040   23.3140   28.6550 N.am  998  AZC998     -0.1564
     13  C7        34.2360   23.8900   29.8270 C.2   998  AZC998      0.3480
     14  O7        33.0670   24.0450   30.1890 O.2   998  AZC998     -0.2487
     15  N2        35.2460   24.3260   30.5900 N.am  998  AZC998     -0.1262
     16  C8        36.5280   24.1600   30.2510 C.2   998  AZC998      0.2497
     17  C9        37.5490   24.3450   31.3640 C.3   998  AZC998      0.0969
     18  O8        36.8910   23.8660   29.1140 O.2   998  AZC998     -0.2728
@<TRIPOS>BOND
     1     5     4    1
     2     7     6    1
     3     4     6    1
     4     4     2    1
     5     6     8    1
     6     3     2    1
     7     2     1    1
     8    11    10    1
     9     8    10    1
    10     8     9    1
    11     1     9    1
    12     1    12    1
    13    12    13   am
    14    18    16    2
    15    13    14    2
    16    13    15   am
    17    16    15   am
    18    16    17    1
