@<TRIPOS>MOLECULE
1kti_PLP_A_1.pdb
 15 15 0 0 0
SMALL
GASTEIGER

@<TRIPOS>ATOM
      1  N1        24.6530   25.5470   30.2870 N.ar  999  PLP999     -0.2452
      2  C2        23.5390   24.7910   30.5230 C.ar  999  PLP999      0.0978
      3  C2A       22.5900   25.1910   31.6410 C.3   999  PLP999      0.0555
      4  C3        23.3090   23.6560   29.7840 C.ar  999  PLP999      0.2049
      5  O3        22.1820   22.9050   30.0200 O.3   999  PLP999     -0.2857
      6  C4        24.2070   23.2730   28.8030 C.ar  999  PLP999      0.0182
      7  C4A       23.8790   22.0730   27.9060 C.3   999  PLP999      0.0342
      8  C5        25.3430   24.0440   28.5870 C.ar  999  PLP999      0.0261
      9  C6        25.5490   25.1690   29.3260 C.ar  999  PLP999      0.0965
     10  C5A       26.3320   23.7370   27.4650 C.3   999  PLP999      0.1815
     11  O4P       25.9490   24.4460   26.2960 O.3   999  PLP999     -0.2653
     12  P         26.9430   24.6390   25.0440 P.3   999  PLP999      0.5329
     13  O1P       26.1830   25.4070   24.0500 O.2   999  PLP999     -0.2224
     14  O2P       28.0870   25.5780   25.6600 O.3   999  PLP999     -0.1145
     15  O3P       27.5350   23.3340   24.6860 O.3   999  PLP999     -0.1145
@<TRIPOS>BOND
     1    13    12    2
     2    15    12    1
     3    12    14    1
     4    12    11    1
     5    11    10    1
     6    10     8    1
     7     7     6    1
     8     8     6   ar
     9     8     9   ar
    10     6     4   ar
    11     9     1   ar
    12     4     5    1
    13     4     2   ar
    14     1     2   ar
    15     2     3    1
