@<TRIPOS>MOLECULE
1ktp_CYC_B_1.pdb
 43 46 0 0 0
SMALL
GASTEIGER

@<TRIPOS>ATOM
      1  CHA       61.9810  125.4500    8.8080 C.3   555  CYC555      0.1170
      2  NA        62.7020  127.3810    7.5920 N.2   555  CYC555     -0.4104
      3  C1A       62.3820  126.0650    7.6210 C.2   555  CYC555      0.1114
      4  C2A       62.5560  125.4710    6.2970 C.2   555  CYC555      0.0024
      5  C3A       63.0110  126.4800    5.4310 C.2   555  CYC555      0.0021
      6  C4A       63.0930  127.7090    6.2970 C.2   555  CYC555      0.1114
      7  CMA       63.3390  126.2840    3.9210 C.3   555  CYC555      0.0331
      8  CAA       62.2970  123.9820    5.9200 C.3   555  CYC555      0.0402
      9  CBA       61.0230  123.7330    5.0700 C.3   555  CYC555      0.1188
     10  CGA       59.7470  124.1440    5.7780 C.2   555  CYC555      0.3652
     11  O1A       59.3790  123.4260    6.7350 O.co2 555  CYC555     -0.2456
     12  O2A       59.1300  125.1740    5.3990 O.co2 555  CYC555     -0.2456
     13  CHB       63.4930  129.0600    5.9940 C.3   555  CYC555      0.1181
     14  NB        65.4080  128.6670    4.5260 N.2   555  CYC555     -0.3375
     15  C1B       64.5430  129.5230    5.1860 C.2   555  CYC555      0.1254
     16  C2B       64.9210  130.9070    4.8880 C.2   555  CYC555      0.0128
     17  C3B       66.0200  130.8730    4.0440 C.2   555  CYC555      0.0706
     18  C4B       66.2730  129.4750    3.8570 C.1   555  CYC555      0.2000
     19  CMB       64.2160  132.1270    5.4210 C.3   555  CYC555      0.0339
     20  CAB       66.7880  132.1030    3.4530 C.3   555  CYC555      0.0390
     21  CBB       66.5810  132.3540    1.9860 C.3   555  CYC555      0.0058
     22  OB        67.1820  129.0420    3.1580 O.2   555  CYC555     -0.2096
     23  NC        58.3770  127.6610   13.8340 N.2   555  CYC555     -0.3448
     24  C1C       57.6210  128.2280   14.7530 C.1   555  CYC555      0.1788
     25  C2C       58.0240  129.6320   15.1530 C.3   555  CYC555      0.1246
     26  C3C       59.2500  129.8450   14.2310 C.3   555  CYC555      0.0660
     27  C4C       59.3980  128.5450   13.4540 C.2   555  CYC555      0.1070
     28  CMC       56.9870  130.7220   15.0030 C.3   555  CYC555      0.0192
     29  CAC       60.6480  130.1480   14.9740 C.3   555  CYC555      0.0078
     30  CBC       61.3410  131.3350   14.2670 C.3   555  CYC555      0.0005
     31  OC        56.6150  127.6410   15.2810 O.2   555  CYC555     -0.2142
     32  CHD       60.4010  128.2050   12.5110 C.3   555  CYC555      0.1138
     33  ND        61.1650  127.1480   10.5200 N.2   555  CYC555     -0.4104
     34  C1D       60.7310  127.0530   11.8120 C.2   555  CYC555      0.1111
     35  C2D       60.7440  125.6450   12.2160 C.2   555  CYC555      0.0021
     36  C3D       61.2010  124.9230   11.1530 C.2   555  CYC555      0.0024
     37  C4D       61.4640  125.8710   10.0820 C.2   555  CYC555      0.1114
     38  CMD       60.3590  124.9890   13.5690 C.3   555  CYC555      0.0331
     39  CAD       61.4700  123.4100   11.0590 C.3   555  CYC555      0.0402
     40  CBD       62.9870  123.2240   11.2940 C.3   555  CYC555      0.1188
     41  CGD       64.4140  123.2840   10.8110 C.2   555  CYC555      0.3652
     42  O1D       65.3100  123.6150   11.6280 O.co2 555  CYC555     -0.2456
     43  O2D       64.6630  122.9970    9.6050 O.co2 555  CYC555     -0.2456
@<TRIPOS>BOND
     1    21    20    1
     2    22    18    2
     3    20    17    1
     4    18    17    1
     5    18    14    2
     6     7     5    1
     7    17    16    2
     8    14    15    2
     9    16    15    1
    10    16    19    1
    11     9    10    1
    12     9     8    1
    13    15    13    1
    14    12    10   ar
    15     5     6    1
    16     5     4    2
    17    10    11   ar
    18     8     4    1
    19    13     6    1
    20     6     2    2
    21     4     3    1
    22     2     3    2
    23     3     1    1
    24     1    37    1
    25    43    41   ar
    26    37    33    2
    27    37    36    1
    28    33    34    2
    29    41    40    1
    30    41    42   ar
    31    39    36    1
    32    39    40    1
    33    36    35    2
    34    34    35    1
    35    34    32    1
    36    35    38    1
    37    32    27    1
    38    27    23    2
    39    27    26    1
    40    23    24    2
    41    26    29    1
    42    26    25    1
    43    30    29    1
    44    24    25    1
    45    24    31    2
    46    28    25    1
