@<TRIPOS>MOLECULE
1ktp_BLA_A_1.pdb
 43 46 0 0 0
SMALL
GASTEIGER

@<TRIPOS>ATOM
      1  CHA      110.4090  126.1500   13.0720 C.3   484  BLA484      0.1170
      2  NA       108.1460  126.4700   12.3540 N.2   484  BLA484     -0.4104
      3  C1A      109.2880  126.9420   12.9080 C.2   484  BLA484      0.1114
      4  C2A      109.1450  128.3250   13.2750 C.2   484  BLA484      0.0024
      5  C3A      107.8630  128.7340   12.9360 C.2   484  BLA484      0.0021
      6  C4A      107.2250  127.5140   12.3420 C.2   484  BLA484      0.1114
      7  CMA      107.3050  130.1610   13.1660 C.3   484  BLA484      0.0331
      8  CAA      110.2500  129.1920   13.9390 C.3   484  BLA484      0.0402
      9  CBA      110.0260  129.4990   15.4390 C.3   484  BLA484      0.1188
     10  CGA      109.9000  128.2550   16.3020 C.2   484  BLA484      0.3652
     11  O1A      108.7490  127.9630   16.6990 O.co2 484  BLA484     -0.2456
     12  O2A      110.9160  127.5800   16.5710 O.co2 484  BLA484     -0.2456
     13  CHB      105.8980  127.3220   11.8110 C.3   484  BLA484      0.1181
     14  NB       104.6140  128.6730   13.4150 N.2   484  BLA484     -0.3375
     15  C1B      104.6820  127.8560   12.2950 C.2   484  BLA484      0.1254
     16  C2B      103.3390  127.6930   11.7600 C.2   484  BLA484      0.0128
     17  C3B      102.4670  128.4180   12.5610 C.2   484  BLA484      0.0706
     18  C4B      103.3040  128.9970   13.5610 C.1   484  BLA484      0.2000
     19  CMB      102.9980  126.8750   10.5440 C.3   484  BLA484      0.0339
     20  OB       102.8820  129.7260   14.4680 O.2   484  BLA484     -0.2096
     21  CAB      100.9300  128.5550   12.3770 C.3   484  BLA484      0.0390
     22  CBB      100.1120  128.2100   13.5830 C.3   484  BLA484      0.0058
     23  NC       112.3220  120.9390    9.3940 N.2   484  BLA484     -0.3448
     24  C1C      112.5000  119.8910    8.6050 C.1   484  BLA484      0.1788
     25  C2C      111.2810  119.4030    7.8750 C.3   484  BLA484      0.1246
     26  C3C      110.2540  120.4900    8.3400 C.3   484  BLA484      0.0660
     27  C4C      110.9750  121.3660    9.3440 C.2   484  BLA484      0.1070
     28  CMC      111.3890  119.1280    6.3860 C.3   484  BLA484      0.0192
     29  OC       113.6170  119.3130    8.4650 O.2   484  BLA484     -0.2142
     30  CAC      108.7670  120.1260    8.8510 C.3   484  BLA484      0.0078
     31  CBC      107.8680  120.0130    7.5770 C.3   484  BLA484      0.0005
     32  CHD      110.4070  122.2470   10.3080 C.3   484  BLA484      0.1138
     33  ND       110.1880  124.1840   11.5610 N.2   484  BLA484     -0.4104
     34  C1D      110.9330  123.1050   11.2700 C.2   484  BLA484      0.1111
     35  C2D      112.1540  123.1350   12.0790 C.2   484  BLA484      0.0021
     36  C3D      112.0870  124.2920   12.8440 C.2   484  BLA484      0.0024
     37  C4D      110.8380  124.9280   12.4980 C.2   484  BLA484      0.1114
     38  CMD      113.3480  122.1430   12.1480 C.3   484  BLA484      0.0331
     39  CAD      113.0870  124.8780   13.8630 C.3   484  BLA484      0.0402
     40  CBD      114.1160  125.7700   13.1690 C.3   484  BLA484      0.1188
     41  CGD      115.1820  126.4490   13.9890 C.2   484  BLA484      0.3652
     42  O1D      116.0270  127.1640   13.3990 O.co2 484  BLA484     -0.2456
     43  O2D      115.1970  126.2750   15.2370 O.co2 484  BLA484     -0.2456
@<TRIPOS>BOND
     1    28    25    1
     2    31    30    1
     3    25    26    1
     4    25    24    1
     5    26    30    1
     6    26    27    1
     7    29    24    2
     8    24    23    2
     9    27    23    2
    10    27    32    1
    11    32    34    1
    12    19    16    1
    13    34    33    2
    14    34    35    1
    15    33    37    2
    16    16    15    1
    17    16    17    2
    18    13    15    1
    19    13     6    1
    20    35    38    1
    21    35    36    2
    22    15    14    2
    23     6     2    2
    24     6     5    1
    25     2     3    2
    26    21    17    1
    27    21    22    1
    28    37    36    1
    29    37     1    1
    30    17    18    1
    31    36    39    1
    32     3     1    1
    33     3     4    1
    34     5     7    1
    35     5     4    2
    36    40    39    1
    37    40    41    1
    38     4     8    1
    39    42    41   ar
    40    14    18    2
    41    18    20    2
    42     8     9    1
    43    41    43   ar
    44     9    10    1
    45    10    12   ar
    46    10    11   ar
