@<TRIPOS>MOLECULE
1ktr_III_P_1.pdb
 36 38 0 0 0
SMALL
GASTEIGER

@<TRIPOS>ATOM
      1  N         15.9820   59.2400    9.6930 N.3     3  HIS3       -0.1231
      2  CA        14.8190   58.7800    8.8810 C.3     3  HIS3        0.1694
      3  C         13.4980   59.4130    9.3470 C.2     3  HIS3        0.2592
      4  O         12.5540   59.5390    8.5690 O.2     3  HIS3       -0.2718
      5  CB        14.7210   57.2520    8.9410 C.3     3  HIS3        0.0304
      6  N         13.4390   59.8210   10.6110 N.am    4  HIS4       -0.1962
      7  CA        12.2300   60.4220   11.1740 C.3     4  HIS4        0.1784
      8  C         11.8240   61.7490   10.5230 C.2     4  HIS4        0.2620
      9  O         12.6680   62.6140   10.2820 O.2     4  HIS4       -0.2715
     10  CB        12.4060   60.6350   12.6800 C.3     4  HIS4        0.0745
     11  CG        11.1660   61.1130   13.3660 C.2     4  HIS4        0.0653
     12  ND1        9.9820   60.4090   13.3340 N.2     4  HIS4       -0.2310
     13  CD2       10.9140   62.2390   14.0730 C.3     4  HIS4        0.1683
     14  CE1        9.0530   61.0820   13.9890 C.2     4  HIS4        0.1939
     15  NE2        9.5930   62.1970   14.4470 N.2     4  HIS4       -0.2440
     16  N         10.5290   61.9110   10.2490 N.am    5  HIS5       -0.1959
     17  CA        10.0360   63.1470    9.6340 C.3     5  HIS5        0.1784
     18  C          8.7540   63.6530   10.2980 C.2     5  HIS5        0.2621
     19  O          8.1260   62.9420   11.0840 O.2     5  HIS5       -0.2715
     20  CB         9.8030   62.9400    8.1320 C.3     5  HIS5        0.0745
     21  CG         8.7800   61.8960    7.8230 C.2     5  HIS5        0.0653
     22  ND1        7.4330   62.0900    8.0360 N.2     5  HIS5       -0.2310
     23  CD2        8.9120   60.6270    7.3730 C.3     5  HIS5        0.1683
     24  CE1        6.7780   60.9840    7.7340 C.2     5  HIS5        0.1939
     25  NE2        7.6520   60.0800    7.3300 N.2     5  HIS5       -0.2440
     26  N          8.3700   64.8850    9.9730 N.am    6  HIS6       -0.1937
     27  CA         7.1750   65.5000   10.5460 C.3     6  HIS6        0.2034
     28  C          5.8890   64.8670    9.9870 C.2     6  HIS6        0.3846
     29  O          5.9600   64.2080    8.9280 O.co2   6  HIS6       -0.2437
     30  CB         7.1990   67.0050   10.2500 C.3     6  HIS6        0.0767
     31  CG         6.2130   67.8070   11.0440 C.2     6  HIS6        0.0653
     32  ND1        5.3440   68.7030   10.4600 N.2     6  HIS6       -0.2309
     33  CD2        5.9930   67.8840   12.3780 C.3     6  HIS6        0.1683
     34  CE1        4.6320   69.2990   11.4000 C.2     6  HIS6        0.1939
     35  NE2        5.0070   68.8200   12.5730 N.2     6  HIS6       -0.2440
     36  OXT        4.8180   65.0430   10.6040 O.co2   6  HIS6       -0.2437
@<TRIPOS>BOND
     1    25    23    1
     2    25    24    2
     3    23    21    1
     4    24    22    1
     5    21    22    2
     6    21    20    1
     7    20    17    1
     8     4     3    2
     9     2     5    1
    10     2     3    1
    11     2     1    1
    12    29    28   ar
    13     3     6   am
    14    17    16    1
    15    17    18    1
    16    26    18   am
    17    26    27    1
    18    28    27    1
    19    28    36   ar
    20    16     8   am
    21    30    27    1
    22    30    31    1
    23     9     8    2
    24    18    19    2
    25    32    31    2
    26    32    34    1
    27     8     7    1
    28     6     7    1
    29    31    33    1
    30     7    10    1
    31    34    35    2
    32    33    35    1
    33    10    11    1
    34    12    11    2
    35    12    14    1
    36    11    13    1
    37    14    15    2
    38    13    15    1
