@<TRIPOS>MOLECULE
1kts_C24_B_1.pdb
 37 40 0 0 0
SMALL
GASTEIGER

@<TRIPOS>ATOM
      1  C2        14.3240  -11.7530   20.7750 C.ar  999  C24999      0.0659
      2  N10       15.3200  -11.9160   19.9120 N.pl3 999  C24999     -0.2285
      3  C11       16.7250  -11.6230   20.1950 C.3   999  C24999      0.1867
      4  C12       17.5050  -12.6650   21.0010 C.2   999  C24999      0.1859
      5  N16       16.8850  -13.4190   21.9150 N.2   999  C24999     -0.3881
      6  C15       17.9320  -14.1180   22.3800 C.2   999  C24999      0.1458
      7  C18       17.8540  -15.0490   23.3690 C.2   999  C24999      0.0339
      8  C19       18.9510  -15.7210   23.8070 C.2   999  C24999      0.0387
      9  C40       18.7870  -16.6720   24.8760 C.2   999  C24999      0.2502
     10  O21       17.7890  -17.4000   24.7800 O.2   999  C24999     -0.2699
     11  N22       19.5950  -16.7250   25.9630 N.am  999  C24999     -0.2400
     12  C23       20.5640  -15.8050   26.1390 C.ar  999  C24999      0.1376
     13  C24       20.2100  -14.6170   26.7010 C.ar  999  C24999      0.0347
     14  C25       21.0900  -13.5420   26.7530 C.ar  999  C24999      0.0045
     15  C26       22.3540  -13.6700   26.2250 C.ar  999  C24999      0.0208
     16  C27       22.7360  -14.8770   25.6550 C.ar  999  C24999      0.1003
     17  N28       21.7980  -15.9490   25.6240 N.ar  999  C24999     -0.2288
     18  C29       19.3950  -17.7270   27.0130 C.3   999  C24999      0.1116
     19  C30       18.2980  -17.3390   27.9930 C.3   999  C24999      0.1314
     20  C31       18.2060  -18.2710   29.1880 C.2   999  C24999      0.3188
     21  O32       18.7690  -17.9910   30.2470 O.2   999  C24999     -0.2500
     22  O33       17.4130  -19.4890   29.1150 O.3   999  C24999     -0.4485
     23  C34       18.1730  -20.6630   28.7110 C.3   999  C24999      0.2086
     24  C35       19.0210  -21.1670   29.8700 C.3   999  C24999      0.0513
     25  C20       20.1390  -15.3510   23.1550 C.3   999  C24999      0.0584
     26  C21       20.2270  -14.3910   22.1370 C.2   999  C24999     -0.0038
     27  C14       19.0860  -13.7820   21.7780 C.2   999  C24999      0.0792
     28  N13       18.8310  -12.8370   20.8570 N.pl3 999  C24999     -0.2610
     29  C17       19.7610  -12.1870   19.9180 C.3   999  C24999      0.1195
     30  C3        14.3140  -10.7750   21.6870 C.ar  999  C24999      0.0164
     31  C4        13.2730  -10.7000   22.6130 C.ar  999  C24999      0.0093
     32  C5        12.2660  -11.6010   22.6330 C.ar  999  C24999      0.0976
     33  C7        11.2710  -11.5560   23.5970 C.2   999  C24999      0.4766
     34  N9        11.2420  -10.5860   24.5090 N.pl3 999  C24999      0.2047
     35  N8        10.3280  -12.4910   23.6340 N.pl3 999  C24999      0.2047
     36  C6        12.2990  -12.5630   21.6970 C.ar  999  C24999      0.0093
     37  C1        13.3350  -12.6420   20.7700 C.ar  999  C24999      0.0164
@<TRIPOS>BOND
     1     2     3    1
     2     2     1    1
     3    29    28    1
     4     3     4    1
     5    37     1   ar
     6    37    36   ar
     7     1    30   ar
     8    28     4    1
     9    28    27    1
    10     4     5    2
    11    30    31   ar
    12    36    32   ar
    13    27    26    2
    14    27     6    1
    15     5     6    2
    16    26    25    1
    17     6     7    1
    18    31    32   ar
    19    32    33    1
    20    25     8    1
    21     7     8    2
    22    33    35    2
    23    33    34    1
    24     8     9    1
    25    10     9    2
    26     9    11   am
    27    17    16   ar
    28    17    12   ar
    29    16    15   ar
    30    11    12    1
    31    11    18    1
    32    12    13   ar
    33    15    14   ar
    34    13    14   ar
    35    18    19    1
    36    19    20    1
    37    23    22    1
    38    23    24    1
    39    22    20    1
    40    20    21    2
