@<TRIPOS>MOLECULE
1ktt_C02_B_1.pdb
 30 33 0 0 0
SMALL
GASTEIGER

@<TRIPOS>ATOM
      1  N1        10.5800  -10.5680   24.5650 N.pl3   1  C021        0.2047
      2  C2        10.8260  -11.5850   23.7070 C.2     1  C021        0.4766
      3  N3         9.9610  -12.6250   23.6480 N.pl3   1  C021        0.2047
      4  C4        12.0260  -11.5830   22.8940 C.ar    1  C021        0.0975
      5  C5        12.8560  -10.4630   22.8750 C.ar    1  C021        0.0077
      6  C6        14.0230  -10.4530   22.1090 C.ar    1  C021       -0.0035
      7  C7        14.3710  -11.5740   21.3480 C.ar    1  C021       -0.0137
      8  C8        13.5360  -12.6990   21.3620 C.ar    1  C021       -0.0035
      9  C9        12.3660  -12.7030   22.1330 C.ar    1  C021        0.0077
     10  C10       15.6440  -11.5630   20.5380 C.3     1  C021        0.1014
     11  C11       16.6320  -12.5900   21.0740 C.2     1  C021        0.1678
     12  N12       16.3080  -13.6130   21.8710 N.2     1  C021       -0.3935
     13  C13       17.4150  -14.3100   22.1470 C.2     1  C021        0.1295
     14  C14       18.4710  -13.6880   21.4910 C.2     1  C021        0.0794
     15  N15       17.9620  -12.6300   20.8380 N.pl3   1  C021       -0.2622
     16  C16       18.7180  -11.6760   20.0070 C.3     1  C021        0.1195
     17  C17       19.7580  -14.2200   21.6130 C.2     1  C021        0.0182
     18  C18       19.9860  -15.3780   22.3920 C.2     1  C021        0.0154
     19  C19       18.9250  -15.9900   23.0380 C.2     1  C021        0.0758
     20  C20       17.6360  -15.4450   22.9100 C.3     1  C021        0.1049
     21  N21       19.1080  -17.0040   23.9640 N.pl3   1  C021       -0.1005
     22  S22       19.4730  -16.7620   25.6550 S.O2    1  C021        0.0925
     23  C23       20.6620  -15.5090   25.7670 C.ar    1  C021        0.1270
     24  C24       21.9330  -15.7250   25.2280 C.ar    1  C021        0.0202
     25  C25       22.9010  -14.7190   25.2980 C.ar    1  C021        0.0014
     26  C26       22.5950  -13.5020   25.9050 C.ar    1  C021        0.0001
     27  C27       21.3240  -13.2870   26.4430 C.ar    1  C021        0.0014
     28  C28       20.3580  -14.2910   26.3720 C.ar    1  C021        0.0202
     29  O29       18.2750  -16.3900   26.3610 O.2     1  C021       -0.1483
     30  O30       20.0010  -17.9430   26.2710 O.2     1  C021       -0.1483
@<TRIPOS>BOND
     1    16    15    1
     2    10    11    1
     3    10     7    1
     4    15    11    1
     5    15    14    1
     6    11    12    2
     7     7     8   ar
     8     7     6   ar
     9     8     9   ar
    10    14    17    2
    11    14    13    1
    12    17    18    1
    13    12    13    2
    14     6     5   ar
    15     9     4   ar
    16    13    20    1
    17    18    19    2
    18     5     4   ar
    19     4     2    1
    20    20    19    1
    21    19    21    1
    22     3     2    2
    23     2     1    1
    24    21    22    1
    25    24    25   ar
    26    24    23   ar
    27    25    26   ar
    28    22    23    1
    29    22    30    2
    30    22    29    2
    31    23    28   ar
    32    26    27   ar
    33    28    27   ar
