@<TRIPOS>MOLECULE
1ktw_DGS_A_1.pdb
 14 15 0 0 0
SMALL
GASTEIGER

@<TRIPOS>ATOM
      1  C1         7.4960   11.8640   27.1010 C.3     1  DGS1        0.1767
      2  C2         6.0350   11.4490   27.4230 C.3     1  DGS1        0.2021
      3  C3         5.5840   11.9690   28.8000 C.3     1  DGS1        0.1799
      4  C4         5.7740   13.4640   28.8000 C.3     1  DGS1        0.2108
      5  C5         7.2730   13.5130   28.9200 C.3     1  DGS1        0.1775
      6  C6         7.5480   12.3810   29.9240 C.3     1  DGS1        0.1743
      7  O2         5.1620   11.9010   26.3640 O.3     1  DGS1       -0.2385
      8  O3         6.4630   11.4360   29.8070 O.3     1  DGS1       -0.3482
      9  O4         5.1370   14.0370   29.9340 O.3     1  DGS1       -0.2177
     10  O5         7.8300   13.1720   27.6220 O.3     1  DGS1       -0.3482
     11  O7         2.8690   12.4360   25.5120 O.2     1  DGS1       -0.3452
     12  O8         3.1340   11.9920   27.8650 O.3     1  DGS1       -0.2682
     13  O9         3.3240   10.1940   26.3020 O.2     1  DGS1       -0.3452
     14  S          3.5920   11.6290   26.5120 S.3     1  DGS1       -0.0001
@<TRIPOS>BOND
     1    11    14    2
     2    13    14    2
     3     7    14    1
     4     7     2    1
     5    14    12    1
     6     1     2    1
     7     1    10    1
     8     2     3    1
     9    10     5    1
    10     3     4    1
    11     3     8    1
    12     4     5    1
    13     4     9    1
    14     5     6    1
    15     8     6    1
