@<TRIPOS>MOLECULE
1ktw_G4S_A_1.pdb
 16 16 0 0 0
SMALL
GASTEIGER

@<TRIPOS>ATOM
      1  C1        10.2030   12.6100   23.0410 C.3     2  G4S2        0.3024
      2  C2         8.8320   12.5410   23.7260 C.3     2  G4S2        0.2434
      3  C3         8.9730   12.0120   25.1630 C.3     2  G4S2        0.2191
      4  C4         9.7450   10.6870   25.1540 C.3     2  G4S2        0.2057
      5  C5        11.0790   10.8750   24.4300 C.3     2  G4S2        0.1827
      6  C6        11.8910    9.5980   24.3400 C.3     2  G4S2        0.2142
      7  O1        10.0510   12.9660   21.7120 O.3     2  G4S2       -0.1869
      8  O2         8.2340   13.8290   23.7460 O.3     2  G4S2       -0.2148
      9  O3         7.6600   11.7980   25.7100 O.3     2  G4S2       -0.2174
     10  O4         8.9660    9.6760   24.4900 O.3     2  G4S2       -0.2384
     11  O5        10.8440   11.3280   23.0820 O.3     2  G4S2       -0.3237
     12  O6        11.9490    8.9360   25.5950 O.3     2  G4S2       -0.2176
     13  S          8.4590    8.4590   25.3970 S.3     2  G4S2       -0.0001
     14  O7         7.3850    7.7450   24.6870 O.2     2  G4S2       -0.3452
     15  O8         7.9290    8.9790   26.6710 O.3     2  G4S2       -0.2682
     16  O9         9.5740    7.5290   25.6520 O.2     2  G4S2       -0.3452
@<TRIPOS>BOND
     1     7     1    1
     2     1    11    1
     3     1     2    1
     4    11     5    1
     5     2     8    1
     6     2     3    1
     7     6     5    1
     8     6    12    1
     9     5     4    1
    10    10     4    1
    11    10    13    1
    12    14    13    2
    13     4     3    1
    14     3     9    1
    15    13    16    2
    16    13    15    1
