@<TRIPOS>MOLECULE
1kug_III_B_1.pdb
 31 33 0 0 0
SMALL
GASTEIGER

@<TRIPOS>ATOM
      1  N         14.7340    9.7220    3.5610 N.2   251  GLU251     -0.1905
      2  CA        14.5310    9.7960    5.0170 C.3   251  GLU251      0.2148
      3  CB        15.1570   11.0830    5.5440 C.2   251  GLU251      0.0202
      4  CG        15.5720   11.8090    4.3110 C.2   251  GLU251      0.0916
      5  CD        15.2400   10.8890    3.1720 C.1   251  GLU251      0.1512
      6  OE        15.4200   11.1820    1.9940 O.2   251  GLU251     -0.2222
      7  C         13.0330    9.8100    5.2580 C.2   251  GLU251      0.2692
      8  O         12.2950   10.5840    4.6390 O.2   251  GLU251     -0.2708
      9  N         12.5690    8.9570    6.1580 N.am  252  ASN252     -0.1953
     10  CA        11.1470    8.8960    6.4520 C.3   252  ASN252      0.1820
     11  C         10.8900    9.6840    7.7290 C.2   252  ASN252      0.2622
     12  O         11.6330    9.5580    8.6920 O.2   252  ASN252     -0.2715
     13  CB        10.6990    7.4480    6.7070 C.3   252  ASN252      0.1195
     14  CG        10.3820    6.6900    5.4250 C.2   252  ASN252      0.2630
     15  OD1        9.5140    7.0940    4.6430 O.2   252  ASN252     -0.2716
     16  ND2       11.0820    5.5780    5.2100 N.am  252  ASN252     -0.0877
     17  N          9.8480   10.5060    7.7090 N.am  253  TRP253     -0.1938
     18  CA         9.4280   11.2720    8.8820 C.3   253  TRP253      0.2021
     19  C          7.9450   11.5410    8.7920 C.2   253  TRP253      0.3845
     20  O          7.3180   11.9290    9.7860 O.co2 253  TRP253     -0.2437
     21  CB        10.1990   12.5860    9.0170 C.3   253  TRP253      0.0612
     22  CG         9.8990   13.7170    8.0130 C.2   253  TRP253      0.0004
     23  CD1        9.2560   13.6470    6.8000 C.2   253  TRP253      0.0946
     24  CD2       10.2400   15.0840    8.2040 C.2   253  TRP253      0.0113
     25  NE1        9.1800   14.9050    6.2250 N.2   253  TRP253     -0.2442
     26  CE2        9.7730   15.8100    7.0650 C.2   253  TRP253      0.0804
     27  CE3       10.8860   15.7750    9.2180 C.2   253  TRP253     -0.0202
     28  CZ2        9.9360   17.1980    6.9360 C.2   253  TRP253      0.0148
     29  CZ3       11.0630   17.1550    9.0990 C.3   253  TRP253      0.0521
     30  CH2       10.5910   17.8570    7.9710 C.2   253  TRP253     -0.0199
     31  OXT        7.3740   11.3840    7.6910 O.co2 253  TRP253     -0.2437
@<TRIPOS>BOND
     1     6     5    2
     2     5     1    2
     3     5     4    1
     4     1     2    1
     5     4     3    2
     6     8     7    2
     7    15    14    2
     8     2     7    1
     9     2     3    1
    10    16    14   am
    11     7     9   am
    12    14    13    1
    13     9    10    1
    14    25    23    1
    15    25    26    2
    16    10    13    1
    17    10    11    1
    18    23    22    2
    19    28    26    1
    20    28    30    2
    21    26    24    1
    22    31    19   ar
    23    17    11   am
    24    17    18    1
    25    11    12    2
    26    30    29    1
    27    22    24    1
    28    22    21    1
    29    24    27    2
    30    19    18    1
    31    19    20   ar
    32    18    21    1
    33    29    27    1
