@<TRIPOS>MOLECULE
1kui_III_B_1.pdb
 32 34 0 0 0
SMALL
GASTEIGER

@<TRIPOS>ATOM
      1  N         14.4190    8.8560    3.4020 N.2   251  GLU251     -0.1988
      2  CA        14.1520    9.0600    4.8420 C.3   251  GLU251      0.1929
      3  CB        14.7590   10.4020    5.2550 C.3   251  GLU251      0.0523
      4  CG        15.1420   11.0440    3.9910 C.3   251  GLU251      0.1242
      5  CD        14.8330   10.0340    2.9230 C.1   251  GLU251      0.1265
      6  OE        14.9360   10.2910    1.7250 O.2   251  GLU251     -0.2270
      7  C         12.6460    9.0430    5.1030 C.2   251  GLU251      0.2649
      8  O         11.8800    9.7360    4.4280 O.2   251  GLU251     -0.2712
      9  N         12.2230    8.2400    6.0760 N.am  252  GLN252     -0.1961
     10  CA        10.8100    8.1190    6.4210 C.3   252  GLN252      0.1733
     11  C         10.5230    8.7760    7.7650 C.2   252  GLN252      0.2617
     12  O         11.2560    8.5700    8.7340 O.2   252  GLN252     -0.2715
     13  CB        10.4010    6.6440    6.4680 C.3   252  GLN252      0.0408
     14  CG        10.1810    6.0250    5.0920 C.3   252  GLN252      0.0908
     15  CD         9.8380    4.5470    5.1580 C.2   252  GLN252      0.2608
     16  OE1        9.1980    4.0870    6.0970 O.2   252  GLN252     -0.2717
     17  NE2       10.2540    3.8010    4.1510 N.am  252  GLN252     -0.0878
     18  N          9.4560    9.5660    7.8140 N.am  253  TRP253     -0.1938
     19  CA         9.0720   10.2640    9.0330 C.3   253  TRP253      0.2018
     20  C          7.5750   10.5150    9.0310 C.2   253  TRP253      0.3845
     21  O          7.0060   10.7110   10.1200 O.co2 253  TRP253     -0.2437
     22  CB         9.8450   11.5890    9.1470 C.3   253  TRP253      0.0575
     23  CG         9.4780   12.6590    8.1430 C.2   253  TRP253     -0.0136
     24  CD1        8.8150   12.4940    6.9570 C.2   253  TRP253      0.0907
     25  CD2        9.8070   14.0520    8.2220 C.3   253  TRP253      0.0819
     26  NE1        8.7140   13.6950    6.2950 N.2   253  TRP253     -0.2482
     27  CE2        9.3160   14.6680    7.0490 C.2   253  TRP253      0.0665
     28  CE3       10.4730   14.8390    9.1700 C.2   253  TRP253     -0.0164
     29  CZ2        9.4700   16.0380    6.8000 C.2   253  TRP253      0.0153
     30  CZ3       10.6270   16.2010    8.9200 C.2   253  TRP253     -0.0038
     31  CH2       10.1270   16.7840    7.7440 C.2   253  TRP253      0.0009
     32  OXT        6.9930   10.5190    7.9300 O.co2 253  TRP253     -0.2437
@<TRIPOS>BOND
     1     6     5    2
     2     5     1    2
     3     5     4    1
     4     1     2    1
     5     4     3    1
     6    17    15   am
     7     8     7    2
     8     2     7    1
     9     2     3    1
    10    14    15    1
    11    14    13    1
    12     7     9   am
    13    15    16    2
    14     9    10    1
    15    26    24    1
    16    26    27    2
    17    10    13    1
    18    10    11    1
    19    29    27    1
    20    29    31    2
    21    24    23    2
    22    27    25    1
    23    31    30    1
    24    11    18   am
    25    11    12    2
    26    18    19    1
    27    32    20   ar
    28    23    25    1
    29    23    22    1
    30    25    28    1
    31    30    28    2
    32    20    19    1
    33    20    21   ar
    34    19    22    1
