@<TRIPOS>MOLECULE
1kuj_MMA_A_1.pdb
 13 13 0 0 0
SMALL
GASTEIGER

@<TRIPOS>ATOM
      1  C1         7.1190   27.2900   38.9220 C.3   501  MMA501      0.2695
      2  C2         7.3330   27.5080   37.4150 C.3   501  MMA501      0.2406
      3  C3         5.9770   27.3140   36.6740 C.3   501  MMA501      0.2198
      4  C4         5.3240   25.9360   37.0020 C.3   501  MMA501      0.2144
      5  C5         5.0990   25.8390   38.5310 C.3   501  MMA501      0.1835
      6  C6         4.4600   24.5170   39.0000 C.3   501  MMA501      0.2142
      7  C7         6.0160   28.4330   40.8150 C.3   501  MMA501      0.1769
      8  O1         6.2760   28.3460   39.3880 O.3   501  MMA501     -0.3259
      9  O2         8.2290   26.5440   36.9540 O.3   501  MMA501     -0.2149
     10  O3         6.2100   27.4550   35.2340 O.3   501  MMA501     -0.2174
     11  O4         4.0690   25.7890   36.3260 O.3   501  MMA501     -0.2176
     12  O5         6.3990   26.0220   39.1780 O.3   501  MMA501     -0.3256
     13  O6         5.2590   23.4010   38.6550 O.3   501  MMA501     -0.2176
@<TRIPOS>BOND
     1    10     3    1
     2    11     4    1
     3     3     4    1
     4     3     2    1
     5     9     2    1
     6     4     5    1
     7     2     1    1
     8     5     6    1
     9     5    12    1
    10    13     6    1
    11     1    12    1
    12     1     8    1
    13     8     7    1
