@<TRIPOS>MOLECULE
1kuk_III_B_1.pdb
 32 34 0 0 0
SMALL
GASTEIGER

@<TRIPOS>ATOM
      1  N         14.4660    8.9470    3.5740 N.2   251  GLU251     -0.1988
      2  CA        14.2340    9.1570    5.0140 C.3   251  GLU251      0.1929
      3  CB        14.7620   10.5400    5.3750 C.3   251  GLU251      0.0523
      4  CG        14.9680   11.2060    4.0720 C.3   251  GLU251      0.1242
      5  CD        14.8050   10.1240    3.0490 C.1   251  GLU251      0.1265
      6  OE        14.9810   10.3060    1.8320 O.2   251  GLU251     -0.2270
      7  C         12.7310    9.1110    5.1970 C.2   251  GLU251      0.2649
      8  O         12.0110    9.8100    4.4960 O.2   251  GLU251     -0.2712
      9  N         12.2500    8.3040    6.1380 N.am  252  LYS252     -0.1961
     10  CA        10.8270    8.2100    6.3910 C.3   252  LYS252      0.1728
     11  C         10.5100    8.9110    7.6950 C.2   252  LYS252      0.2617
     12  O         11.1900    8.7320    8.7000 O.2   252  LYS252     -0.2715
     13  CB        10.3460    6.7390    6.4710 C.3   252  LYS252      0.0311
     14  CG        10.4510    5.9290    5.1680 C.3   252  LYS252      0.0038
     15  CD         9.7910    4.5470    5.3530 C.3   252  LYS252      0.0206
     16  CE        10.0040    3.6890    4.0930 C.3   252  LYS252      0.1093
     17  NZ        11.4620    3.6570    3.7520 N.3   252  LYS252     -0.1314
     18  N          9.4740    9.7370    7.6780 N.am  253  TRP253     -0.1938
     19  CA         9.0230   10.4400    8.9000 C.3   253  TRP253      0.2018
     20  C          7.4940   10.6660    8.9110 C.2   253  TRP253      0.3845
     21  O          6.9190   11.0100    9.9430 O.co2 253  TRP253     -0.2437
     22  CB         9.7590   11.7870    9.0590 C.3   253  TRP253      0.0575
     23  CG         9.4310   12.9170    8.0850 C.2   253  TRP253     -0.0136
     24  CD1        8.7080   12.8480    6.9260 C.2   253  TRP253      0.0907
     25  CD2        9.8540   14.2760    8.2150 C.3   253  TRP253      0.0819
     26  NE1        8.6610   14.0940    6.3280 N.2   253  TRP253     -0.2482
     27  CE2        9.3550   14.9850    7.1000 C.2   253  TRP253      0.0665
     28  CE3       10.6100   14.9630    9.1780 C.2   253  TRP253     -0.0164
     29  CZ2        9.5750   16.3620    6.9200 C.2   253  TRP253      0.0153
     30  CZ3       10.8380   16.3310    9.0130 C.2   253  TRP253     -0.0038
     31  CH2       10.3180   17.0270    7.8890 C.2   253  TRP253      0.0009
     32  OXT        6.8580   10.5450    7.8220 O.co2 253  TRP253     -0.2437
@<TRIPOS>BOND
     1     6     5    2
     2     5     1    2
     3     5     4    1
     4     1     2    1
     5    17    16    1
     6     4     3    1
     7    16    15    1
     8     8     7    2
     9     2     7    1
    10     2     3    1
    11    14    15    1
    12    14    13    1
    13     7     9   am
    14     9    10    1
    15    26    24    1
    16    26    27    2
    17    10    13    1
    18    10    11    1
    19    29    27    1
    20    29    31    2
    21    24    23    2
    22    27    25    1
    23    18    11   am
    24    18    19    1
    25    11    12    2
    26    32    20   ar
    27    31    30    1
    28    23    25    1
    29    23    22    1
    30    25    28    1
    31    19    20    1
    32    19    22    1
    33    20    21   ar
    34    30    28    2
