@<TRIPOS>MOLECULE
1kv1_BMU_A_1.pdb
 21 22 0 0 0
SMALL
GASTEIGER

@<TRIPOS>ATOM
      1  C1        33.3350   33.7310   14.7430 C.2   391  BMU391      0.3491
      2  O1        32.6010   34.5460   15.3330 O.2   391  BMU391     -0.2484
      3  N2        34.5710   33.5060   15.1830 N.am  391  BMU391     -0.1606
      4  C3        35.1480   34.1290   16.2090 C.ar  391  BMU391      0.0750
      5  C4        36.4480   34.4790   16.0740 C.ar  391  BMU391      0.0175
      6  C5        37.1140   35.1040   17.1080 C.ar  391  BMU391      0.0127
      7  C6        36.4760   35.3630   18.2450 C.ar  391  BMU391      0.0578
      8 CL6        37.3570   36.1330   19.5340 Cl    391  BMU391     -0.0822
      9  C7        35.1700   35.0230   18.4040 C.ar  391  BMU391      0.0127
     10  C8        34.4900   34.3920   17.3610 C.ar  391  BMU391      0.0175
     11  N9        32.9130   33.0390   13.6810 N.am  391  BMU391     -0.1421
     12  C10       31.7140   33.1640   13.1110 C.ar  391  BMU391      0.1543
     13  C14       31.0350   34.3170   12.8600 C.ar  391  BMU391      0.0523
     14  C13       29.8770   33.9530   12.1980 C.ar  391  BMU391      0.0807
     15  N12       29.8450   32.6300   12.0430 N.ar  391  BMU391     -0.1725
     16  N11       31.0160   32.1480   12.6350 N.ar  391  BMU391     -0.2342
     17  C15       31.4020   30.7330   12.7230 C.3   391  BMU391      0.1552
     18  C17       28.3360   35.6290   12.9670 C.3   391  BMU391      0.0060
     19  C18       27.7110   33.9850   11.1740 C.3   391  BMU391      0.0060
     20  C19       29.4050   35.7600   10.6900 C.3   391  BMU391      0.0060
     21  C16       28.8780   34.8070   11.7780 C.3   391  BMU391      0.0372
@<TRIPOS>BOND
     1    20    21    1
     2    19    21    1
     3    21    14    1
     4    21    18    1
     5    15    14   ar
     6    15    16   ar
     7    14    13   ar
     8    16    17    1
     9    16    12   ar
    10    13    12   ar
    11    12    11    1
    12    11     1   am
    13     1     3   am
    14     1     2    2
    15     3     4    1
    16     5     4   ar
    17     5     6   ar
    18     4    10   ar
    19     6     7   ar
    20    10     9   ar
    21     7     9   ar
    22     7     8    1
