@<TRIPOS>MOLECULE
1kv3_GDP_A_1.pdb
 28 30 0 0 0
SMALL
GASTEIGER

@<TRIPOS>ATOM
      1  PB        39.2420  151.9750  218.2440 P.3   700  GDP700      0.5373
      2  O1B       39.4320  153.2430  217.4980 O.2   700  GDP700     -0.2221
      3  O2B       38.0730  151.1690  217.9910 O.3   700  GDP700     -0.1143
      4  O3B       40.5070  151.1410  218.0510 O.3   700  GDP700     -0.1143
      5  O3A       39.3080  152.2790  219.8010 O.3   700  GDP700     -0.2261
      6  PA        38.2890  152.1120  221.0080 P.3   700  GDP700      0.2231
      7  O1A       37.9200  150.7020  221.2220 O.2   700  GDP700     -0.5169
      8  O2A       38.8550  152.8530  222.1190 O.3   700  GDP700     -0.4370
      9  O5'       37.0230  152.9230  220.4440 O.3   700  GDP700     -0.3111
     10  C5'       37.0540  154.3700  220.3870 C.3   700  GDP700      0.1813
     11  C4'       35.8240  155.0280  221.0570 C.3   700  GDP700      0.1799
     12  O4'       34.6200  154.3950  220.6270 O.3   700  GDP700     -0.3326
     13  C3'       35.7790  154.9480  222.5720 C.3   700  GDP700      0.2158
     14  O3'       35.1080  156.1140  223.0490 O.3   700  GDP700     -0.2175
     15  C2'       34.9790  153.7300  222.8580 C.3   700  GDP700      0.2310
     16  O2'       34.3760  153.7410  224.1700 O.3   700  GDP700     -0.2158
     17  C1'       33.9810  153.7600  221.7200 C.3   700  GDP700      0.2293
     18  N9        33.5900  152.4370  221.2840 N.pl3 700  GDP700     -0.2354
     19  C8        34.3410  151.3650  220.9610 C.3   700  GDP700      0.2246
     20  N7        33.6900  150.3210  220.6090 N.2   700  GDP700     -0.2322
     21  C5        32.3720  150.7200  220.7070 C.2   700  GDP700      0.2182
     22  C6        31.1720  149.9950  220.4490 C.1   700  GDP700      0.2372
     23  O6        31.0610  148.8410  220.0940 O.2   700  GDP700     -0.2069
     24  N1        30.0210  150.7770  220.6720 N.2   700  GDP700     -0.2485
     25  C2        30.0330  152.0990  221.0810 C.1   700  GDP700      0.2531
     26  N2        28.8540  152.7070  221.2300 N.pl3 700  GDP700     -0.0226
     27  N3        31.1640  152.7770  221.3240 N.2   700  GDP700     -0.3074
     28  C4        32.2910  152.0240  221.1180 C.2   700  GDP700      0.2300
@<TRIPOS>BOND
     1     2     1    2
     2     3     1    1
     3     4     1    1
     4     1     5    1
     5     5     6    1
     6    23    22    2
     7    10     9    1
     8    10    11    1
     9     9     6    1
    10    22    24    2
    11    22    21    1
    12    20    21    2
    13    20    19    1
    14    12    11    1
    15    12    17    1
    16    24    25    2
    17    21    28    1
    18    19    18    1
    19     6     7    2
    20     6     8    1
    21    11    13    1
    22    25    26    1
    23    25    27    2
    24    28    18    1
    25    28    27    2
    26    18    17    1
    27    17    15    1
    28    13    15    1
    29    13    14    1
    30    15    16    1
