@<TRIPOS>MOLECULE
1kv9_HEM_A_1.pdb
 43 50 0 0 0
SMALL
GASTEIGER

@<TRIPOS>ATOM
      1  CHA        4.4420    7.8290   27.2940 C.2   901  HEM901      0.0000
      2  CHB        7.3320    4.4080   29.0860 C.2   901  HEM901      0.0000
      3  CHC        5.9190    1.3960   25.5980 C.2   901  HEM901      0.0000
      4  CHD        3.0710    4.8100   23.7850 C.2   901  HEM901      0.0000
      5  C1A        5.3500    7.1790   28.1040 C.2   901  HEM901      0.0000
      6  C2A        6.0440    7.7460   29.2590 C.2   901  HEM901      0.0000
      7  C3A        6.8410    6.7920   29.7620 C.2   901  HEM901      0.0000
      8  C4A        6.6840    5.6060   28.9390 C.2   901  HEM901      0.0000
      9  CMA        7.7850    6.8870   30.9740 C.3   901  HEM901      0.0000
     10  CAA        5.8730    9.1960   29.7420 C.3   901  HEM901      0.0000
     11  CBA        6.8320   10.0440   28.8620 C.3   901  HEM901      0.0000
     12  CGA        7.0160   11.5140   29.1920 C.2   901  HEM901      0.0000
     13  O1A        5.9480   12.2110   29.1900 O.co2 901  HEM901      0.0000
     14  O2A        8.1600   11.9320   29.4000 O.co2 901  HEM901      0.0000
     15  C1B        7.2050    3.2980   28.3000 C.ar  901  HEM901      0.0000
     16  C2B        7.9350    2.0600   28.4950 C.ar  901  HEM901      0.0000
     17  C3B        7.5320    1.2150   27.5130 C.ar  901  HEM901      0.0000
     18  C4B        6.5640    1.9040   26.7090 C.ar  901  HEM901      0.0000
     19  CMB        8.9650    1.8050   29.6070 C.3   901  HEM901      0.0000
     20  CAB        7.9810   -0.2190   27.2350 C.3   901  HEM901      0.0000
     21  CBB        7.5370   -1.2380   28.3040 C.3   901  HEM901      0.0000
     22  C1C        5.0220    2.0680   24.8050 C.2   901  HEM901      0.0000
     23  C2C        4.4190    1.4970   23.6010 C.2   901  HEM901      0.0000
     24  C3C        3.6370    2.4440   23.0830 C.2   901  HEM901      0.0000
     25  C4C        3.7250    3.6100   23.9490 C.2   901  HEM901      0.0000
     26  CMC        4.7090    0.0620   23.0710 C.3   901  HEM901      0.0000
     27  CAC        2.8120    2.4040   21.7930 C.3   901  HEM901      0.0000
     28  CBC        1.6490    1.3910   21.7450 C.3   901  HEM901      0.0000
     29  C1D        3.1640    5.9310   24.5770 C.ar  901  HEM901      0.0000
     30  C2D        2.4700    7.1860   24.3630 C.ar  901  HEM901      0.0000
     31  C3D        2.8590    8.0400   25.3430 C.ar  901  HEM901      0.0000
     32  C4D        3.7950    7.3130   26.1820 C.ar  901  HEM901      0.0000
     33  CMD        1.4870    7.4640   23.2030 C.3   901  HEM901      0.0000
     34  CAD        2.4060    9.5070   25.5090 C.3   901  HEM901      0.0000
     35  CBD        1.1230    9.7310   26.3410 C.3   901  HEM901      0.0000
     36  CGD        0.8190   11.2160   26.3840 C.2   901  HEM901      0.0000
     37  O1D       -0.1740   11.6580   25.7900 O.co2 901  HEM901      0.0000
     38  O2D        1.6310   11.9150   27.0220 O.co2 901  HEM901      0.0000
     39  NA         5.7610    5.8810   27.9360 N.2   901  HEM901      0.0000
     40  NB         6.3660    3.1790   27.1900 N.ar  901  HEM901      0.0000
     41  NC         4.5880    3.3580   24.9970 N.2   901  HEM901      0.0000
     42  ND         3.9790    6.0160   25.7130 N.ar  901  HEM901      0.0000
     43 FE          5.1440    4.6090   26.4700 Fe    901  HEM901      0.0000
@<TRIPOS>BOND
     1    28    27    1
     2    27    24    1
     3    26    23    1
     4    24    23    2
     5    24    25    1
     6    33    30    1
     7    23    22    1
     8     4    25    1
     9     4    29    2
    10    25    41    2
    11    30    29   ar
    12    30    31   ar
    13    29    42   ar
    14    22    41    1
    15    22     3    2
    16    41    43    1
    17    31    34    1
    18    31    32   ar
    19    34    35    1
    20     3    18    1
    21    42    32   ar
    22    42    43    1
    23    37    36   ar
    24    32     1    2
    25    35    36    1
    26    36    38   ar
    27    43    40    1
    28    43    39    1
    29    18    40   ar
    30    18    17   ar
    31    40    15   ar
    32    20    17    1
    33    20    21    1
    34     1     5    1
    35    17    16   ar
    36    39     5    2
    37    39     8    1
    38     5     6    1
    39    15    16   ar
    40    15     2    1
    41    16    19    1
    42    11    12    1
    43    11    10    1
    44     8     2    2
    45     8     7    1
    46    13    12   ar
    47    12    14   ar
    48     6    10    1
    49     6     7    2
    50     7     9    1
