@<TRIPOS>MOLECULE
1kv9_PQQ_A_1.pdb
 24 26 0 0 0
SMALL
GASTEIGER

@<TRIPOS>ATOM
      1  N1         2.0980    0.0270    7.9400 N.2   801  PQQ801     -0.3986
      2  C2         3.0030    1.0340    7.6710 C.2   801  PQQ801      0.2104
      3  C2X        2.6800    2.5240    7.7220 C.2   801  PQQ801      0.4168
      4  O2A        1.4960    2.8170    7.9600 O.co2 801  PQQ801     -0.2377
      5  O2B        3.6080    3.3220    7.4940 O.co2 801  PQQ801     -0.2377
      6  C3         4.2140    0.4410    7.3640 C.2   801  PQQ801      0.0444
      7  C3A        4.0200   -0.9390    7.4680 C.2   801  PQQ801      0.0711
      8  C1A        2.6820   -1.1620    7.8350 C.2   801  PQQ801      0.1232
      9  C4         5.0310   -2.0280    7.2510 C.2   801  PQQ801      0.2387
     10  O4         6.1780   -1.9000    6.9340 O.2   801  PQQ801     -0.2830
     11  C5         4.4690   -3.4910    7.5010 C.2   801  PQQ801      0.2601
     12  O5         5.2150   -4.4820    7.3600 O.2   801  PQQ801     -0.2807
     13  C6A        3.0040   -3.6390    7.9100 C.2   801  PQQ801      0.1617
     14  N6         2.7010   -4.9340    8.0920 N.2   801  PQQ801     -0.3954
     15  C7         1.4450   -5.2770    8.4640 C.2   801  PQQ801      0.2103
     16  C7X        1.2740   -6.7370    8.7800 C.2   801  PQQ801      0.4168
     17  O7A        2.3810   -7.4350    8.7430 O.co2 801  PQQ801     -0.2377
     18  O7B        0.1300   -7.1380    9.0630 O.co2 801  PQQ801     -0.2377
     19  C8         0.4360   -4.3360    8.6420 C.2   801  PQQ801      0.0420
     20  C9         0.6930   -2.9240    8.4590 C.2   801  PQQ801      0.0734
     21  C9X       -0.4900   -1.9540    8.6680 C.2   801  PQQ801      0.3847
     22  O9A       -0.2810   -0.7420    8.5990 O.co2 801  PQQ801     -0.2409
     23  O9B       -1.6180   -2.4590    8.8520 O.co2 801  PQQ801     -0.2409
     24  C9A        2.0630   -2.5430    8.0820 C.3   801  PQQ801      0.1366
@<TRIPOS>BOND
     1    10     9    2
     2     9     7    1
     3     9    11    1
     4    12    11    2
     5     6     7    2
     6     6     2    1
     7     7     8    1
     8     5     3   ar
     9    11    13    1
    10     2     3    1
    11     2     1    2
    12     3     4   ar
    13     8     1    2
    14     8    24    1
    15    13    24    1
    16    13    14    2
    17    24    20    1
    18    14    15    2
    19    20    19    2
    20    20    21    1
    21    15    19    1
    22    15    16    1
    23    22    21   ar
    24    21    23   ar
    25    17    16   ar
    26    16    18   ar
