@<TRIPOS>MOLECULE
1kvk_ATP_A_1.pdb
 31 33 0 0 0
SMALL
GASTEIGER

@<TRIPOS>ATOM
      1  PG        42.2130   34.0920   11.8750 P.3   535  ATP535      0.5373
      2  O1G       40.7600   33.7140   11.7850 O.3   535  ATP535     -0.1143
      3  O2G       42.6740   35.6330   11.5770 O.3   535  ATP535     -0.1143
      4  O3G       42.9520   33.3080   10.8920 O.2   535  ATP535     -0.2221
      5  PB        42.4320   31.9870   13.6640 P.3   535  ATP535      0.2277
      6  O1B       43.4540   31.0420   12.9480 O.2   535  ATP535     -0.5168
      7  O2B       42.3160   32.0080   15.1440 O.3   535  ATP535     -0.4368
      8  O3B       42.8060   33.3210   13.1430 O.3   535  ATP535     -0.2258
      9  PA        39.8610   31.0100   13.6740 P.3   535  ATP535      0.2189
     10  O1A       39.7260   31.7810   15.0710 O.3   535  ATP535     -0.4371
     11  O2A       38.5850   31.3360   12.6900 O.2   535  ATP535     -0.5170
     12  O3A       41.1500   31.4380   12.9130 O.3   535  ATP535     -0.2700
     13  O5'       40.0010   29.4680   13.8780 O.3   535  ATP535     -0.3112
     14  C5'       41.0600   29.0760   14.8000 C.3   535  ATP535      0.1813
     15  C4'       41.0370   27.6250   14.7830 C.3   535  ATP535      0.1821
     16  O4'       42.4250   27.0870   14.7460 O.3   535  ATP535     -0.3135
     17  C3'       40.2790   27.0230   15.9840 C.3   535  ATP535      0.2184
     18  O3'       38.9830   26.3250   15.4080 O.3   535  ATP535     -0.2174
     19  C2'       41.3630   26.0820   16.6460 C.3   535  ATP535      0.2570
     20  O2'       40.9060   24.6920   16.6250 O.3   535  ATP535     -0.2130
     21  C1'       42.7120   26.1800   15.7850 C.3   535  ATP535      0.3186
     22  N9        43.8860   26.6030   16.6570 N.pl3 535  ATP535     -0.1439
     23  C8        44.5140   27.9580   16.9430 C.3   535  ATP535      0.3377
     24  N7        45.5970   27.8830   17.8240 N.2   535  ATP535     -0.2095
     25  C5        45.6890   26.5280   18.1160 C.2   535  ATP535      0.2526
     26  C6        46.6010   25.6930   18.9910 C.2   535  ATP535      0.4393
     27  N6        47.6400   26.2140   19.7450 N.pl3 535  ATP535      0.2180
     28  N1        46.3750   24.2450   19.0450 N.2   535  ATP535      0.0021
     29  C2        45.2780   23.5630   18.2770 C.3   535  ATP535      0.5254
     30  N3        44.4160   24.2460   17.4720 N.2   535  ATP535     -0.0055
     31  C4        44.6360   25.7160   17.4050 C.2   535  ATP535      0.3518
@<TRIPOS>BOND
     1     4     1    2
     2     3     1    1
     3     2     1    1
     4     1     8    1
     5    11     9    2
     6    12     5    1
     7    12     9    1
     8     6     5    2
     9     8     5    1
    10     5     7    1
    11     9    13    1
    12     9    10    1
    13    13    14    1
    14    16    15    1
    15    16    21    1
    16    15    14    1
    17    15    17    1
    18    18    17    1
    19    21    19    1
    20    21    22    1
    21    17    19    1
    22    20    19    1
    23    22    23    1
    24    22    31    1
    25    23    24    1
    26    31    30    2
    27    31    25    1
    28    30    29    1
    29    24    25    2
    30    25    26    1
    31    29    28    1
    32    26    28    2
    33    26    27    1
