@<TRIPOS>MOLECULE
1kvl_THN_B_1.pdb
 23 24 0 0 0
SMALL
GASTEIGER

@<TRIPOS>ATOM
      1  S1        79.3940    7.0590   27.6060 S.3   372  THN372     -0.1144
      2  C2        80.9990    7.5240   26.7440 C.3   372  THN372      0.0656
      3  C3        81.9870    8.2250   27.7220 C.3   372  THN372      0.0574
      4  C3'       82.8910    9.1520   27.2260 C.3   372  THN372      0.0074
      5  C4        81.9580    7.8660   29.2540 C.2   372  THN372      0.1345
      6  C4'       82.8530    8.5770   30.3130 C.2   372  THN372      0.4007
      7  O4A       83.9560    8.0560   30.6100 O.co2 372  THN372     -0.2392
      8  O4B       82.4530    9.6590   30.8300 O.co2 372  THN372     -0.2392
      9  N5        81.0710    6.8950   29.7640 N.2   372  THN372     -0.2567
     10  C6        80.1130    6.0750   28.9650 C.3   372  THN372      0.1812
     11  C7        79.0490    5.5390   29.9610 C.3   372  THN372      0.2300
     12  C8        78.1440    4.5370   29.2290 C.2   372  THN372      0.3871
     13  O9A       78.5880    3.4450   28.8720 O.co2 372  THN372     -0.2436
     14  O9B       76.9600    4.8200   29.0330 O.co2 372  THN372     -0.2436
     15  N10       79.6700    4.7910   31.0350 N.am  372  THN372     -0.1923
     16  C11       79.7730    5.2660   32.2660 C.2   372  THN372      0.2469
     17  O12       79.3420    6.3610   32.5970 O.2   372  THN372     -0.2729
     18  C13       80.5190    4.3990   33.2450 C.3   372  THN372      0.1196
     19  C14       81.9720    4.6990   33.4680 C.ar  372  THN372      0.0165
     20  C15       82.8300    5.2940   32.5300 C.ar  372  THN372      0.0032
     21  C16       84.1130    5.3900   33.2180 C.ar  372  THN372      0.0072
     22  C17       84.1720    4.9300   34.4250 C.ar  372  THN372      0.0351
     23  S19       82.6750    4.3230   34.8850 S.2   372  THN372     -0.0903
@<TRIPOS>BOND
     1     2     1    1
     2     2     3    1
     3     4     3    1
     4     1    10    1
     5     3     5    1
     6    13    12   ar
     7    10     9    1
     8    10    11    1
     9    14    12   ar
    10    12    11    1
    11     5     9    2
    12     5     6    1
    13    11    15    1
    14     6     7   ar
    15     6     8   ar
    16    15    16   am
    17    16    17    2
    18    16    18    1
    19    20    21   ar
    20    20    19   ar
    21    21    22   ar
    22    18    19    1
    23    19    23   ar
    24    22    23   ar
