@<TRIPOS>MOLECULE
1kvl_CLS_A_1.pdb
 26 28 0 0 0
SMALL
GASTEIGER

@<TRIPOS>ATOM
      1  S1        25.0920    8.5060   15.8600 S.3   371  CLS371     -0.1140
      2  C2        25.5930    9.4560   17.3100 C.3   371  CLS371      0.0862
      3  C3        25.7630    8.5110   18.5390 C.2   371  CLS371      0.0301
      4  C3'       25.4080    9.2180   19.8600 C.3   371  CLS371      0.2331
      5  O20       25.5340   10.6720   19.6910 O.3   371  CLS371     -0.4438
      6  C21       26.8310   11.2090   19.8600 C.2   371  CLS371      0.3179
      7  O22       27.3860   11.0720   20.8900 O.2   371  CLS371     -0.2501
      8  C23       27.2890   11.9150   18.5920 C.3   371  CLS371      0.1212
      9  C4        26.1910    7.2260   18.4740 C.2   371  CLS371      0.1314
     10  C4'       26.4080    6.2890   19.6840 C.2   371  CLS371      0.4007
     11  O4A       27.5680    6.0920   20.1240 O.co2 371  CLS371     -0.2392
     12  O4B       25.4170    5.7110   20.1550 O.co2 371  CLS371     -0.2392
     13  N5        26.5520    6.5700   17.2580 N.am  371  CLS371     -0.2420
     14  C6        26.5050    7.3730   15.9360 C.3   371  CLS371      0.1570
     15  C7        26.1860    5.9720   15.2400 C.3   371  CLS371      0.2002
     16  C8        26.2520    5.3930   16.6540 C.2   371  CLS371      0.2526
     17  O9        26.0530    4.2810   17.0690 O.2   371  CLS371     -0.2726
     18  N10       24.9420    5.8500   14.7180 N.am  371  CLS371     -0.1948
     19  C11       24.6620    6.2190   13.4670 C.2   371  CLS371      0.2468
     20  O12       25.5510    6.6850   12.7270 O.2   371  CLS371     -0.2729
     21  C13       23.2670    6.0910   13.1440 C.3   371  CLS371      0.1196
     22  C14       22.9900    6.0020   11.6150 C.ar  371  CLS371      0.0165
     23  C15       23.6450    6.7600   10.5640 C.ar  371  CLS371      0.0032
     24  C16       22.9280    6.4010    9.3440 C.ar  371  CLS371      0.0072
     25  C17       22.0000    5.5240    9.4660 C.ar  371  CLS371      0.0351
     26  S19       21.7770    4.9630   11.0720 S.2   371  CLS371     -0.0903
@<TRIPOS>BOND
     1    24    25   ar
     2    24    23   ar
     3    25    26   ar
     4    23    22   ar
     5    26    22   ar
     6    22    21    1
     7    20    19    2
     8    21    19    1
     9    19    18   am
    10    18    15    1
    11    15    14    1
    12    15    16    1
    13     1    14    1
    14     1     2    1
    15    14    13    1
    16    16    17    2
    17    16    13   am
    18    13     9    1
    19     2     3    1
    20     9     3    2
    21     9    10    1
    22     3     4    1
    23     8     6    1
    24    10    11   ar
    25    10    12   ar
    26     5     6    1
    27     5     4    1
    28     6     7    2
