@<TRIPOS>MOLECULE
1kvl_KCP_A_1.pdb
 23 24 0 0 0
SMALL
GASTEIGER

@<TRIPOS>ATOM
      1  S1        37.6980    6.2940   -0.3570 S.3   380  KCP380     -0.1144
      2  C2        39.3970    6.5400    0.4320 C.3   380  KCP380      0.0656
      3  C3        40.5480    6.7130   -0.6330 C.3   380  KCP380      0.0574
      4  C3'       41.8040    7.1200   -0.2120 C.3   380  KCP380      0.0074
      5  C4        40.3090    6.3130   -2.1410 C.2   380  KCP380      0.1345
      6  C4'       41.3330    6.5090   -3.2630 C.2   380  KCP380      0.4007
      7  O4A       40.9080    6.5920   -4.4370 O.co2 380  KCP380     -0.2392
      8  O4B       42.5590    6.6120   -2.9850 O.co2 380  KCP380     -0.2392
      9  N5        39.1260    5.6520   -2.4930 N.2   380  KCP380     -0.2567
     10  C6        38.2650    5.0110   -1.5170 C.3   380  KCP380      0.1812
     11  C7        37.2380    4.1380   -2.2570 C.3   380  KCP380      0.2300
     12  C8        37.8820    2.7240   -2.2810 C.2   380  KCP380      0.3871
     13  O9A       39.0440    2.5600   -1.8830 O.co2 380  KCP380     -0.2436
     14  O9B       37.2510    1.7590   -2.7160 O.co2 380  KCP380     -0.2436
     15  N10       35.8880    4.0360   -1.6780 N.am  380  KCP380     -0.1923
     16  C11       34.8250    3.6880   -2.4460 C.2   380  KCP380      0.2469
     17  O12       34.9200    3.4420   -3.6820 O.2   380  KCP380     -0.2729
     18  C13       33.4980    3.5640   -1.7430 C.3   380  KCP380      0.1196
     19  C14       32.7430    4.7930   -1.4090 C.ar  380  KCP380      0.0165
     20  C15       31.4380    5.0180   -1.8130 C.ar  380  KCP380      0.0032
     21  C16       31.0560    6.2300   -1.1150 C.ar  380  KCP380      0.0072
     22  C17       31.9520    6.8190   -0.4200 C.ar  380  KCP380      0.0351
     23  S19       33.3830    5.9730   -0.4780 S.2   380  KCP380     -0.0903
@<TRIPOS>BOND
     1     7     6   ar
     2    17    16    2
     3     6     8   ar
     4     6     5    1
     5    14    12   ar
     6     9     5    2
     7     9    10    1
     8    16    18    1
     9    16    15   am
    10    12    11    1
    11    12    13   ar
    12    11    15    1
    13    11    10    1
    14     5     3    1
    15    20    19   ar
    16    20    21   ar
    17    18    19    1
    18    10     1    1
    19    19    23   ar
    20    21    22   ar
    21     3     4    1
    22     3     2    1
    23    23    22   ar
    24     1     2    1
