@<TRIPOS>MOLECULE
1kvm_CEO_B_1.pdb
 22 23 0 0 0
SMALL
GASTEIGER

@<TRIPOS>ATOM
      1  S1        79.3230    8.0920   28.9550 S.3   864  CEO864     -0.1145
      2  C2        80.5600    9.0000   27.8980 C.3   864  CEO864      0.0656
      3  C3        81.7920    8.1470   27.5690 C.3   864  CEO864      0.0574
      4  C3'       83.0120    8.7880   27.3900 C.3   864  CEO864      0.0074
      5  C4        81.6560    6.5780   27.4550 C.2   864  CEO864      0.1345
      6  C4'       82.8600    5.6830   27.0040 C.2   864  CEO864      0.4007
      7  O4A       82.6670    4.8250   26.0930 O.co2 864  CEO864     -0.2392
      8  O4B       83.9940    5.8610   27.5220 O.co2 864  CEO864     -0.2392
      9  N5        80.4050    5.8900   27.6920 N.2   864  CEO864     -0.2568
     10  C6        79.0860    6.4920   28.1080 C.3   864  CEO864      0.1777
     11  C7        78.1620    5.5590   28.9970 C.3   864  CEO864      0.1920
     12  C8        77.3550    4.4820   28.2810 C.2   864  CEO864      0.2316
     13  O9        77.8540    4.0140   27.2230 O.2   864  CEO864     -0.2863
     14  N10       78.7970    4.9370   30.1320 N.am  864  CEO864     -0.1959
     15  C11       78.7210    5.4680   31.3330 C.2   864  CEO864      0.2468
     16  O12       78.1480    6.5490   31.5540 O.2   864  CEO864     -0.2729
     17  C13       79.2720    4.6110   32.4470 C.3   864  CEO864      0.1196
     18  C14       80.0880    5.2240   33.5330 C.ar  864  CEO864      0.0165
     19  C15       79.8910    6.5020   34.0730 C.ar  864  CEO864      0.0032
     20  C16       80.9210    6.6260   35.0970 C.ar  864  CEO864      0.0072
     21  C17       81.7100    5.6180   35.2640 C.ar  864  CEO864      0.0351
     22  S19       81.3080    4.3770   34.1960 S.2   864  CEO864     -0.0903
@<TRIPOS>BOND
     1     7     6   ar
     2     6     5    1
     3     6     8   ar
     4    13    12    2
     5     4     3    1
     6     5     3    1
     7     5     9    2
     8     3     2    1
     9     9    10    1
    10     2     1    1
    11    10     1    1
    12    10    11    1
    13    12    11    1
    14    11    14    1
    15    14    15   am
    16    15    16    2
    17    15    17    1
    18    17    18    1
    19    18    19   ar
    20    18    22   ar
    21    19    20   ar
    22    22    21   ar
    23    20    21   ar
