@<TRIPOS>MOLECULE
1kvq_UPG_A_1.pdb
 36 38 0 0 0
SMALL
GASTEIGER

@<TRIPOS>ATOM
      1  N1       -20.7120   67.3080    3.4910 N.am  341  UPG341     -0.1766
      2  C2       -19.7610   68.1890    3.8380 C.1   341  UPG341      0.2845
      3  N3       -18.5360   67.6350    4.0460 N.2   341  UPG341     -0.2452
      4  C4       -18.1830   66.2980    3.9680 C.1   341  UPG341      0.2182
      5  C5       -19.2180   65.4430    3.5720 C.2   341  UPG341      0.1242
      6  C6       -20.4070   65.9590    3.3490 C.2   341  UPG341      0.0929
      7  O2       -19.9610   69.3820    3.9480 O.2   341  UPG341     -0.1918
      8  O4       -17.0490   65.9880    4.2560 O.2   341  UPG341     -0.2085
      9  C1C      -22.1080   67.7970    3.3250 C.3   341  UPG341      0.2401
     10  C2C      -22.6270   67.6200    1.9220 C.3   341  UPG341      0.2319
     11  O2C      -22.3940   68.8350    1.2020 O.3   341  UPG341     -0.2157
     12  C3C      -24.1330   67.5150    2.1090 C.3   341  UPG341      0.2158
     13  C4C      -24.2240   66.7400    3.3950 C.3   341  UPG341      0.1799
     14  O4C      -22.9430   66.9630    4.0760 O.3   341  UPG341     -0.3320
     15  O3C      -24.7560   68.8180    2.1340 O.3   341  UPG341     -0.2175
     16  C5C      -24.4840   65.2820    3.1810 C.3   341  UPG341      0.1813
     17  O5C      -23.4070   64.8390    2.3540 O.3   341  UPG341     -0.3112
     18  PA       -23.1460   63.2920    2.2590 P.3   341  UPG341      0.2189
     19  O1A      -21.9670   63.0270    1.4320 O.2   341  UPG341     -0.5170
     20  O2A      -23.0300   62.5230    3.5250 O.3   341  UPG341     -0.4371
     21  O3A      -24.5970   62.9250    1.6280 O.3   341  UPG341     -0.2703
     22  PB       -25.2590   63.0010    0.2560 P.3   341  UPG341      0.2208
     23  O1B      -26.5180   63.7260    0.4320 O.3   341  UPG341     -0.4371
     24  O2B      -24.4350   63.8060   -0.6860 O.2   341  UPG341     -0.5170
     25  O3B      -25.5120   61.5200   -0.4540 O.3   341  UPG341     -0.2857
     26  C1'      -25.9900   60.3750    0.2720 C.3   341  UPG341      0.2742
     27  C2'      -25.5050   59.0300   -0.2890 C.3   341  UPG341      0.2409
     28  C3'      -26.0850   58.6980   -1.6810 C.3   341  UPG341      0.2198
     29  C4'      -27.6060   58.9660   -1.7510 C.3   341  UPG341      0.2144
     30  C5'      -28.0620   60.2080   -1.0110 C.3   341  UPG341      0.1835
     31  C6'      -29.5880   60.0900   -0.8040 C.3   341  UPG341      0.2142
     32  O2'      -24.0740   58.8850   -0.2320 O.3   341  UPG341     -0.2149
     33  O3'      -25.8470   57.2890   -2.0050 O.3   341  UPG341     -0.2174
     34  O4'      -28.1240   59.2050   -3.0500 O.3   341  UPG341     -0.2176
     35  O5'      -27.4270   60.3220    0.2830 O.3   341  UPG341     -0.3254
     36  O6'      -30.1290   61.3360   -0.3470 O.3   341  UPG341     -0.2176
@<TRIPOS>BOND
     1    34    29    1
     2    33    28    1
     3    29    28    1
     4    29    30    1
     5    28    27    1
     6    30    31    1
     7    30    35    1
     8    31    36    1
     9    24    22    2
    10    25    22    1
    11    25    26    1
    12    27    32    1
    13    27    26    1
    14    22    23    1
    15    22    21    1
    16    26    35    1
    17    11    10    1
    18    19    18    2
    19    21    18    1
    20    10    12    1
    21    10     9    1
    22    12    15    1
    23    12    13    1
    24    18    17    1
    25    18    20    1
    26    17    16    1
    27    16    13    1
    28     9     1    1
    29     9    14    1
    30     6     1    1
    31     6     5    2
    32    13    14    1
    33     1     2   am
    34     5     4    1
    35     2     7    2
    36     2     3    2
    37     4     3    2
    38     4     8    2
