@<TRIPOS>MOLECULE
1kvq_NAD_A_1.pdb
 44 48 0 0 0
SMALL
GASTEIGER

@<TRIPOS>ATOM
      1  PA       -21.9120   48.9930    1.7230 P.3   340  NAD340      0.2189
      2  O1A      -20.7690   49.1700    0.7980 O.2   340  NAD340     -0.5170
      3  O2A      -21.4630   48.9610    3.1740 O.3   340  NAD340     -0.4371
      4  O5B      -22.6790   47.6610    1.3180 O.3   340  NAD340     -0.3112
      5  C5B      -22.5420   47.1830   -0.0170 C.3   340  NAD340      0.1813
      6  C4B      -22.1740   45.7510    0.0780 C.3   340  NAD340      0.1821
      7  O4B      -22.3030   45.1310   -1.2360 O.3   340  NAD340     -0.3135
      8  C3B      -20.7530   45.4820    0.5400 C.3   340  NAD340      0.2184
      9  O3B      -20.7340   44.4510    1.5530 O.3   340  NAD340     -0.2174
     10  C2B      -20.0800   45.0420   -0.7950 C.3   340  NAD340      0.2570
     11  O2B      -19.0210   44.1090   -0.5590 O.3   340  NAD340     -0.2130
     12  C1B      -21.2060   44.3380   -1.5170 C.3   340  NAD340      0.3186
     13  N9A      -21.0710   44.2510   -2.9770 N.pl3 340  NAD340     -0.1439
     14  C8A      -20.7730   45.2530   -3.8440 C.3   340  NAD340      0.3377
     15  N7A      -20.8790   44.9030   -5.1410 N.2   340  NAD340     -0.2095
     16  C5A      -21.2650   43.5880   -5.1000 C.2   340  NAD340      0.2526
     17  C6A      -21.4990   42.6770   -6.1450 C.2   340  NAD340      0.4393
     18  N6A      -21.4210   43.0040   -7.4450 N.pl3 340  NAD340      0.2180
     19  N1A      -21.8300   41.4250   -5.7500 N.2   340  NAD340      0.0021
     20  C2A      -21.8630   41.0990   -4.4200 C.3   340  NAD340      0.5254
     21  N3A      -21.6550   41.8760   -3.4070 N.2   340  NAD340     -0.0055
     22  C4A      -21.3400   43.1350   -3.7890 C.2   340  NAD340      0.3518
     23  O3       -23.0350   50.0380    1.4250 O.3   340  NAD340     -0.2703
     24  PN       -24.3920   50.4600    2.1520 P.3   340  NAD340      0.2189
     25  O1N      -24.1320   51.7730    2.8240 O.2   340  NAD340     -0.5170
     26  O2N      -24.7870   49.3980    3.0980 O.3   340  NAD340     -0.4371
     27  O5D      -25.5620   50.5960    1.0730 O.3   340  NAD340     -0.3112
     28  C5D      -26.2770   49.4170    0.6790 C.3   340  NAD340      0.1813
     29  C4D      -27.0780   49.7620   -0.5270 C.3   340  NAD340      0.1796
     30  O4D      -27.8450   50.9420   -0.1960 O.3   340  NAD340     -0.3354
     31  C3D      -26.3000   50.0990   -1.8020 C.3   340  NAD340      0.2155
     32  O3D      -26.9450   49.6630   -2.9960 O.3   340  NAD340     -0.2176
     33  C2D      -26.3120   51.6270   -1.7210 C.3   340  NAD340      0.2271
     34  O2D      -26.2510   52.1260   -3.0270 O.3   340  NAD340     -0.2161
     35  C1D      -27.6670   51.9000   -1.2040 C.3   340  NAD340      0.2096
     36  N1N      -27.7310   53.2540   -0.6890 N.3   340  NAD340     -0.2482
     37  C2N      -26.8650   53.6760    0.2880 C.3   340  NAD340      0.0834
     38  C3N      -26.7350   55.0690    0.7280 C.3   340  NAD340      0.0959
     39  C7N      -25.8060   55.3380    1.8370 C.2   340  NAD340      0.2616
     40  O7N      -25.6840   56.5700    2.1220 O.2   340  NAD340     -0.2716
     41  N7N      -25.1260   54.3580    2.4980 N.am  340  NAD340     -0.0878
     42  C4N      -27.9360   55.9480    0.4900 C.3   340  NAD340      0.0120
     43  C5N      -28.9410   55.3230   -0.4630 C.3   340  NAD340      0.0179
     44  C6N      -28.7280   54.1780   -1.1230 C.3   340  NAD340      0.0743
@<TRIPOS>BOND
     1    18    17    1
     2    17    19    2
     3    17    16    1
     4    19    20    1
     5    15    16    2
     6    15    14    1
     7    16    22    1
     8    20    21    1
     9    14    13    1
    10    22    21    2
    11    22    13    1
    12    34    33    1
    13    32    31    1
    14    13    12    1
    15    31    33    1
    16    31    29    1
    17    33    35    1
    18    12     7    1
    19    12    10    1
    20     7     6    1
    21    35    36    1
    22    35    30    1
    23    44    36    1
    24    44    43    1
    25    10    11    1
    26    10     8    1
    27    36    37    1
    28    29    30    1
    29    29    28    1
    30    43    42    1
    31     5     6    1
    32     5     4    1
    33     6     8    1
    34    37    38    1
    35    42    38    1
    36     8     9    1
    37    28    27    1
    38    38    39    1
    39     2     1    2
    40    27    24    1
    41     4     1    1
    42    23     1    1
    43    23    24    1
    44     1     3    1
    45    39    40    2
    46    39    41   am
    47    24    25    2
    48    24    26    1
