@<TRIPOS>MOLECULE
1kvr_UDP_A_1.pdb
 25 26 0 0 0
SMALL
GASTEIGER

@<TRIPOS>ATOM
      1  N1        15.8580   15.1320   39.7220 N.am  341  UDP341     -0.1766
      2  C2        15.5810   16.4080   40.1300 C.1   341  UDP341      0.2845
      3  N3        16.6850   17.1670   40.3560 N.2   341  UDP341     -0.2452
      4  C4        18.0200   16.7850   40.1910 C.1   341  UDP341      0.2182
      5  C5        18.2290   15.4320   39.7640 C.2   341  UDP341      0.1242
      6  C6        17.1860   14.6530   39.5380 C.2   341  UDP341      0.0929
      7  O2        14.4640   16.8790   40.2490 O.2   341  UDP341     -0.1918
      8  O4        18.8390   17.6680   40.3930 O.2   341  UDP341     -0.2085
      9  C1'       14.7180   14.2130   39.4900 C.3   341  UDP341      0.2401
     10  C2'       14.6210   13.6600   38.0810 C.3   341  UDP341      0.2319
     11  O2'       13.7750   14.6030   37.4110 O.3   341  UDP341     -0.2157
     12  C3'       13.8490   12.3190   38.2890 C.3   341  UDP341      0.2158
     13  C4'       14.4550   11.8360   39.5350 C.3   341  UDP341      0.1799
     14  O4'       14.8430   13.0540   40.2740 O.3   341  UDP341     -0.3320
     15  O3'       12.4380   12.4290   38.5080 O.3   341  UDP341     -0.2175
     16  C5'       15.6850   11.0100   39.3610 C.3   341  UDP341      0.1813
     17  O5'       16.6010   11.7350   38.4810 O.3   341  UDP341     -0.3111
     18  PA        17.9720   11.0200   38.1630 P.3   341  UDP341      0.2231
     19  O1A       18.7580   11.8730   37.2590 O.2   341  UDP341     -0.5169
     20  O2A       18.7800   10.7190   39.3650 O.3   341  UDP341     -0.4370
     21  O3A       17.7590    9.5330   37.5110 O.3   341  UDP341     -0.2261
     22  PB        16.8500    9.0040   36.3610 P.3   341  UDP341      0.5373
     23  O1B       15.5060    8.6030   36.9040 O.3   341  UDP341     -0.1143
     24  O2B       16.6810   10.1050   35.3890 O.2   341  UDP341     -0.2221
     25  O3B       17.6730    7.6930   35.7710 O.3   341  UDP341     -0.1143
@<TRIPOS>BOND
     1    24    22    2
     2    25    22    1
     3    22    23    1
     4    22    21    1
     5    19    18    2
     6    11    10    1
     7    21    18    1
     8    10    12    1
     9    10     9    1
    10    18    17    1
    11    18    20    1
    12    12    15    1
    13    12    13    1
    14    17    16    1
    15    16    13    1
    16     9     1    1
    17     9    14    1
    18    13    14    1
    19     6     1    1
    20     6     5    2
    21     1     2   am
    22     5     4    1
    23     2     7    2
    24     2     3    2
    25     4     3    2
    26     4     8    2
