@<TRIPOS>MOLECULE
1kvr_NAD_A_1.pdb
 44 48 0 0 0
SMALL
GASTEIGER

@<TRIPOS>ATOM
      1  PA        30.9740    4.9370   37.6620 P.3   340  NAD340      0.2189
      2  O1A       31.4190    6.0860   36.8730 O.2   340  NAD340     -0.5170
      3  O2A       31.2110    5.1860   39.1080 O.3   340  NAD340     -0.4371
      4  O5B       31.7280    3.6170   37.3570 O.3   340  NAD340     -0.3112
      5  C5B       32.1980    3.3810   36.0010 C.3   340  NAD340      0.1813
      6  C4B       33.6780    3.0760   36.0780 C.3   340  NAD340      0.1821
      7  O4B       34.1430    2.7070   34.7370 O.3   340  NAD340     -0.3135
      8  C3B       34.5730    4.2070   36.5940 C.3   340  NAD340      0.2184
      9  O3B       35.4640    3.7700   37.6660 O.3   340  NAD340     -0.2174
     10  C2B       35.3690    4.5980   35.3010 C.3   340  NAD340      0.2570
     11  O2B       36.7360    5.0170   35.6200 O.3   340  NAD340     -0.2130
     12  C1B       35.4130    3.2730   34.5200 C.3   340  NAD340      0.3186
     13  N9A       35.5640    3.4500   33.0560 N.pl3 340  NAD340     -0.1439
     14  C8A       34.8350    4.2840   32.2310 C.3   340  NAD340      0.3377
     15  N7A       35.1210    4.0810   30.9520 N.2   340  NAD340     -0.2095
     16  C5A       36.1130    3.1000   30.9730 C.2   340  NAD340      0.2526
     17  C6A       36.8110    2.4560   29.9560 C.2   340  NAD340      0.4393
     18  N6A       36.7140    2.7080   28.6990 N.pl3 340  NAD340      0.2180
     19  N1A       37.7690    1.5590   30.2900 N.2   340  NAD340      0.0021
     20  C2A       37.9600    1.2940   31.6070 C.3   340  NAD340      0.5254
     21  N3A       37.3750    1.8160   32.6440 N.2   340  NAD340     -0.0055
     22  C4A       36.4360    2.7250   32.2460 C.2   340  NAD340      0.3518
     23  O3        29.4850    4.6440   37.4580 O.3   340  NAD340     -0.2703
     24  PN        28.4800    3.6090   38.1460 P.3   340  NAD340      0.2189
     25  O1N       27.4340    4.4180   38.7660 O.2   340  NAD340     -0.5170
     26  O2N       29.2720    2.7320   39.0620 O.3   340  NAD340     -0.4371
     27  O5D       27.8430    2.7730   36.9490 O.3   340  NAD340     -0.3112
     28  C5D       28.4150    1.4960   36.6070 C.3   340  NAD340      0.1813
     29  C4D       27.6970    0.9860   35.3980 C.3   340  NAD340      0.1799
     30  O4D       26.2760    0.9190   35.6510 O.3   340  NAD340     -0.3327
     31  C3D       27.8800    1.8330   34.1250 C.3   340  NAD340      0.2158
     32  O3D       27.9760    0.9800   33.0000 O.3   340  NAD340     -0.2175
     33  C2D       26.6070    2.6590   34.1400 C.3   340  NAD340      0.2309
     34  O2D       26.2340    3.1530   32.8330 O.3   340  NAD340     -0.2158
     35  C1D       25.6160    1.6470   34.6880 C.3   340  NAD340      0.2263
     36  N1N       24.4300    2.2380   35.2570 N.pl3 340  NAD340     -0.2787
     37  C2N       24.4630    3.1000   36.3170 C.3   340  NAD340      0.1244
     38  C3N       23.2790    3.8190   36.7780 C.2   340  NAD340      0.0544
     39  C7N       23.4700    4.7520   37.9300 C.2   340  NAD340      0.2818
     40  O7N       22.4720    5.3740   38.2570 O.2   340  NAD340     -0.2670
     41  N7N       24.6550    4.9510   38.5880 N.am  340  NAD340     -0.0839
     42  C4N       21.9440    3.3520   36.3300 C.2   340  NAD340      0.0033
     43  C5N       22.0180    2.2630   35.2900 C.2   340  NAD340      0.0157
     44  C6N       23.1760    1.8690   34.7580 C.2   340  NAD340      0.0633
@<TRIPOS>BOND
     1    18    17    1
     2    17    19    2
     3    17    16    1
     4    19    20    1
     5    15    16    2
     6    15    14    1
     7    16    22    1
     8    20    21    1
     9    14    13    1
    10    22    21    2
    11    22    13    1
    12    34    33    1
    13    32    31    1
    14    13    12    1
    15    31    33    1
    16    31    29    1
    17    33    35    1
    18    12     7    1
    19    12    10    1
    20    35    36    1
    21    35    30    1
    22     7     6    1
    23    44    36    1
    24    44    43    2
    25    36    37    1
    26    43    42    1
    27    10    11    1
    28    10     8    1
    29    29    30    1
    30    29    28    1
    31     5     6    1
    32     5     4    1
    33     6     8    1
    34    37    38    1
    35    42    38    2
    36     8     9    1
    37    28    27    1
    38    38    39    1
    39     2     1    2
    40    27    24    1
    41     4     1    1
    42    23     1    1
    43    23    24    1
    44     1     3    1
    45    39    40    2
    46    39    41   am
    47    24    25    2
    48    24    26    1
