@<TRIPOS>MOLECULE
1kvs_NAD_A_1.pdb
 44 48 0 0 0
SMALL
GASTEIGER

@<TRIPOS>ATOM
      1  PA        53.8490   43.8800   16.2260 P.3   340  NAD340      0.2189
      2  O1A       53.0680   42.8430   16.9900 O.3   340  NAD340     -0.4371
      3  O2A       53.6640   43.6050   14.7780 O.2   340  NAD340     -0.5170
      4  O5B       55.3520   43.9460   16.6870 O.3   340  NAD340     -0.3112
      5  C5B       55.6880   43.3110   17.9640 C.3   340  NAD340      0.1813
      6  C4B       56.7160   42.2310   17.6710 C.3   340  NAD340      0.1821
      7  O4B       57.4830   41.9080   18.8310 O.3   340  NAD340     -0.3135
      8  C3B       56.2520   40.8930   17.1600 C.3   340  NAD340      0.2184
      9  O3B       57.1680   40.4140   16.1400 O.3   340  NAD340     -0.2174
     10  C2B       56.2580   40.0510   18.4420 C.3   340  NAD340      0.2570
     11  O2B       56.4820   38.7350   18.0200 O.3   340  NAD340     -0.2130
     12  C1B       57.5130   40.5320   19.1440 C.3   340  NAD340      0.3186
     13  N9A       57.4960   40.4630   20.6190 N.pl3 340  NAD340     -0.1439
     14  C8A       56.4550   40.8370   21.5070 C.3   340  NAD340      0.3377
     15  N7A       56.8530   40.8510   22.8330 N.2   340  NAD340     -0.2095
     16  C5A       58.1550   40.3740   22.7790 C.2   340  NAD340      0.2526
     17  C6A       59.0990   40.2360   23.8100 C.2   340  NAD340      0.4393
     18  N6A       58.8210   40.4670   25.1040 N.pl3 340  NAD340      0.2180
     19  N1A       60.3330   39.8320   23.4120 N.2   340  NAD340      0.0021
     20  C2A       60.6130   39.6570   22.0840 C.3   340  NAD340      0.5254
     21  N3A       59.8290   39.8190   21.0690 N.2   340  NAD340     -0.0055
     22  C4A       58.5870   40.1710   21.4580 C.2   340  NAD340      0.3518
     23  O3        53.4780   45.3540   16.6460 O.3   340  NAD340     -0.2703
     24  PN        53.6890   46.6380   15.6290 P.3   340  NAD340      0.2189
     25  O1N       52.4170   46.9220   14.9300 O.3   340  NAD340     -0.4371
     26  O2N       54.6790   46.2360   14.6280 O.2   340  NAD340     -0.5170
     27  O5D       54.2090   47.4930   16.8680 O.3   340  NAD340     -0.3112
     28  C5D       55.6050   47.6130   17.1370 C.3   340  NAD340      0.1813
     29  C4D       55.7880   48.5360   18.3460 C.3   340  NAD340      0.1796
     30  O4D       55.2770   49.8290   18.0190 O.3   340  NAD340     -0.3354
     31  C3D       55.1100   48.1400   19.6350 C.3   340  NAD340      0.2155
     32  O3D       55.6980   48.5690   20.8530 O.3   340  NAD340     -0.2176
     33  C2D       53.7790   48.8840   19.5720 C.3   340  NAD340      0.2271
     34  O2D       53.4310   49.1810   20.9540 O.3   340  NAD340     -0.2161
     35  C1D       54.2150   50.1270   18.8700 C.3   340  NAD340      0.2096
     36  N1N       53.1270   50.8550   18.2780 N.3   340  NAD340     -0.2482
     37  C2N       52.3830   50.4420   17.1920 C.3   340  NAD340      0.0834
     38  C3N       50.9700   50.9000   17.0930 C.3   340  NAD340      0.0959
     39  C7N       50.2400   50.2720   15.9610 C.2   340  NAD340      0.2616
     40  O7N       49.0610   50.5480   15.7460 O.2   340  NAD340     -0.2716
     41  N7N       50.8080   49.3890   15.1600 N.am  340  NAD340     -0.0878
     42  C4N       50.7500   52.3440   17.4560 C.3   340  NAD340      0.0120
     43  C5N       51.8800   52.8390   18.2940 C.3   340  NAD340      0.0179
     44  C6N       52.7110   52.0230   18.9040 C.3   340  NAD340      0.0743
@<TRIPOS>BOND
     1    26    24    2
     2     3     1    2
     3    25    24    1
     4    41    39   am
     5    24    23    1
     6    24    27    1
     7    40    39    2
     8    39    38    1
     9     9     8    1
    10     1    23    1
    11     1     4    1
    12     1     2    1
    13     4     5    1
    14    27    28    1
    15    38    37    1
    16    38    42    1
    17    28    29    1
    18     8     6    1
    19     8    10    1
    20    37    36    1
    21    42    43    1
    22     6     5    1
    23     6     7    1
    24    30    29    1
    25    30    35    1
    26    11    10    1
    27    36    35    1
    28    36    44    1
    29    43    44    1
    30    29    31    1
    31    10    12    1
    32     7    12    1
    33    35    33    1
    34    12    13    1
    35    33    31    1
    36    33    34    1
    37    31    32    1
    38    13    22    1
    39    13    14    1
    40    21    22    2
    41    21    20    1
    42    22    16    1
    43    14    15    1
    44    20    19    1
    45    16    15    2
    46    16    17    1
    47    19    17    2
    48    17    18    1
