@<TRIPOS>MOLECULE
1kvs_UPG_A_1.pdb
 36 38 0 0 0
SMALL
GASTEIGER

@<TRIPOS>ATOM
      1  N1        37.3960   51.9020   14.3470 N.am  341  UPG341     -0.1766
      2  C2        36.1460   51.4930   13.9080 C.1   341  UPG341      0.2845
      3  N3        36.0090   50.1530   13.6940 N.2   341  UPG341     -0.2452
      4  C4        36.9610   49.1800   13.7880 C.1   341  UPG341      0.2182
      5  C5        38.1930   49.6590   14.2650 C.2   341  UPG341      0.1242
      6  C6        38.3940   50.9600   14.4640 C.2   341  UPG341      0.0929
      7  O2        35.1830   52.1950   13.7470 O.2   341  UPG341     -0.1918
      8  O4        36.6760   48.0560   13.4570 O.2   341  UPG341     -0.2085
      9  C1C       37.6760   53.3160   14.6210 C.3   341  UPG341      0.2401
     10  C2C       38.0310   53.6420   16.0270 C.3   341  UPG341      0.2319
     11  O2C       36.8310   53.9670   16.7720 O.3   341  UPG341     -0.2157
     12  C3C       39.0000   54.8720   15.8930 C.3   341  UPG341      0.2158
     13  C4C       39.6670   54.6240   14.5440 C.3   341  UPG341      0.1799
     14  O4C       38.8130   53.6610   13.8760 O.3   341  UPG341     -0.3320
     15  O3C       38.3290   56.1770   16.0790 O.3   341  UPG341     -0.2175
     16  C5C       41.0210   53.9680   14.5820 C.3   341  UPG341      0.1813
     17  O5C       40.8740   52.9640   15.6250 O.3   341  UPG341     -0.3112
     18  PA        41.9890   51.8910   15.6310 P.3   341  UPG341      0.2189
     19  O1A       41.7570   50.6860   16.4820 O.3   341  UPG341     -0.4371
     20  O2A       42.6760   51.5640   14.3740 O.2   341  UPG341     -0.5170
     21  O3A       43.2010   52.8540   16.3380 O.3   341  UPG341     -0.2703
     22  PB        43.3850   53.4060   17.7060 P.3   341  UPG341      0.2208
     23  O1B       43.2800   54.7960   17.0880 O.2   341  UPG341     -0.5170
     24  O2B       42.2480   53.4820   18.6090 O.3   341  UPG341     -0.4371
     25  O3B       44.8780   52.9400   18.4350 O.3   341  UPG341     -0.2857
     26  C1'       46.0700   52.4840   17.6780 C.3   341  UPG341      0.2742
     27  C2'       47.0510   51.4140   18.2730 C.3   341  UPG341      0.2409
     28  C3'       47.6160   51.7000   19.6640 C.3   341  UPG341      0.2198
     29  C4'       47.9400   53.1910   19.8410 C.3   341  UPG341      0.2144
     30  C5'       47.0840   54.0930   18.9610 C.3   341  UPG341      0.1835
     31  C6'       47.6800   55.4960   18.8220 C.3   341  UPG341      0.2142
     32  O2'       46.6750   50.0750   18.0880 O.3   341  UPG341     -0.2149
     33  O3'       48.8560   51.0130   19.8450 O.3   341  UPG341     -0.2174
     34  O4'       47.6380   53.6110   21.1700 O.3   341  UPG341     -0.2176
     35  O5'       46.8980   53.6050   17.6330 O.3   341  UPG341     -0.3254
     36  O6'       46.8100   56.4210   18.1180 O.3   341  UPG341     -0.2176
@<TRIPOS>BOND
     1     8     4    2
     2     3     4    2
     3     3     2    2
     4     7     2    2
     5     4     5    1
     6    14    13    1
     7    14     9    1
     8     2     1   am
     9     5     6    2
    10     1     6    1
    11     1     9    1
    12    20    18    2
    13    13    16    1
    14    13    12    1
    15    16    17    1
    16     9    10    1
    17    17    18    1
    18    18    21    1
    19    18    19    1
    20    12    10    1
    21    12    15    1
    22    10    11    1
    23    21    22    1
    24    23    22    2
    25    35    26    1
    26    35    30    1
    27    26    27    1
    28    26    25    1
    29    22    25    1
    30    22    24    1
    31    32    27    1
    32    36    31    1
    33    27    28    1
    34    31    30    1
    35    30    29    1
    36    28    29    1
    37    28    33    1
    38    29    34    1
