@<TRIPOS>MOLECULE
1kvt_UPG_A_1.pdb
 36 38 0 0 0
SMALL
GASTEIGER

@<TRIPOS>ATOM
      1  N1        67.8960   15.2380   50.7760 N.am  341  UPG341     -0.1766
      2  C2        68.1740   16.5510   50.4090 C.1   341  UPG341      0.2845
      3  N3        67.1010   17.3670   50.2000 N.2   341  UPG341     -0.2452
      4  C4        65.7810   16.9600   50.3230 C.1   341  UPG341      0.2182
      5  C5        65.5710   15.5960   50.6990 C.2   341  UPG341      0.1242
      6  C6        66.5810   14.7920   50.9020 C.2   341  UPG341      0.0929
      7  O2        69.2800   17.0130   50.2460 O.2   341  UPG341     -0.1918
      8  O4        64.9240   17.7860   50.1340 O.2   341  UPG341     -0.2085
      9  C1C       69.0100   14.2640   50.9910 C.3   341  UPG341      0.2401
     10  C2C       69.1370   13.7650   52.4030 C.3   341  UPG341      0.2319
     11  O2C       70.1480   14.6030   52.9510 O.3   341  UPG341     -0.2157
     12  C3C       69.8050   12.4000   52.2690 C.3   341  UPG341      0.2158
     13  C4C       69.1850   11.8890   51.0040 C.3   341  UPG341      0.1799
     14  O4C       68.8150   13.1000   50.2550 O.3   341  UPG341     -0.3320
     15  O3C       71.2240   12.5610   52.0960 O.3   341  UPG341     -0.2175
     16  C5C       68.0170   11.0040   51.2360 C.3   341  UPG341      0.1813
     17  O5C       67.0720   11.8360   51.9900 O.3   341  UPG341     -0.3112
     18  PA        65.7050   11.0900   52.3530 P.3   341  UPG341      0.2189
     19  O1A       64.9960   11.8980   53.3990 O.3   341  UPG341     -0.4371
     20  O2A       64.8960   10.5950   51.2050 O.2   341  UPG341     -0.5170
     21  O3A       66.4280    9.7490   52.8600 O.3   341  UPG341     -0.2703
     22  PB        66.7840    9.2430   54.2670 P.3   341  UPG341      0.2208
     23  O1B       68.0630    8.4810   54.2970 O.2   341  UPG341     -0.5170
     24  O2B       67.1160   10.4300   55.0380 O.3   341  UPG341     -0.4371
     25  O3B       65.4380    8.3360   54.9090 O.3   341  UPG341     -0.2857
     26  C1'       64.6400    7.2790   54.2910 C.3   341  UPG341      0.2742
     27  C2'       63.2070    7.0500   54.8280 C.3   341  UPG341      0.2409
     28  C3'       63.0900    6.4050   56.2100 C.3   341  UPG341      0.2198
     29  C4'       64.0660    5.2460   56.4280 C.3   341  UPG341      0.2144
     30  C5'       65.3970    5.4400   55.6790 C.3   341  UPG341      0.1835
     31  C6'       66.2090    4.1610   55.5440 C.3   341  UPG341      0.2142
     32  O2'       62.3430    8.1820   54.7170 O.3   341  UPG341     -0.2149
     33  O3'       61.7560    5.9240   56.4390 O.3   341  UPG341     -0.2174
     34  O4'       64.3730    5.1600   57.8200 O.3   341  UPG341     -0.2176
     35  O5'       65.2780    5.9940   54.3530 O.3   341  UPG341     -0.3254
     36  O6'       67.3370    4.4220   54.6460 O.3   341  UPG341     -0.2176
@<TRIPOS>BOND
     1     8     4    2
     2     3     4    2
     3     3     2    2
     4     7     2    2
     5    14     9    1
     6    14    13    1
     7     4     5    1
     8     2     1   am
     9     5     6    2
    10     1     6    1
    11     1     9    1
    12     9    10    1
    13    13    16    1
    14    13    12    1
    15    20    18    2
    16    16    17    1
    17    17    18    1
    18    15    12    1
    19    12    10    1
    20    18    21    1
    21    18    19    1
    22    10    11    1
    23    21    22    1
    24    22    23    2
    25    22    25    1
    26    22    24    1
    27    26    35    1
    28    26    27    1
    29    26    25    1
    30    35    30    1
    31    36    31    1
    32    32    27    1
    33    27    28    1
    34    31    30    1
    35    30    29    1
    36    28    29    1
    37    28    33    1
    38    29    34    1
