@<TRIPOS>MOLECULE
1kvt_NAD_A_1.pdb
 44 48 0 0 0
SMALL
GASTEIGER

@<TRIPOS>ATOM
      1  PA        52.6080    4.9250   52.9810 P.3   340  NAD340      0.2189
      2  O1A       52.1490    6.0310   53.7980 O.3   340  NAD340     -0.4371
      3  O2A       52.4120    5.0090   51.5300 O.2   340  NAD340     -0.5170
      4  O5B       52.0080    3.5060   53.3930 O.3   340  NAD340     -0.3112
      5  C5B       51.3330    3.4500   54.6670 C.3   340  NAD340      0.1813
      6  C4B       49.8690    3.1370   54.4730 C.3   340  NAD340      0.1821
      7  O4B       49.2850    2.5600   55.6680 O.3   340  NAD340     -0.3135
      8  C3B       48.9440    4.2750   54.0170 C.3   340  NAD340      0.2184
      9  O3B       48.1010    3.7740   52.9340 O.3   340  NAD340     -0.2174
     10  C2B       48.1180    4.5920   55.3210 C.3   340  NAD340      0.2570
     11  O2B       46.7860    4.9890   54.9970 O.3   340  NAD340     -0.2130
     12  C1B       48.0600    3.2390   56.0100 C.3   340  NAD340      0.3186
     13  N9A       47.9360    3.3730   57.4750 N.pl3 340  NAD340     -0.1439
     14  C8A       48.6140    4.1910   58.3150 C.3   340  NAD340      0.3377
     15  N7A       48.3410    4.0210   59.6250 N.2   340  NAD340     -0.2095
     16  C5A       47.3700    3.0620   59.6220 C.2   340  NAD340      0.2526
     17  C6A       46.6440    2.4460   60.6740 C.2   340  NAD340      0.4393
     18  N6A       46.7060    2.6610   61.9610 N.pl3 340  NAD340      0.2180
     19  N1A       45.7030    1.5240   60.3500 N.2   340  NAD340      0.0021
     20  C2A       45.5780    1.2280   58.9990 C.3   340  NAD340      0.5254
     21  N3A       46.2120    1.7140   57.9580 N.2   340  NAD340     -0.0055
     22  C4A       47.1150    2.6390   58.3150 C.2   340  NAD340      0.3518
     23  O3        54.1000    4.6740   53.2360 O.3   340  NAD340     -0.2703
     24  PN        55.0560    3.6240   52.5120 P.3   340  NAD340      0.2189
     25  O1N       56.1380    4.3520   51.8220 O.3   340  NAD340     -0.4371
     26  O2N       54.2080    2.7930   51.6160 O.2   340  NAD340     -0.5170
     27  O5D       55.5880    2.8170   53.7560 O.3   340  NAD340     -0.3112
     28  C5D       55.1120    1.4670   54.0100 C.3   340  NAD340      0.1813
     29  C4D       55.8020    0.9330   55.2270 C.3   340  NAD340      0.1799
     30  O4D       57.2680    0.9240   55.0010 O.3   340  NAD340     -0.3327
     31  C3D       55.5720    1.7850   56.4710 C.3   340  NAD340      0.2158
     32  O3D       55.3510    0.9930   57.6310 O.3   340  NAD340     -0.2175
     33  C2D       56.8680    2.6090   56.4800 C.3   340  NAD340      0.2309
     34  O2D       57.2120    3.0100   57.8110 O.3   340  NAD340     -0.2158
     35  C1D       57.8920    1.6350   55.9870 C.3   340  NAD340      0.2263
     36  N1N       59.0810    2.2440   55.4770 N.pl3 340  NAD340     -0.2787
     37  C2N       59.0210    3.1340   54.4000 C.3   340  NAD340      0.1244
     38  C3N       60.2280    3.8460   53.9310 C.2   340  NAD340      0.0544
     39  C7N       60.0100    4.7680   52.8270 C.2   340  NAD340      0.2818
     40  O7N       61.0300    5.3760   52.4590 O.2   340  NAD340     -0.2670
     41  N7N       58.7880    4.9100   52.2780 N.am  340  NAD340     -0.0839
     42  C4N       61.6140    3.4370   54.3930 C.2   340  NAD340      0.0033
     43  C5N       61.5270    2.3300   55.4340 C.2   340  NAD340      0.0157
     44  C6N       60.3610    1.9210   55.9950 C.2   340  NAD340      0.0633
@<TRIPOS>BOND
     1     3     1    2
     2    26    24    2
     3    25    24    1
     4    41    39   am
     5    40    39    2
     6    24    23    1
     7    24    27    1
     8    39    38    1
     9     9     8    1
    10     1    23    1
    11     1     4    1
    12     1     2    1
    13     4     5    1
    14    27    28    1
    15    38    42    2
    16    38    37    1
    17    28    29    1
    18     8     6    1
    19     8    10    1
    20    42    43    1
    21    37    36    1
    22     6     5    1
    23     6     7    1
    24    11    10    1
    25    30    29    1
    26    30    35    1
    27    29    31    1
    28    10    12    1
    29    43    44    2
    30    36    35    1
    31    36    44    1
    32     7    12    1
    33    35    33    1
    34    12    13    1
    35    31    33    1
    36    31    32    1
    37    33    34    1
    38    13    22    1
    39    13    14    1
    40    21    22    2
    41    21    20    1
    42    22    16    1
    43    14    15    1
    44    20    19    1
    45    16    15    2
    46    16    17    1
    47    19    17    2
    48    17    18    1
