@<TRIPOS>MOLECULE
1kvu_UPG_A_1.pdb
 36 38 0 0 0
SMALL
GASTEIGER

@<TRIPOS>ATOM
      1  N1        15.9340   15.2330   39.6000 N.am  341  UPG341     -0.1766
      2  C2        15.6600   16.5340   39.9650 C.1   341  UPG341      0.2845
      3  N3        16.7740   17.3100   40.1410 N.2   341  UPG341     -0.2452
      4  C4        18.1100   16.9000   39.9700 C.1   341  UPG341      0.2182
      5  C5        18.3090   15.5560   39.5650 C.2   341  UPG341      0.1242
      6  C6        17.2580   14.7600   39.4130 C.2   341  UPG341      0.0929
      7  O2        14.5270   16.9580   40.0840 O.2   341  UPG341     -0.1918
      8  O4        18.9870   17.7140   40.1410 O.2   341  UPG341     -0.2085
      9  C1C       14.7590   14.3210   39.3820 C.3   341  UPG341      0.2401
     10  C2C       14.7140   13.8050   37.9380 C.3   341  UPG341      0.2319
     11  O2C       13.8800   14.6900   37.1810 O.3   341  UPG341     -0.2157
     12  C3C       14.0060   12.4170   37.9930 C.3   341  UPG341      0.2158
     13  C4C       14.5920   11.9090   39.3170 C.3   341  UPG341      0.1799
     14  O4C       14.8810   13.1180   40.1220 O.3   341  UPG341     -0.3320
     15  O3C       12.5360   12.5760   38.1390 O.3   341  UPG341     -0.2175
     16  C5C       15.8060   11.0060   39.1800 C.3   341  UPG341      0.1813
     17  O5C       16.7040   11.7710   38.2990 O.3   341  UPG341     -0.3112
     18  PA        18.1160   11.1060   38.1150 P.3   341  UPG341      0.2189
     19  O1A       18.8810   11.8530   37.0800 O.2   341  UPG341     -0.5170
     20  O2A       18.8110   10.7570   39.3450 O.3   341  UPG341     -0.4371
     21  O3A       17.8550    9.6620   37.5400 O.3   341  UPG341     -0.2703
     22  PB        17.2520    9.2210   36.1830 P.3   341  UPG341      0.2208
     23  O1B       15.9290    8.4680   36.3520 O.3   341  UPG341     -0.4371
     24  O2B       17.0260   10.3420   35.1410 O.2   341  UPG341     -0.5170
     25  O3B       18.4260    8.2840   35.5470 O.3   341  UPG341     -0.2857
     26  C1'       19.1670    7.3050   36.2850 C.3   341  UPG341      0.2742
     27  C2'       20.6070    7.2310   35.7220 C.3   341  UPG341      0.2409
     28  C3'       20.5890    6.6560   34.2480 C.3   341  UPG341      0.2198
     29  C4'       19.7450    5.3800   34.1290 C.3   341  UPG341      0.2144
     30  C5'       18.3720    5.5520   34.8020 C.3   341  UPG341      0.1835
     31  C6'       17.5630    4.2370   34.8870 C.3   341  UPG341      0.2142
     32  O2'       21.2810    8.5210   35.7550 O.3   341  UPG341     -0.2149
     33  O3'       21.8870    6.3850   33.6480 O.3   341  UPG341     -0.2174
     34  O4'       19.5180    5.0790   32.7440 O.3   341  UPG341     -0.2176
     35  O5'       18.5240    5.9900   36.1490 O.3   341  UPG341     -0.3254
     36  O6'       16.2450    4.4950   35.4810 O.3   341  UPG341     -0.2176
@<TRIPOS>BOND
     1    34    29    1
     2    33    28    1
     3    29    28    1
     4    29    30    1
     5    28    27    1
     6    30    31    1
     7    30    35    1
     8    31    36    1
     9    24    22    2
    10    25    22    1
    11    25    26    1
    12    27    32    1
    13    27    26    1
    14    35    26    1
    15    22    23    1
    16    22    21    1
    17    19    18    2
    18    11    10    1
    19    21    18    1
    20    10    12    1
    21    10     9    1
    22    12    15    1
    23    12    13    1
    24    18    17    1
    25    18    20    1
    26    17    16    1
    27    16    13    1
    28    13    14    1
    29     9     1    1
    30     9    14    1
    31     6     5    2
    32     6     1    1
    33     5     4    1
    34     1     2   am
    35     2     7    2
    36     2     3    2
    37     4     8    2
    38     4     3    2
