@<TRIPOS>MOLECULE
1kvu_NAD_A_1.pdb
 44 48 0 0 0
SMALL
GASTEIGER

@<TRIPOS>ATOM
      1  PA        31.1370    4.8150   37.5960 P.3   340  NAD340      0.2189
      2  O1A       31.4730    5.8860   36.7220 O.2   340  NAD340     -0.5170
      3  O2A       31.3750    5.0010   39.0450 O.3   340  NAD340     -0.4371
      4  O5B       31.8900    3.5120   37.2540 O.3   340  NAD340     -0.3112
      5  C5B       32.3540    3.3670   35.9050 C.3   340  NAD340      0.1813
      6  C4B       33.8280    2.9920   36.0460 C.3   340  NAD340      0.1821
      7  O4B       34.3650    2.6080   34.7530 O.3   340  NAD340     -0.3135
      8  C3B       34.7560    4.0910   36.5380 C.3   340  NAD340      0.2184
      9  O3B       35.6520    3.5940   37.5700 O.3   340  NAD340     -0.2174
     10  C2B       35.4490    4.4810   35.2290 C.3   340  NAD340      0.2570
     11  O2B       36.7650    5.0130   35.4270 O.3   340  NAD340     -0.2130
     12  C1B       35.6250    3.1520   34.5290 C.3   340  NAD340      0.3186
     13  N9A       35.7340    3.3590   33.0570 N.pl3 340  NAD340     -0.1439
     14  C8A       35.1140    4.2370   32.2480 C.3   340  NAD340      0.3377
     15  N7A       35.3470    4.0280   30.9400 N.2   340  NAD340     -0.2095
     16  C5A       36.2690    2.9870   30.9430 C.2   340  NAD340      0.2526
     17  C6A       37.0090    2.3880   29.9240 C.2   340  NAD340      0.4393
     18  N6A       36.8890    2.6540   28.6240 N.pl3 340  NAD340      0.2180
     19  N1A       37.9310    1.4530   30.2800 N.2   340  NAD340      0.0021
     20  C2A       38.0460    1.1300   31.5970 C.3   340  NAD340      0.5254
     21  N3A       37.4320    1.6620   32.6040 N.2   340  NAD340     -0.0055
     22  C4A       36.5390    2.6020   32.2120 C.2   340  NAD340      0.3518
     23  O3        29.6440    4.4670   37.2900 O.3   340  NAD340     -0.2703
     24  PN        28.6150    3.5080   38.0650 P.3   340  NAD340      0.2189
     25  O1N       27.5440    4.3330   38.7090 O.2   340  NAD340     -0.5170
     26  O2N       29.3670    2.6410   38.9830 O.3   340  NAD340     -0.4371
     27  O5D       28.0640    2.7020   36.7660 O.3   340  NAD340     -0.3112
     28  C5D       28.5000    1.3760   36.5570 C.3   340  NAD340      0.1813
     29  C4D       27.8660    0.8090   35.3180 C.3   340  NAD340      0.1799
     30  O4D       26.4690    0.8770   35.5980 O.3   340  NAD340     -0.3327
     31  C3D       28.0930    1.7340   34.1040 C.3   340  NAD340      0.2158
     32  O3D       28.1130    1.0170   32.8360 O.3   340  NAD340     -0.2175
     33  C2D       26.7830    2.5720   34.1310 C.3   340  NAD340      0.2309
     34  O2D       26.5130    2.9870   32.7810 O.3   340  NAD340     -0.2158
     35  C1D       25.7870    1.5680   34.5830 C.3   340  NAD340      0.2261
     36  N1N       24.5890    2.1770   35.1200 N.pl3 340  NAD340     -0.2828
     37  C2N       24.6560    3.0380   36.2340 C.3   340  NAD340      0.1025
     38  C3N       23.5050    3.9140   36.5370 C.3   340  NAD340      0.1040
     39  C7N       23.6820    4.8250   37.6780 C.2   340  NAD340      0.2623
     40  O7N       22.7220    5.5600   37.9120 O.2   340  NAD340     -0.2716
     41  N7N       24.7950    4.8800   38.4320 N.am  340  NAD340     -0.0877
     42  C4N       22.1260    3.4920   36.0650 C.3   340  NAD340      0.0383
     43  C5N       22.1610    2.5280   34.8980 C.2   340  NAD340     -0.0098
     44  C6N       23.3240    1.9110   34.4810 C.2   340  NAD340      0.0584
@<TRIPOS>BOND
     1    18    17    1
     2    17    19    2
     3    17    16    1
     4    19    20    1
     5    15    16    2
     6    15    14    1
     7    16    22    1
     8    20    21    1
     9    22    21    2
    10    22    13    1
    11    14    13    1
    12    34    33    1
    13    32    31    1
    14    13    12    1
    15    31    33    1
    16    31    29    1
    17    33    35    1
    18    44    43    2
    19    44    36    1
    20    12     7    1
    21    12    10    1
    22    35    36    1
    23    35    30    1
    24     7     6    1
    25    43    42    1
    26    36    37    1
    27    10    11    1
    28    10     8    1
    29    29    30    1
    30    29    28    1
    31     5     6    1
    32     5     4    1
    33     6     8    1
    34    42    38    1
    35    37    38    1
    36    38    39    1
    37     8     9    1
    38    28    27    1
    39     2     1    2
    40    27    24    1
    41     4     1    1
    42    23     1    1
    43    23    24    1
    44     1     3    1
    45    39    40    2
    46    39    41   am
    47    24    25    2
    48    24    26    1
