@<TRIPOS>MOLECULE
1kw0_TIH_A_1.pdb
 11 11 0 0 0
SMALL
GASTEIGER

@<TRIPOS>ATOM
      1  N          2.6400   22.6420   -1.5630 N.3   430  TIH430     -0.1204
      2  CA         3.2960   22.4040   -0.2410 C.3   430  TIH430      0.1992
      3  C          4.4230   21.3630   -0.3440 C.2   430  TIH430      0.3822
      4  O          4.4090   20.5750   -1.3170 O.co2 430  TIH430     -0.2440
      5  OXT        5.0530   21.1100    0.7040 O.co2 430  TIH430     -0.2440
      6  CB         2.2440   21.9390    0.7660 C.3   430  TIH430      0.0635
      7  CG         1.2370   22.9840    1.2430 C.ar  430  TIH430      0.0093
      8  CD         1.3860   24.3570    1.1800 C.ar  430  TIH430      0.0027
      9  CE1        0.2400   25.0830    1.7310 C.ar  430  TIH430      0.0072
     10  CE2       -0.7810   24.2380    2.2150 C.ar  430  TIH430      0.0351
     11  SD        -0.2350   22.6540    1.9300 S.2   430  TIH430     -0.0907
@<TRIPOS>BOND
     1     1     2    1
     2     4     3   ar
     3     3     2    1
     4     3     5   ar
     5     2     6    1
     6     6     7    1
     7     8     7   ar
     8     8     9   ar
     9     7    11   ar
    10     9    10   ar
    11    11    10   ar
