@<TRIPOS>MOLECULE
1kw0_H4B_A_1.pdb
 17 18 0 0 0
SMALL
GASTEIGER

@<TRIPOS>ATOM
      1  N1        -4.8370   21.7930    8.0010 N.2   429  H4B429     -0.2683
      2  C2        -3.8580   20.9680    8.4830 C.1   429  H4B429      0.2608
      3  N2        -4.0930   19.7480    8.9280 N.pl3 429  H4B429     -0.0220
      4  N3        -2.5630   21.4530    8.4820 N.2   429  H4B429     -0.2474
      5  C4        -2.1730   22.7620    8.0280 C.1   429  H4B429      0.2441
      6  O4        -0.9830   23.0640    8.0750 O.2   429  H4B429     -0.2063
      7  C4A       -3.2620   23.5610    7.5370 C.2   429  H4B429      0.2463
      8  C8A       -4.5880   23.0840    7.5370 C.1   429  H4B429      0.1270
      9  N5        -2.9810   24.9140    7.0430 N.2   429  H4B429     -0.2460
     10  N8        -5.6180   23.8380    7.0670 N.2   429  H4B429     -0.2054
     11  C6        -4.1690   25.8890    7.1640 C.3   429  H4B429      0.1627
     12  C7        -5.4140   25.2270    6.5510 C.3   429  H4B429      0.1643
     13  C9        -3.6450   27.2240    6.5110 C.3   429  H4B429      0.2063
     14  O9        -3.2290   27.0210    5.1550 O.3   429  H4B429     -0.2183
     15  C10       -4.6780   28.4220    6.4860 C.3   429  H4B429      0.1842
     16  C11       -5.1480   28.8270    7.8510 C.3   429  H4B429      0.0383
     17  O10       -5.7800   28.0280    5.6620 O.3   429  H4B429     -0.2204
@<TRIPOS>BOND
     1    14    13    1
     2    17    15    1
     3    15    13    1
     4    15    16    1
     5    13    11    1
     6    12    10    1
     7    12    11    1
     8     9    11    1
     9     9     7    2
    10    10     8    2
    11     7     8    1
    12     7     5    1
    13     8     1    2
    14     1     2    2
    15     5     6    2
    16     5     4    2
    17     4     2    2
    18     2     3    1
