@<TRIPOS>MOLECULE
1kw1_LG6_A_1.pdb
 17 16 0 0 0
SMALL
GASTEIGER

@<TRIPOS>ATOM
      1  C1        60.9090   20.8370   21.9090 C.3   502  LG6502      0.2865
      2  O2A       58.6010   20.3590   22.4420 O.co2 502  LG6502     -0.2427
      3  C2        59.6040   20.0850   21.7160 C.2   502  LG6502      0.3973
      4  O2B       59.5200   19.2120   20.8640 O.co2 502  LG6502     -0.2427
      5  O1        60.6250   22.2170   22.1880 O.3   502  LG6502     -0.2080
      6  C3        61.7230   20.2480   23.0760 C.3   502  LG6502      0.2260
      7  O3        61.5110   18.8260   23.2130 O.3   502  LG6502     -0.2169
      8  C4        63.2160   20.5600   22.8590 C.3   502  LG6502      0.2179
      9  C5        63.9740   20.4800   24.2010 C.3   502  LG6502      0.2147
     10  O4        63.7750   19.6240   21.9220 O.3   502  LG6502     -0.2175
     11  C6        65.4530   20.8440   24.0210 C.3   502  LG6502      0.1892
     12  O5        63.8930   19.1470   24.7300 O.3   502  LG6502     -0.2176
     13  P         65.8630   23.3570   24.2260 P.3   502  LG6502      0.5327
     14  O6        65.5370   22.1270   23.4170 O.3   502  LG6502     -0.2674
     15  O1P       66.1930   24.4630   23.2740 O.2   502  LG6502     -0.2224
     16  O2P       67.0350   23.0980   25.1180 O.3   502  LG6502     -0.1145
     17  O3P       64.6980   23.7360   25.0640 O.3   502  LG6502     -0.1145
@<TRIPOS>BOND
     1     4     3   ar
     2     3     1    1
     3     3     2   ar
     4     1     5    1
     5     1     6    1
     6    10     8    1
     7     8     6    1
     8     8     9    1
     9     6     7    1
    10    15    13    2
    11    14    11    1
    12    14    13    1
    13    11     9    1
    14     9    12    1
    15    13    17    1
    16    13    16    1
