@<TRIPOS>MOLECULE
1kw6_BPY_B_1.pdb
 14 15 0 0 0
SMALL
GASTEIGER

@<TRIPOS>ATOM
      1  CK1       81.4270   38.1170   16.4280 C.ar  401  BPY401      0.0034
      2  CK2       82.7550   38.6010   16.4530 C.ar  401  BPY401      0.0422
      3  CK3       82.9780   39.9730   16.1900 C.ar  401  BPY401      0.2342
      4  CK4       81.9140   40.8640   15.9680 C.ar  401  BPY401      0.2343
      5  CK5       80.5980   40.3880   15.9560 C.ar  401  BPY401      0.0454
      6  CK6       80.3720   39.0160   16.1890 C.ar  401  BPY401      0.0035
      7  CK7       83.8570   37.7610   16.7840 C.ar  401  BPY401      0.0032
      8  CK8       84.6330   38.0340   17.9470 C.ar  401  BPY401      0.0001
      9  CK9       85.7590   37.2200   18.2350 C.ar  401  BPY401      0.0000
     10  CKA       86.1020   36.1370   17.3890 C.ar  401  BPY401      0.0000
     11  CKB       85.3170   35.8530   16.2360 C.ar  401  BPY401      0.0000
     12  CKC       84.1790   36.6690   15.9530 C.ar  401  BPY401      0.0001
     13  OK1       82.2040   42.1770   15.7430 O.3   401  BPY401     -0.2831
     14  OK2       84.2540   40.4790   16.1600 O.3   401  BPY401     -0.2831
@<TRIPOS>BOND
     1    13     4    1
     2    12    11   ar
     3    12     7   ar
     4     5     4   ar
     5     5     6   ar
     6     4     3   ar
     7    14     3    1
     8     6     1   ar
     9     3     2   ar
    10    11    10   ar
    11     1     2   ar
    12     2     7    1
    13     7     8   ar
    14    10     9   ar
    15     8     9   ar
