@<TRIPOS>MOLECULE
1kw8_BPY_B_1.pdb
 14 15 0 0 0
SMALL
GASTEIGER

@<TRIPOS>ATOM
      1  CK1       81.5200   37.9870   16.3670 C.ar  401  BPY401      0.0034
      2  CK2       82.8680   38.4490   16.3540 C.ar  401  BPY401      0.0422
      3  CK3       83.1130   39.8190   16.1020 C.ar  401  BPY401      0.2342
      4  CK4       82.0440   40.7150   15.8980 C.ar  401  BPY401      0.2343
      5  CK5       80.7110   40.2580   15.9360 C.ar  401  BPY401      0.0454
      6  CK6       80.4460   38.8970   16.1750 C.ar  401  BPY401      0.0035
      7  CK7       83.9680   37.5870   16.6500 C.ar  401  BPY401      0.0032
      8  CK8       84.8070   37.8250   17.7750 C.ar  401  BPY401      0.0001
      9  CK9       85.9230   36.9790   18.0130 C.ar  401  BPY401      0.0000
     10  CKA       86.2150   35.8960   17.1410 C.ar  401  BPY401      0.0000
     11  CKB       85.3870   35.6610   16.0210 C.ar  401  BPY401      0.0000
     12  CKC       84.2660   36.5060   15.7820 C.ar  401  BPY401      0.0001
     13  OK1       82.2990   42.0270   15.6610 O.3   401  BPY401     -0.2831
     14  OK2       84.3930   40.2790   16.0190 O.3   401  BPY401     -0.2831
@<TRIPOS>BOND
     1    13     4    1
     2    12    11   ar
     3    12     7   ar
     4     4     5   ar
     5     4     3   ar
     6     5     6   ar
     7    14     3    1
     8    11    10   ar
     9     3     2   ar
    10     6     1   ar
    11     2     1   ar
    12     2     7    1
    13     7     8   ar
    14    10     9   ar
    15     8     9   ar
