@<TRIPOS>MOLECULE
1kw9_BPY_B_1.pdb
 14 15 0 0 0
SMALL
GASTEIGER

@<TRIPOS>ATOM
      1  CK1       81.4440   37.9530   16.4610 C.ar  401  BPY401      0.0034
      2  CK2       82.7830   38.4310   16.4160 C.ar  401  BPY401      0.0422
      3  CK3       83.0120   39.7980   16.1240 C.ar  401  BPY401      0.2342
      4  CK4       81.9480   40.6860   15.8890 C.ar  401  BPY401      0.2343
      5  CK5       80.6200   40.2100   15.9260 C.ar  401  BPY401      0.0454
      6  CK6       80.3640   38.8460   16.2290 C.ar  401  BPY401      0.0035
      7  CK7       83.8890   37.5830   16.6840 C.ar  401  BPY401      0.0032
      8  CK8       84.7040   37.7940   17.8350 C.ar  401  BPY401      0.0001
      9  CK9       85.8200   36.9410   18.0820 C.ar  401  BPY401      0.0000
     10  CKA       86.1320   35.8790   17.1930 C.ar  401  BPY401      0.0000
     11  CKB       85.3140   35.6590   16.0550 C.ar  401  BPY401      0.0000
     12  CKC       84.2010   36.5080   15.8120 C.ar  401  BPY401      0.0001
     13  OK1       82.2280   42.0060   15.6100 O.3   401  BPY401     -0.2831
     14  OK2       84.2910   40.2800   16.0530 O.3   401  BPY401     -0.2831
@<TRIPOS>BOND
     1    13     4    1
     2    12    11   ar
     3    12     7   ar
     4     4     5   ar
     5     4     3   ar
     6     5     6   ar
     7    14     3    1
     8    11    10   ar
     9     3     2   ar
    10     6     1   ar
    11     2     1   ar
    12     2     7    1
    13     7     8   ar
    14    10     9   ar
    15     8     9   ar
