@<TRIPOS>MOLECULE
1kwf_BGC_A_1.pdb
 11 11 0 0 0
SMALL
GASTEIGER

@<TRIPOS>ATOM
      1  C2        23.7000   36.1930   23.7320 C.3   401  BGC401      0.2141
      2  C3        24.9750   37.0000   23.6180 C.3   401  BGC401      0.2173
      3  C4        24.6970   38.4720   23.2550 C.3   401  BGC401      0.2142
      4  C5        23.6550   39.0220   24.2360 C.3   401  BGC401      0.1810
      5  C6        23.2600   40.4450   24.0460 C.3   401  BGC401      0.2141
      6  C1        22.6600   36.9200   24.5910 C.3   401  BGC401      0.1777
      7  O2        23.9680   34.9480   24.3380 O.3   401  BGC401     -0.2176
      8  O3        25.8580   36.3570   22.6700 O.3   401  BGC401     -0.2175
      9  O4        25.8910   39.2480   23.3650 O.3   401  BGC401     -0.2176
     10  O5        22.4580   38.2390   24.1110 O.3   401  BGC401     -0.3481
     11  O6        22.8390   40.7040   22.7250 O.3   401  BGC401     -0.2176
@<TRIPOS>BOND
     1     8     2    1
     2    11     5    1
     3     3     9    1
     4     3     2    1
     5     3     4    1
     6     2     1    1
     7     1     7    1
     8     1     6    1
     9     5     4    1
    10    10     4    1
    11    10     6    1
