@<TRIPOS>MOLECULE
1kwk_GAL_A_1.pdb
 12 12 0 0 0
SMALL
GASTEIGER

@<TRIPOS>ATOM
      1  C1        24.9290    6.4860   27.8260 C.3   701  GAL701      0.3024
      2  C2        25.4270    7.1480   26.5200 C.3   701  GAL701      0.2434
      3  C3        25.8730    8.6030   26.7280 C.3   701  GAL701      0.2199
      4  C4        24.8490    9.3860   27.5610 C.3   701  GAL701      0.2144
      5  C5        24.5450    8.6260   28.8490 C.3   701  GAL701      0.1836
      6  C6        23.5200    9.3510   29.7060 C.3   701  GAL701      0.2142
      7  O1        25.9960    6.2240   28.6650 O.3   701  GAL701     -0.1869
      8  O2        26.5230    6.4060   26.0010 O.3   701  GAL701     -0.2148
      9  O3        26.0430    9.2350   25.4610 O.3   701  GAL701     -0.2174
     10  O4        23.6480    9.5500   26.8190 O.3   701  GAL701     -0.2176
     11  O5        23.9980    7.3270   28.5280 O.3   701  GAL701     -0.3236
     12  O6        23.8580    9.2810   31.0840 O.3   701  GAL701     -0.2176
@<TRIPOS>BOND
     1     9     3    1
     2     8     2    1
     3     2     3    1
     4     2     1    1
     5     3     4    1
     6    10     4    1
     7     4     5    1
     8     1    11    1
     9     1     7    1
    10    11     5    1
    11     5     6    1
    12     6    12    1
