@<TRIPOS>MOLECULE
1kwo_AGS_A_1.pdb
 31 33 0 0 0
SMALL
GASTEIGER

@<TRIPOS>ATOM
      1  PG        12.3660    4.5680  -26.8710 P.3   999  AGS999      0.4340
      2  S1G       10.5410    4.1200  -27.5640 S.3   999  AGS999      0.0416
      3  O2G       13.4480    3.9760  -27.8900 O.2   999  AGS999     -0.2423
      4  O3G       12.4920    4.0010  -25.4780 O.3   999  AGS999     -0.1305
      5  PB        13.6150    7.2190  -26.6180 P.3   999  AGS999      0.2262
      6  O1B       14.7870    6.8470  -27.3870 O.2   999  AGS999     -0.5168
      7  O2B       13.7420    7.3270  -25.1740 O.3   999  AGS999     -0.4369
      8  O3B       12.4190    6.1800  -26.9810 O.3   999  AGS999     -0.2405
      9  PA        13.7040    9.6690  -28.1280 P.3   999  AGS999      0.2189
     10  O1A       15.0030    9.9990  -27.5140 O.3   999  AGS999     -0.4371
     11  O2A       13.6440    9.3780  -29.5800 O.2   999  AGS999     -0.5170
     12  O3A       13.0940    8.5080  -27.2640 O.3   999  AGS999     -0.2701
     13  O5'       12.7980   10.7720  -27.8000 O.3   999  AGS999     -0.3112
     14  C5'       11.7530   11.0670  -28.4560 C.3   999  AGS999      0.1813
     15  C4'       11.6800   12.5540  -28.5690 C.3   999  AGS999      0.1821
     16  O4'       11.3860   13.4180  -27.4260 O.3   999  AGS999     -0.3135
     17  C3'       12.8640   13.1850  -29.2600 C.3   999  AGS999      0.2184
     18  O3'       12.8120   12.7960  -30.6450 O.3   999  AGS999     -0.2174
     19  C2'       12.6060   14.6320  -29.0050 C.3   999  AGS999      0.2570
     20  O2'       11.6790   15.2230  -29.9170 O.3   999  AGS999     -0.2130
     21  C1'       12.0550   14.6930  -27.5680 C.3   999  AGS999      0.3186
     22  N9        13.1300   14.8440  -26.5100 N.pl3 999  AGS999     -0.1439
     23  C8        13.6790   13.8900  -25.6930 C.3   999  AGS999      0.3377
     24  N7        14.6240   14.3130  -24.8870 N.2   999  AGS999     -0.2095
     25  C5        14.6670   15.6640  -25.1680 C.2   999  AGS999      0.2526
     26  C6        15.5360   16.7030  -24.7140 C.2   999  AGS999      0.4393
     27  N6        16.3950   16.4760  -23.7410 N.pl3 999  AGS999      0.2180
     28  N1        15.3600   17.9540  -25.2070 N.2   999  AGS999      0.0021
     29  C2        14.4830   18.1610  -26.1890 C.3   999  AGS999      0.5254
     30  N3        13.6370   17.2830  -26.7240 N.2   999  AGS999     -0.0055
     31  C4        13.8430   16.0010  -26.2200 C.2   999  AGS999      0.3518
@<TRIPOS>BOND
     1    18    17    1
     2    20    19    1
     3    11     9    2
     4    17    19    1
     5    17    15    1
     6    19    21    1
     7    15    14    1
     8    15    16    1
     9    14    13    1
    10     9    13    1
    11     9    10    1
    12     9    12    1
    13     3     1    2
    14    21    16    1
    15    21    22    1
    16     2     1    1
    17     6     5    2
    18    12     5    1
    19     8     1    1
    20     8     5    1
    21     1     4    1
    22    30    31    2
    23    30    29    1
    24     5     7    1
    25    22    31    1
    26    22    23    1
    27    31    25    1
    28    29    28    1
    29    23    24    1
    30    28    26    2
    31    25    24    2
    32    25    26    1
    33    26    27    1
