@<TRIPOS>MOLECULE
1kwo_PDM_A_1.pdb
 21 22 0 0 0
SMALL
GASTEIGER

@<TRIPOS>ATOM
      1  CP1       10.1900   -4.3280  -10.4380 C.ar  900  PDM900      0.0613
      2  CP2       10.6910   -3.1180  -10.9150 C.ar  900  PDM900      0.0167
      3  CP3        9.9360   -2.3270  -11.7870 C.ar  900  PDM900      0.0179
      4  CP4        8.6710   -2.7340  -12.1930 C.ar  900  PDM900      0.0734
      5  CP5        8.1990   -3.9870  -11.7300 C.ar  900  PDM900      0.0179
      6  CP6        9.0110   -4.8360  -10.9360 C.ar  900  PDM900      0.0167
      7  CP7        8.1920   -0.8300  -13.7610 C.2   900  PDM900      0.2461
      8  CP8        8.6640   -1.1540  -15.2010 C.3   900  PDM900      0.0990
      9  CP9        9.9460   -0.3840  -15.5990 C.3   900  PDM900      0.1237
     10  C10       10.6580   -1.0080  -16.8140 C.2   900  PDM900      0.3654
     11  C11       10.6480   -6.4550   -9.3090 C.2   900  PDM900      0.2590
     12  NP1       11.0070   -5.1920   -9.6230 N.am  900  PDM900     -0.2011
     13  NP2        7.8820   -1.8710  -12.9760 N.am  900  PDM900     -0.1792
     14  OP1        9.5040   -6.9070   -9.3560 O.2   900  PDM900     -0.2691
     15  OP2       12.8820   -3.8690   -9.5450 O.2   900  PDM900     -0.2691
     16  OP3        8.2160    0.3280  -13.3250 O.2   900  PDM900     -0.2730
     17  OP4       11.8530   -1.3490  -16.6510 O.co2 900  PDM900     -0.2456
     18  OP5       10.2210   -0.6540  -17.9420 O.co2 900  PDM900     -0.2456
     19  C12       11.8060   -7.0900   -8.8480 C.2   900  PDM900      0.0634
     20  C14       12.3100   -4.9480   -9.3750 C.2   900  PDM900      0.2590
     21  C13       12.8500   -6.1430   -8.8940 C.2   900  PDM900      0.0634
@<TRIPOS>BOND
     1    18    10   ar
     2    10    17   ar
     3    10     9    1
     4     9     8    1
     5     8     7    1
     6     7    16    2
     7     7    13   am
     8    13     4    1
     9     4     3   ar
    10     4     5   ar
    11     3     2   ar
    12     5     6   ar
    13     6     1   ar
    14     2     1   ar
    15     1    12    1
    16    12    20   am
    17    12    11   am
    18    15    20    2
    19    20    21    1
    20    14    11    2
    21    11    19    1
    22    21    19    2
