@<TRIPOS>MOLECULE
1kwq_SG1_A_1.pdb
 19 20 0 0 0
SMALL
GASTEIGER

@<TRIPOS>ATOM
      1  S1        -6.0500    0.9850   16.7860 S.O2  900  SG1900      0.0935
      2  C2        -5.2920    2.2570   15.7850 C.ar  900  SG1900      0.1268
      3  C3        -4.0920    2.0470   15.1140 C.ar  900  SG1900      0.0214
      4  C4        -3.5130    3.1030   14.4010 C.ar  900  SG1900      0.0183
      5  C5        -4.1280    4.3520   14.3190 C.ar  900  SG1900      0.0806
      6  N6        -3.5760    5.3350   13.4460 N.am  900  SG1900     -0.2345
      7  C7        -3.7390    5.3400   12.1200 C.2   900  SG1900      0.2376
      8  O8        -4.3620    4.5140   11.4390 O.2   900  SG1900     -0.2738
      9  C9        -3.0160    6.5160   11.5130 C.3   900  SG1900      0.1133
     10  C10       -2.3660    7.2290   12.7130 C.2   900  SG1900     -0.0000
     11  C11       -2.8320    6.4740   13.9680 C.2   900  SG1900      0.0680
     12  C12       -5.2590    4.6010   15.1190 C.ar  900  SG1900      0.1581
     13  N13       -5.7670    5.8480   15.3280 N.pl3 900  SG1900      0.0590
     14  O14       -5.3480    6.4690   16.2870 O.2   900  SG1900     -0.1261
     15  O15       -6.6120    6.2640   14.5560 O.2   900  SG1900     -0.1261
     16  C16       -5.8810    3.5280   15.7500 C.ar  900  SG1900      0.0454
     17  N17       -5.5400   -0.3800   16.0660 N.3   900  SG1900      0.0392
     18  O18       -7.4870    1.1090   16.6300 O.2   900  SG1900     -0.1503
     19  O19       -5.4840    1.0100   18.1030 O.2   900  SG1900     -0.1503
@<TRIPOS>BOND
     1     8     7    2
     2     9     7    1
     3     9    10    1
     4     7     6   am
     5    10    11    2
     6     6    11    1
     7     6     5    1
     8     5     4   ar
     9     5    12   ar
    10     4     3   ar
    11    15    13    2
    12     3     2   ar
    13    12    13    1
    14    12    16   ar
    15    13    14    2
    16    16     2   ar
    17     2     1    1
    18    17     1    1
    19    18     1    2
    20     1    19    2
