@<TRIPOS>MOLECULE
1kwr_SG2_A_1.pdb
 15 16 0 0 0
SMALL
GASTEIGER

@<TRIPOS>ATOM
      1  S1        -5.7020    1.0070   16.6810 S.O2  900  SG2900      0.0935
      2  C2        -5.0630    2.3060   15.6790 C.ar  900  SG2900      0.1253
      3  C3        -3.7070    2.2600   15.4120 C.ar  900  SG2900      0.0215
      4  C4        -3.1660    3.2510   14.6300 C.ar  900  SG2900      0.0192
      5  C5        -3.9790    4.2690   14.0820 C.ar  900  SG2900      0.0698
      6  N         -3.4940    5.3130   13.2510 N.ar  900  SG2900     -0.2940
      7  C6        -2.0940    5.4400   12.8500 C.3   900  SG2900      0.1390
      8  S7        -4.8100    6.2840   12.8420 S.2   900  SG2900      0.0332
      9  C8        -6.0650    5.4370   13.7000 C.ar  900  SG2900      0.2423
     10  O9        -7.2380    5.7590   13.7350 O.2   900  SG2900     -0.2779
     11  C10       -5.3530    4.3050   14.3550 C.ar  900  SG2900      0.0643
     12  C11       -5.9080    3.3080   15.1560 C.ar  900  SG2900      0.0252
     13  N12       -5.2960   -0.5040   15.9240 N.3   900  SG2900      0.0392
     14  O13       -7.1410    1.1640   16.7170 O.2   900  SG2900     -0.1503
     15  O14       -5.1480    1.0640   18.0130 O.2   900  SG2900     -0.1503
@<TRIPOS>BOND
     1     8     6   ar
     2     8     9   ar
     3     7     6    1
     4     6     5   ar
     5     9    10    2
     6     9    11   ar
     7     5    11   ar
     8     5     4   ar
     9    11    12   ar
    10     4     3   ar
    11    12     2   ar
    12     3     2   ar
    13     2     1    1
    14    13     1    1
    15     1    14    2
    16     1    15    2
