@<TRIPOS>MOLECULE
1kws_UGA_A_1.pdb
 37 39 0 0 0
SMALL
GASTEIGER

@<TRIPOS>ATOM
      1  C1'       24.2110    3.5020   12.3750 C.3   404  UGA404      0.2746
      2  C2'       22.9960    3.4450   11.3600 C.3   404  UGA404      0.2409
      3  O2'       21.9450    4.2680   11.8480 O.3   404  UGA404     -0.2149
      4  C3'       22.5140    1.9690   11.3190 C.3   404  UGA404      0.2203
      5  O3'       21.4210    1.8200   10.4250 O.3   404  UGA404     -0.2174
      6  C4'       23.6720    1.1250   10.7730 C.3   404  UGA404      0.2229
      7  O4'       23.2980   -0.2480   10.6940 O.3   404  UGA404     -0.2171
      8  C5'       24.9210    1.2160   11.7140 C.3   404  UGA404      0.2529
      9  O5'       25.3090    2.6360   11.8700 O.3   404  UGA404     -0.3167
     10  C6'       26.1330    0.4120   11.1820 C.2   404  UGA404      0.3941
     11  O'P       25.8560   -0.6710   10.4530 O.co2 404  UGA404     -0.2429
     12  O'Q       27.2730    0.7230   11.3850 O.co2 404  UGA404     -0.2429
     13  PB        24.4420    2.9140   15.0300 P.3   404  UGA404      0.2208
     14  O1B       23.5250    3.5690   15.9690 O.3   404  UGA404     -0.4371
     15  O2B       25.8830    3.2910   14.9290 O.2   404  UGA404     -0.5170
     16  O3B       23.7150    3.0660   13.6460 O.3   404  UGA404     -0.2857
     17  O3A       24.4060    1.3600   15.2970 O.3   404  UGA404     -0.2703
     18  PA        23.5760    0.3620   16.1930 P.3   404  UGA404      0.2189
     19  O1A       22.4900    1.1890   16.7980 O.2   404  UGA404     -0.5170
     20  O2A       24.5360   -0.2190   17.1310 O.3   404  UGA404     -0.4371
     21  O5D       23.0570   -0.8130   15.2220 O.3   404  UGA404     -0.3112
     22  C5D       21.9400   -0.6740   14.3540 C.3   404  UGA404      0.1813
     23  C4D       20.9580   -1.8240   14.5510 C.3   404  UGA404      0.1799
     24  O4D       21.6090   -3.1240   14.3300 O.3   404  UGA404     -0.3320
     25  C3D       20.3760   -1.8440   15.9600 C.3   404  UGA404      0.2158
     26  O3D       18.9520   -2.0740   15.8710 O.3   404  UGA404     -0.2175
     27  C2D       21.1190   -2.9840   16.6500 C.3   404  UGA404      0.2319
     28  O2D       20.3430   -3.5980   17.6630 O.3   404  UGA404     -0.2157
     29  C1D       21.4370   -3.9390   15.5150 C.3   404  UGA404      0.2401
     30  N1        22.6330   -4.7390   15.8560 N.am  404  UGA404     -0.1766
     31  C6        23.8450   -4.1230   16.1650 C.2   404  UGA404      0.0929
     32  C2        22.5020   -6.1250   15.8520 C.1   404  UGA404      0.2845
     33  O2        21.4560   -6.7000   15.5850 O.2   404  UGA404     -0.1918
     34  N3        23.6670   -6.8070   16.1810 N.2   404  UGA404     -0.2452
     35  C4        24.9060   -6.2410   16.5010 C.1   404  UGA404      0.2182
     36  O4        25.8600   -6.9460   16.7740 O.2   404  UGA404     -0.2085
     37  C5        24.9430   -4.8100   16.4770 C.2   404  UGA404      0.1242
@<TRIPOS>BOND
     1     5     4    1
     2    11    10   ar
     3     7     6    1
     4     6     4    1
     5     6     8    1
     6    10    12   ar
     7    10     8    1
     8     4     2    1
     9     2     3    1
    10     2     1    1
    11     8     9    1
    12     9     1    1
    13     1    16    1
    14    16    13    1
    15    24    23    1
    16    24    29    1
    17    22    23    1
    18    22    21    1
    19    23    25    1
    20    15    13    2
    21    13    17    1
    22    13    14    1
    23    21    18    1
    24    17    18    1
    25    29    30    1
    26    29    27    1
    27    33    32    2
    28    32    30   am
    29    32    34    2
    30    30    31    1
    31    26    25    1
    32    25    27    1
    33    31    37    2
    34    34    35    2
    35    18    19    2
    36    18    20    1
    37    37    35    1
    38    35    36    2
    39    27    28    1
