@<TRIPOS>MOLECULE
1kwu_MMA_A_1.pdb
 13 13 0 0 0
SMALL
GASTEIGER

@<TRIPOS>ATOM
      1  C1        46.7990   -3.2570   23.5560 C.3   501  MMA501      0.2695
      2  C2        45.3100   -3.0950   23.8990 C.3   501  MMA501      0.2406
      3  C3        44.5580   -4.3990   23.5900 C.3   501  MMA501      0.2198
      4  C4        44.7820   -4.7890   22.1350 C.3   501  MMA501      0.2144
      5  C5        46.2960   -4.9540   21.9240 C.3   501  MMA501      0.1835
      6  C6        46.6860   -5.3650   20.5180 C.3   501  MMA501      0.2142
      7  C7        48.8290   -4.1310   24.4240 C.3   501  MMA501      0.1769
      8  O1        47.3890   -4.1360   24.4670 O.3   501  MMA501     -0.3259
      9  O2        44.7640   -2.0270   23.1340 O.3   501  MMA501     -0.2149
     10  O3        43.1730   -4.2450   23.8410 O.3   501  MMA501     -0.2174
     11  O4        44.0930   -6.0010   21.8390 O.3   501  MMA501     -0.2176
     12  O5        46.9620   -3.7040   22.2110 O.3   501  MMA501     -0.3256
     13  O6        47.9790   -4.8770   20.1720 O.3   501  MMA501     -0.2176
@<TRIPOS>BOND
     1    13     6    1
     2     6     5    1
     3    11     4    1
     4     5     4    1
     5     5    12    1
     6     4     3    1
     7    12     1    1
     8     9     2    1
     9     1     2    1
    10     1     8    1
    11     3    10    1
    12     3     2    1
    13     7     8    1
