@<TRIPOS>MOLECULE
1kwv_NAG_A_1.pdb
 15 15 0 0 0
SMALL
GASTEIGER

@<TRIPOS>ATOM
      1  C1        47.6850   -3.8930   22.6400 C.3   501  NAG501      0.2917
      2  C2        46.7680   -5.0080   22.1080 C.3   501  NAG501      0.1871
      3  C3        45.2880   -4.6390   22.2770 C.3   501  NAG501      0.2095
      4  C4        45.0170   -4.3110   23.7330 C.3   501  NAG501      0.2136
      5  C5        45.9520   -3.1860   24.1830 C.3   501  NAG501      0.1835
      6  C6        45.7470   -2.8640   25.6550 C.3   501  NAG501      0.2142
      7  C7        47.5270   -6.4610   20.3050 C.2   501  NAG501      0.2421
      8  C8        47.7660   -6.5660   18.8060 C.3   501  NAG501      0.0964
      9  N2        47.0520   -5.2880   20.7120 N.am  501  NAG501     -0.1991
     10  O1        47.4520   -2.7270   21.9360 O.3   501  NAG501     -0.1879
     11  O3        44.4770   -5.7320   21.8810 O.3   501  NAG501     -0.2183
     12  O4        43.6620   -3.9290   23.9020 O.3   501  NAG501     -0.2176
     13  O5        47.3420   -3.5910   24.0090 O.3   501  NAG501     -0.3242
     14  O6        46.5840   -1.8020   26.0830 O.3   501  NAG501     -0.2176
     15  O7        47.7620   -7.3890   21.0830 O.2   501  NAG501     -0.2733
@<TRIPOS>BOND
     1     8     7    1
     2     7     9   am
     3     7    15    2
     4     9     2    1
     5    11     3    1
     6    10     1    1
     7     2     3    1
     8     2     1    1
     9     3     4    1
    10     1    13    1
    11     4    12    1
    12     4     5    1
    13    13     5    1
    14     5     6    1
    15     6    14    1
