@<TRIPOS>MOLECULE
1kww_MFU_A_1.pdb
 12 12 0 0 0
SMALL
GASTEIGER

@<TRIPOS>ATOM
      1  C1        45.7390   -5.2120   21.8670 C.3   501  MFU501      0.2695
      2  C2        44.2560   -4.9190   22.1560 C.3   501  MFU501      0.2406
      3  C3        44.0740   -4.5490   23.6310 C.3   501  MFU501      0.2197
      4  C4        44.9930   -3.3800   23.9930 C.3   501  MFU501      0.2118
      5  C5        46.4450   -3.7340   23.6410 C.3   501  MFU501      0.1508
      6  C6        47.4040   -2.5830   23.8620 C.3   501  MFU501      0.0350
      7  O1        46.1250   -6.3910   22.5190 O.3   501  MFU501     -0.3259
      8  O2        43.4680   -6.0610   21.8470 O.3   501  MFU501     -0.2149
      9  O3        42.7160   -4.1950   23.8770 O.3   501  MFU501     -0.2174
     10  O4        44.5950   -2.2200   23.2740 O.3   501  MFU501     -0.2177
     11  O5        46.5440   -4.0980   22.2500 O.3   501  MFU501     -0.3284
     12  CM        47.3690   -6.9500   22.0550 C.3   501  MFU501      0.1769
@<TRIPOS>BOND
     1     8     2    1
     2     1     2    1
     3     1    11    1
     4     1     7    1
     5    12     7    1
     6     2     3    1
     7    11     5    1
     8    10     4    1
     9     3     9    1
    10     3     4    1
    11     5     6    1
    12     5     4    1
