@<TRIPOS>MOLECULE
1kwx_MFB_A_1.pdb
 11 11 0 0 0
SMALL
GASTEIGER

@<TRIPOS>ATOM
      1  C1        45.8200   -4.8660   22.0680 C.3   501  MFB501      0.3023
      2  C2        44.3160   -4.6630   22.2780 C.3   501  MFB501      0.2434
      3  C3        44.0470   -4.2750   23.7360 C.3   501  MFB501      0.2198
      4  C4        44.8730   -3.0440   24.1160 C.3   501  MFB501      0.2118
      5  C5        46.3580   -3.2930   23.8090 C.3   501  MFB501      0.1509
      6  C6        47.2290   -2.0650   24.0330 C.3   501  MFB501      0.0350
      7  O1        46.0610   -5.2230   20.7370 O.3   501  MFB501     -0.1869
      8  O2        43.6260   -5.8620   21.9650 O.3   501  MFB501     -0.2148
      9  O3        42.6700   -3.9950   23.9070 O.3   501  MFB501     -0.2174
     10  O4        44.4160   -1.9190   23.3800 O.3   501  MFB501     -0.2177
     11  O5        46.5130   -3.6770   22.4280 O.3   501  MFB501     -0.3264
@<TRIPOS>BOND
     1     7     1    1
     2     8     2    1
     3     1     2    1
     4     1    11    1
     5     2     3    1
     6    11     5    1
     7    10     4    1
     8     3     9    1
     9     3     4    1
    10     5     6    1
    11     5     4    1
