@<TRIPOS>MOLECULE
1kwy_MAN_A_1.pdb
 11 11 0 0 0
SMALL
GASTEIGER

@<TRIPOS>ATOM
      1  C1        46.4370   -3.3550   22.0730 C.3   502  MAN502      0.1777
      2  C2        45.7960   -4.7200   21.8390 C.3   502  MAN502      0.2141
      3  C3        44.2920   -4.6300   22.1890 C.3   502  MAN502      0.2173
      4  C4        44.1490   -4.1960   23.6430 C.3   502  MAN502      0.2142
      5  C5        44.8420   -2.8430   23.8340 C.3   502  MAN502      0.1810
      6  C6        44.8330   -2.3680   25.2760 C.3   502  MAN502      0.2141
      7  O2        46.4240   -5.6880   22.6560 O.3   502  MAN502     -0.2176
      8  O3        43.6580   -5.8880   21.9870 O.3   502  MAN502     -0.2175
      9  O4        42.7860   -4.0910   23.9870 O.3   502  MAN502     -0.2176
     10  O5        46.2320   -2.9320   23.4180 O.3   502  MAN502     -0.3481
     11  O6        45.3860   -3.3540   26.1480 O.3   502  MAN502     -0.2176
@<TRIPOS>BOND
     1     2     1    1
     2     2     3    1
     3     2     7    1
     4     8     3    1
     5     1    10    1
     6     3     4    1
     7    10     5    1
     8     4     5    1
     9     4     9    1
    10     5     6    1
    11     6    11    1
