@<TRIPOS>MOLECULE
1kwz_MAN_A_1.pdb
 11 11 0 0 0
SMALL
GASTEIGER

@<TRIPOS>ATOM
      1  C1        46.8420   -2.4960   23.5790 C.3   502  MAN502      0.1777
      2  C2        45.3500   -2.4410   23.9260 C.3   502  MAN502      0.2141
      3  C3        44.7020   -3.7780   23.5450 C.3   502  MAN502      0.2173
      4  C4        44.9230   -4.0710   22.0660 C.3   502  MAN502      0.2142
      5  C5        46.4390   -4.1110   21.8040 C.3   502  MAN502      0.1810
      6  C6        46.8210   -4.3370   20.3470 C.3   502  MAN502      0.2141
      7  O2        44.7340   -1.3690   23.2440 O.3   502  MAN502     -0.2176
      8  O3        43.3160   -3.7760   23.8310 O.3   502  MAN502     -0.2175
      9  O4        44.3160   -5.3070   21.7380 O.3   502  MAN502     -0.2176
     10  O5        47.0320   -2.8510   22.2060 O.3   502  MAN502     -0.3481
     11  O6        46.2080   -3.3780   19.4960 O.3   502  MAN502     -0.2176
@<TRIPOS>BOND
     1    11     6    1
     2     6     5    1
     3     9     4    1
     4     5     4    1
     5     5    10    1
     6     4     3    1
     7    10     1    1
     8     7     2    1
     9     3     8    1
    10     3     2    1
    11     1     2    1
