@<TRIPOS>MOLECULE
1kx0_MAN_A_1.pdb
 11 11 0 0 0
SMALL
GASTEIGER

@<TRIPOS>ATOM
      1  C1        46.1250   -3.2940   23.9300 C.3   502  MAN502      0.1777
      2  C2        44.6240   -3.2140   24.2490 C.3   502  MAN502      0.2141
      3  C3        43.9160   -4.4920   23.7850 C.3   502  MAN502      0.2173
      4  C4        44.2070   -4.7520   22.3060 C.3   502  MAN502      0.2142
      5  C5        45.7220   -4.8020   22.0820 C.3   502  MAN502      0.1810
      6  C6        46.1000   -4.9740   20.6200 C.3   502  MAN502      0.2141
      7  O2        44.0510   -2.0800   23.6070 O.3   502  MAN502     -0.2176
      8  O3        42.5190   -4.3700   23.9850 O.3   502  MAN502     -0.2175
      9  O4        43.6180   -5.9840   21.9150 O.3   502  MAN502     -0.2176
     10  O5        46.3290   -3.5740   22.5420 O.3   502  MAN502     -0.3481
     11  O6        45.9670   -3.7530   19.9030 O.3   502  MAN502     -0.2176
@<TRIPOS>BOND
     1    11     6    1
     2     6     5    1
     3     9     4    1
     4     5     4    1
     5     5    10    1
     6     4     3    1
     7    10     1    1
     8     7     2    1
     9     3     8    1
    10     3     2    1
    11     1     2    1
