@<TRIPOS>MOLECULE
1kx1_MAN_B_1.pdb
 12 12 0 0 0
SMALL
GASTEIGER

@<TRIPOS>ATOM
      1  C1        10.3000   31.7510   25.2640 C.3    20  MAN20       0.3024
      2  C2         9.4910   31.1270   26.4040 C.3    20  MAN20       0.2434
      3  C3        10.1190   29.8050   26.8330 C.3    20  MAN20       0.2199
      4  C4        10.2380   28.8930   25.6320 C.3    20  MAN20       0.2144
      5  C5        10.9840   29.5750   24.4770 C.3    20  MAN20       0.1836
      6  C6        10.8850   28.7330   23.2240 C.3    20  MAN20       0.2142
      7  O1        11.5840   32.0450   25.6850 O.3    20  MAN20      -0.1869
      8  O2         8.1630   30.8920   25.9600 O.3    20  MAN20      -0.2148
      9  O3         9.2980   29.1780   27.8070 O.3    20  MAN20      -0.2174
     10  O4        10.9220   27.7200   26.0150 O.3    20  MAN20      -0.2176
     11  O5        10.3770   30.8460   24.1500 O.3    20  MAN20      -0.3236
     12  O6         9.5530   28.7280   22.7250 O.3    20  MAN20      -0.2176
@<TRIPOS>BOND
     1    12     6    1
     2     6     5    1
     3    11     5    1
     4    11     1    1
     5     5     4    1
     6     1     7    1
     7     1     2    1
     8     4    10    1
     9     4     3    1
    10     8     2    1
    11     2     3    1
    12     3     9    1
