@<TRIPOS>MOLECULE
1kxh_ACR_A_1.pdb
 44 47 0 0 0
SMALL
GASTEIGER

@<TRIPOS>ATOM
      1  C1A        9.7550   44.5270    2.8140 C.3   598  ACR598      0.1273
      2  C2A        8.5610   44.7870    1.9040 C.3   598  ACR598      0.2049
      3  C3A        8.9600   44.5140    0.4560 C.3   598  ACR598      0.2179
      4  C4A        9.7860   45.6790   -0.0690 C.3   598  ACR598      0.2053
      5  C5A       10.9230   45.9350    0.9120 C.2   598  ACR598      0.0180
      6  C6A       12.1280   46.7400    0.4620 C.3   598  ACR598      0.2066
      7  C7A       10.8910   45.4090    2.3390 C.2   598  ACR598     -0.0100
      8  O2A        7.4980   43.9320    2.2760 O.3   598  ACR598     -0.2184
      9  O3A        7.8070   44.3360   -0.3530 O.3   598  ACR598     -0.2172
     10  O4A       10.2580   45.3820   -1.3780 O.3   598  ACR598     -0.2157
     11  O6A       12.5210   47.6340    1.4930 O.3   598  ACR598     -0.2155
     12  C1B       11.1140   40.6580    6.0810 C.3   598  ACR598      0.2694
     13  C2B        9.7230   41.2590    6.0470 C.3   598  ACR598      0.2394
     14  C3B        9.3970   41.7200    4.6300 C.3   598  ACR598      0.2054
     15  C4B       10.4510   42.7100    4.1580 C.3   598  ACR598      0.1333
     16  C5B       11.8300   42.0580    4.2600 C.3   598  ACR598      0.1364
     17  C6B       12.9220   43.0430    3.8740 C.3   598  ACR598      0.0337
     18  N4B       10.1340   43.1170    2.7940 N.3   598  ACR598     -0.2087
     19  O2B        8.7860   40.2830    6.4720 O.3   598  ACR598     -0.2149
     20  O3B        8.1270   42.3430    4.6130 O.3   598  ACR598     -0.2186
     21  O5B       12.0570   41.6080    5.6060 O.3   598  ACR598     -0.3295
     22  C1C       12.4790   35.5190    6.2040 C.3   598  ACR598      0.2695
     23  C2C       11.0310   35.8780    6.5750 C.3   598  ACR598      0.2404
     24  C3C       10.5800   37.1450    5.8370 C.3   598  ACR598      0.2167
     25  C4C       11.5600   38.2820    6.0880 C.3   598  ACR598      0.1804
     26  C5C       12.9580   37.8220    5.6420 C.3   598  ACR598      0.1803
     27  C6C       14.0660   38.8560    5.8140 C.3   598  ACR598      0.2141
     28  O2C       10.1730   34.7980    6.2250 O.3   598  ACR598     -0.2149
     29  O3C        9.2890   37.5280    6.2760 O.3   598  ACR598     -0.2175
     30  O4C       11.1360   39.4550    5.3520 O.3   598  ACR598     -0.3257
     31  O5C       13.3420   36.6410    6.3880 O.3   598  ACR598     -0.3257
     32  O6C       14.1010   39.3620    7.1350 O.3   598  ACR598     -0.2176
     33  C1D       13.8810   31.8910    2.6040 C.3   598  ACR598      0.3023
     34  C2D       12.7250   31.5340    3.5160 C.3   598  ACR598      0.2433
     35  C3D       12.0700   32.8220    4.0050 C.3   598  ACR598      0.2168
     36  C4D       13.1060   33.7550    4.6500 C.3   598  ACR598      0.1804
     37  C5D       14.3390   33.9390    3.7600 C.3   598  ACR598      0.1804
     38  C6D       15.4460   34.6330    4.5470 C.3   598  ACR598      0.2141
     39  O1D       14.4870   30.7360    2.1360 O.3   598  ACR598     -0.1869
     40  O2D       11.7830   30.7570    2.7960 O.3   598  ACR598     -0.2148
     41  O3D       11.0570   32.5120    4.9480 O.3   598  ACR598     -0.2175
     42  O4D       12.5080   35.0510    4.8810 O.3   598  ACR598     -0.3257
     43  O5D       14.8520   32.6560    3.3300 O.3   598  ACR598     -0.3237
     44  O6D       16.5840   34.8900    3.7460 O.3   598  ACR598     -0.2176
@<TRIPOS>BOND
     1    10     4    1
     2     9     3    1
     3     4     3    1
     4     4     5    1
     5     3     2    1
     6     6     5    1
     7     6    11    1
     8     5     7    2
     9     2     8    1
    10     2     1    1
    11    39    33    1
    12     7     1    1
    13    33    43    1
    14    33    34    1
    15    18     1    1
    16    18    15    1
    17    40    34    1
    18    43    37    1
    19    34    35    1
    20    44    38    1
    21    37    38    1
    22    37    36    1
    23    17    16    1
    24    35    36    1
    25    35    41    1
    26    15    16    1
    27    15    14    1
    28    16    21    1
    29    20    14    1
    30    14    13    1
    31    36    42    1
    32    42    22    1
    33    30    12    1
    34    30    25    1
    35    21    12    1
    36    26    27    1
    37    26    25    1
    38    26    31    1
    39    27    32    1
    40    24    25    1
    41    24    29    1
    42    24    23    1
    43    13    12    1
    44    13    19    1
    45    22    31    1
    46    22    23    1
    47    28    23    1
