@<TRIPOS>MOLECULE
1kxm_HEM_A_1.pdb
 43 50 0 0 0
SMALL
GASTEIGER

@<TRIPOS>ATOM
      1 FE         27.8320   90.9950   51.9620 Fe      1  HEM1        0.0000
      2  CHA       27.6610   93.0370   49.2280 C.2     1  HEM1        0.0000
      3  CHB       30.2690   93.0020   53.3020 C.2     1  HEM1        0.0000
      4  CHC       28.1130   88.9250   54.6030 C.2     1  HEM1        0.0000
      5  CHD       25.2160   89.2520   50.7960 C.2     1  HEM1        0.0000
      6  NA        28.8820   92.6750   51.3350 N.2     1  HEM1        0.0000
      7  C1A       28.4190   93.4900   50.3560 C.2     1  HEM1        0.0000
      8  C2A       29.1150   94.6790   50.3880 C.2     1  HEM1        0.0000
      9  C3A       30.0960   94.5510   51.3850 C.2     1  HEM1        0.0000
     10  C4A       29.6900   93.4450   52.1050 C.2     1  HEM1        0.0000
     11  CMA       31.1270   95.6150   51.7560 C.3     1  HEM1        0.0000
     12  CAA       29.0640   95.7000   49.2420 C.3     1  HEM1        0.0000
     13  CBA       28.0530   96.7900   49.5060 C.3     1  HEM1        0.0000
     14  CGA       28.1010   97.8390   48.3720 C.2     1  HEM1        0.0000
     15  O1A       29.2180   98.2250   48.0050 O.co2   1  HEM1        0.0000
     16  O2A       27.2110   97.8340   47.5170 O.co2   1  HEM1        0.0000
     17  NB        28.9640   90.9950   53.7310 N.ar    1  HEM1        0.0000
     18  C1B       29.9410   91.8340   54.0360 C.ar    1  HEM1        0.0000
     19  C2B       30.5150   91.4920   55.2710 C.ar    1  HEM1        0.0000
     20  C3B       29.9780   90.2570   55.5840 C.ar    1  HEM1        0.0000
     21  C4B       28.9840   90.0200   54.6160 C.ar    1  HEM1        0.0000
     22  CMB       31.7770   92.1720   55.8020 C.3     1  HEM1        0.0000
     23  CAB       30.2870   89.3400   56.5970 C.3     1  HEM1        0.0000
     24  CBB       31.4870   89.2450   57.3720 C.3     1  HEM1        0.0000
     25  NC        26.7590   89.4210   52.6350 N.2     1  HEM1        0.0000
     26  C1C       26.9970   88.7120   53.7490 C.2     1  HEM1        0.0000
     27  C2C       26.0680   87.6830   53.9150 C.2     1  HEM1        0.0000
     28  C3C       25.2140   87.7840   52.8030 C.2     1  HEM1        0.0000
     29  C4C       25.7540   88.7740   51.9980 C.2     1  HEM1        0.0000
     30  CMC       25.8690   86.8450   55.1910 C.3     1  HEM1        0.0000
     31  CAC       24.0250   87.0840   52.5190 C.3     1  HEM1        0.0000
     32  CBC       23.6870   85.7210   52.8460 C.3     1  HEM1        0.0000
     33  ND        26.5760   91.1650   50.3150 N.ar    1  HEM1        0.0000
     34  C1D       25.6480   90.2680   49.9590 C.ar    1  HEM1        0.0000
     35  C2D       25.2600   90.4260   48.6380 C.ar    1  HEM1        0.0000
     36  C3D       25.9720   91.5320   48.1820 C.ar    1  HEM1        0.0000
     37  C4D       26.7220   91.9860   49.2700 C.ar    1  HEM1        0.0000
     38  CMD       24.2450   89.6270   47.8320 C.3     1  HEM1        0.0000
     39  CAD       25.8480   92.1080   46.7550 C.3     1  HEM1        0.0000
     40  CBD       24.8930   93.3280   46.7340 C.3     1  HEM1        0.0000
     41  CGD       24.7800   94.0630   45.3860 C.2     1  HEM1        0.0000
     42  O1D       24.1670   95.1190   45.3850 O.co2   1  HEM1        0.0000
     43  O2D       25.3540   93.5960   44.4190 O.co2   1  HEM1        0.0000
@<TRIPOS>BOND
     1    43    41   ar
     2    42    41   ar
     3    41    40    1
     4    40    39    1
     5    39    36    1
     6    16    14   ar
     7    38    35    1
     8    15    14   ar
     9    36    35   ar
    10    36    37   ar
    11    14    13    1
    12    35    34   ar
    13     2    37    2
    14     2     7    1
    15    12    13    1
    16    12     8    1
    17    37    33   ar
    18    34    33   ar
    19    34     5    2
    20    33     1    1
    21     7     8    1
    22     7     6    2
    23     8     9    2
    24     5    29    1
    25     6     1    1
    26     6    10    1
    27     9    11    1
    28     9    10    1
    29     1    25    1
    30     1    17    1
    31    29    25    2
    32    29    28    1
    33    10     3    2
    34    31    28    1
    35    31    32    1
    36    25    26    1
    37    28    27    2
    38     3    18    1
    39    17    18   ar
    40    17    21   ar
    41    26    27    1
    42    26     4    2
    43    27    30    1
    44    18    19   ar
    45     4    21    1
    46    21    20   ar
    47    19    20   ar
    48    19    22    1
    49    20    23    1
    50    23    24    1
