@<TRIPOS>MOLECULE
1kxn_HEM_A_1.pdb
 43 50 0 0 0
SMALL
GASTEIGER

@<TRIPOS>ATOM
      1 FE         28.2140   92.1120   52.0850 Fe      1  HEM1        0.0000
      2  CHA       28.0890   94.0330   49.3090 C.2     1  HEM1        0.0000
      3  CHB       30.6340   94.0960   53.4140 C.2     1  HEM1        0.0000
      4  CHC       28.5260   90.0070   54.6720 C.2     1  HEM1        0.0000
      5  CHD       25.5590   90.3600   50.9580 C.2     1  HEM1        0.0000
      6  NA        29.1110   93.8590   51.5350 N.2     1  HEM1        0.0000
      7  C1A       29.0580   94.3960   50.2920 C.2     1  HEM1        0.0000
      8  C2A       29.7360   95.6010   50.3140 C.2     1  HEM1        0.0000
      9  C3A       30.4590   95.6480   51.5120 C.2     1  HEM1        0.0000
     10  C4A       30.1350   94.4750   52.1610 C.2     1  HEM1        0.0000
     11  CMA       31.3450   96.7650   52.0340 C.3     1  HEM1        0.0000
     12  CAA       29.5690   96.6940   49.2610 C.3     1  HEM1        0.0000
     13  CBA       28.5160   97.7400   49.5130 C.3     1  HEM1        0.0000
     14  CGA       28.5440   98.8320   48.4200 C.2     1  HEM1        0.0000
     15  O1A       29.6050   99.4110   48.1630 O.co2   1  HEM1        0.0000
     16  O2A       27.6720   98.8290   47.5460 O.co2   1  HEM1        0.0000
     17  NB        29.3710   92.0750   53.8180 N.ar    1  HEM1        0.0000
     18  C1B       30.2600   92.9790   54.1910 C.ar    1  HEM1        0.0000
     19  C2B       30.9550   92.5420   55.3280 C.ar    1  HEM1        0.0000
     20  C3B       30.3420   91.3550   55.7030 C.ar    1  HEM1        0.0000
     21  C4B       29.4020   91.0820   54.6930 C.ar    1  HEM1        0.0000
     22  CMB       32.0400   93.4180   55.9520 C.3     1  HEM1        0.0000
     23  CAB       30.6310   90.3940   56.6850 C.3     1  HEM1        0.0000
     24  CBB       31.7700   90.3790   57.5680 C.3     1  HEM1        0.0000
     25  NC        27.0990   90.5520   52.8020 N.2     1  HEM1        0.0000
     26  C1C       27.4170   89.7600   53.8330 C.2     1  HEM1        0.0000
     27  C2C       26.5140   88.7080   53.9960 C.2     1  HEM1        0.0000
     28  C3C       25.5460   88.9300   53.0050 C.2     1  HEM1        0.0000
     29  C4C       26.0510   89.9490   52.2050 C.2     1  HEM1        0.0000
     30  CMC       26.3370   87.8920   55.2920 C.3     1  HEM1        0.0000
     31  CAC       24.3280   88.2630   52.7690 C.3     1  HEM1        0.0000
     32  CBC       24.0730   86.8470   53.0050 C.3     1  HEM1        0.0000
     33  ND        26.9610   92.2050   50.4280 N.ar    1  HEM1        0.0000
     34  C1D       26.1210   91.2400   50.0430 C.ar    1  HEM1        0.0000
     35  C2D       25.7010   91.4220   48.7280 C.ar    1  HEM1        0.0000
     36  C3D       26.2770   92.6300   48.3160 C.ar    1  HEM1        0.0000
     37  C4D       27.1040   93.0350   49.3750 C.ar    1  HEM1        0.0000
     38  CMD       24.5420   90.7160   48.0260 C.3     1  HEM1        0.0000
     39  CAD       26.1330   93.2550   46.9110 C.3     1  HEM1        0.0000
     40  CBD       25.3220   94.5560   46.8940 C.3     1  HEM1        0.0000
     41  CGD       24.9890   95.1840   45.5230 C.2     1  HEM1        0.0000
     42  O1D       24.4910   96.3090   45.5390 O.co2   1  HEM1        0.0000
     43  O2D       25.6230   94.7730   44.5650 O.co2   1  HEM1        0.0000
@<TRIPOS>BOND
     1    43    41   ar
     2    41    42   ar
     3    41    40    1
     4    40    39    1
     5    39    36    1
     6    16    14   ar
     7    38    35    1
     8    15    14   ar
     9    36    35   ar
    10    36    37   ar
    11    14    13    1
    12    35    34   ar
    13    12    13    1
    14    12     8    1
    15     2    37    2
    16     2     7    1
    17    37    33   ar
    18    34    33   ar
    19    34     5    2
    20     7     8    1
    21     7     6    2
    22     8     9    2
    23    33     1    1
    24     5    29    1
    25     9    11    1
    26     9    10    1
    27     6     1    1
    28     6    10    1
    29     1    25    1
    30     1    17    1
    31    10     3    2
    32    29    25    2
    33    29    28    1
    34    31    28    1
    35    31    32    1
    36    25    26    1
    37    28    27    2
    38     3    18    1
    39    17    18   ar
    40    17    21   ar
    41    26    27    1
    42    26     4    2
    43    27    30    1
    44    18    19   ar
    45     4    21    1
    46    21    20   ar
    47    19    20   ar
    48    19    22    1
    49    20    23    1
    50    23    24    1
