@<TRIPOS>MOLECULE
1kxp_ATP_A_1.pdb
 31 33 0 0 0
SMALL
GASTEIGER

@<TRIPOS>ATOM
      1  PG        -4.8510   -6.8310   76.3290 P.3   390  ATP390      0.5373
      2  O1G       -5.3740   -6.7390   74.9380 O.2   390  ATP390     -0.2221
      3  O2G       -3.3720   -6.8040   76.4510 O.3   390  ATP390     -0.1143
      4  O3G       -5.4410   -5.8080   77.2080 O.3   390  ATP390     -0.1143
      5  PB        -4.6620   -9.5190   77.6320 P.3   390  ATP390      0.2277
      6  O1B       -3.3970   -9.1580   78.2590 O.2   390  ATP390     -0.5168
      7  O2B       -5.6580  -10.0600   78.5620 O.3   390  ATP390     -0.4368
      8  O3B       -5.3330   -8.2360   76.9440 O.3   390  ATP390     -0.2258
      9  PA        -3.4190  -11.8020   76.4660 P.3   390  ATP390      0.2189
     10  O1A       -2.1000  -11.3890   75.9690 O.2   390  ATP390     -0.5170
     11  O2A       -3.5020  -12.4010   77.7820 O.3   390  ATP390     -0.4371
     12  O3A       -4.3960  -10.5910   76.4640 O.3   390  ATP390     -0.2700
     13  O5'       -3.9920  -12.8480   75.3950 O.3   390  ATP390     -0.3112
     14  C5'       -5.2560  -13.5450   75.4900 C.3   390  ATP390      0.1813
     15  C4'       -5.9230  -13.4950   74.1410 C.3   390  ATP390      0.1821
     16  O4'       -5.0020  -14.2560   73.3590 O.3   390  ATP390     -0.3135
     17  C3'       -7.2940  -14.1860   73.9210 C.3   390  ATP390      0.2184
     18  O3'       -8.0910  -13.6130   72.8770 O.3   390  ATP390     -0.2174
     19  C2'       -6.8580  -15.5940   73.5580 C.3   390  ATP390      0.2570
     20  O2'       -7.7720  -16.4070   72.8400 O.3   390  ATP390     -0.2130
     21  C1'       -5.6360  -15.3540   72.6940 C.3   390  ATP390      0.3186
     22  N9        -4.7390  -16.5790   72.6740 N.pl3 390  ATP390     -0.1439
     23  C8        -4.1830  -17.2770   73.7550 C.3   390  ATP390      0.3377
     24  N7        -3.4440  -18.3060   73.3710 N.2   390  ATP390     -0.2095
     25  C5        -3.5090  -18.2900   71.9600 C.2   390  ATP390      0.2526
     26  C6        -2.9110  -19.1480   70.9430 C.2   390  ATP390      0.4393
     27  N6        -2.1270  -20.1970   71.1790 N.pl3 390  ATP390      0.2180
     28  N1        -3.2010  -18.8180   69.6210 N.2   390  ATP390      0.0021
     29  C2        -4.0250  -17.7180   69.3820 C.3   390  ATP390      0.5254
     30  N3        -4.6160  -16.8760   70.2640 N.2   390  ATP390     -0.0055
     31  C4        -4.3030  -17.2360   71.5350 C.2   390  ATP390      0.3518
@<TRIPOS>BOND
     1    29    28    1
     2    29    30    1
     3    28    26    2
     4    30    31    2
     5    26    27    1
     6    26    25    1
     7    31    25    1
     8    31    22    1
     9    25    24    2
    10    22    21    1
    11    22    23    1
    12    21    16    1
    13    21    19    1
    14    20    19    1
    15    18    17    1
    16    16    15    1
    17    24    23    1
    18    19    17    1
    19    17    15    1
    20    15    14    1
    21     2     1    2
    22    13    14    1
    23    13     9    1
    24    10     9    2
    25     1     3    1
    26     1     8    1
    27     1     4    1
    28    12     9    1
    29    12     5    1
    30     9    11    1
    31     8     5    1
    32     5     6    2
    33     5     7    1
