@<TRIPOS>MOLECULE
1ky2_GNP_A_1.pdb
 32 34 0 0 0
SMALL
GASTEIGER

@<TRIPOS>ATOM
      1  PG       -10.6290   21.7750    7.2420 P.3   400  GNP400      0.4884
      2  O1G      -10.0490   22.1330    5.9570 O.2   400  GNP400     -0.2331
      3  O2G       -9.7410   20.9450    8.1090 O.3   400  GNP400     -0.1240
      4  O3G      -11.9870   21.0680    6.9720 O.3   400  GNP400     -0.1240
      5  N3B      -11.0430   23.1890    8.1440 N.3   400  GNP400     -0.0163
      6  PB        -9.8140   24.3140    8.4580 P.3   400  GNP400      0.4669
      7  O1B       -9.0740   23.9780    9.7080 O.3   400  GNP400     -0.1253
      8  O2B       -9.0440   24.6650    7.2290 O.2   400  GNP400     -0.2351
      9  O3A      -10.6930   25.5960    8.8130 O.3   400  GNP400     -0.2360
     10  PA       -10.9970   26.9110    7.9140 P.3   400  GNP400      0.2220
     11  O1A       -9.7180   27.7830    7.6750 O.3   400  GNP400     -0.4370
     12  O2A      -11.6860   26.4920    6.6160 O.2   400  GNP400     -0.5170
     13  O5'      -11.9940   27.7490    8.9570 O.3   400  GNP400     -0.3111
     14  C5'      -13.0080   27.0850    9.5960 C.3   400  GNP400      0.1813
     15  C4'      -14.0110   28.1390   10.2040 C.3   400  GNP400      0.1799
     16  O4'      -13.3360   28.6980   11.2100 O.3   400  GNP400     -0.3326
     17  C3'      -14.4980   28.8670    9.2480 C.3   400  GNP400      0.2158
     18  O3'      -15.8790   29.1490    9.6950 O.3   400  GNP400     -0.2175
     19  C2'      -13.5890   30.0550    9.4510 C.3   400  GNP400      0.2310
     20  O2'      -14.2040   31.3590    8.9980 O.3   400  GNP400     -0.2158
     21  C1'      -13.6310   30.0310   10.7660 C.3   400  GNP400      0.2293
     22  N9       -12.2540   30.8390   11.2810 N.pl3 400  GNP400     -0.2354
     23  C8       -10.9900   30.6370   10.7630 C.3   400  GNP400      0.2246
     24  N7       -10.1020   31.4020   11.3520 N.2   400  GNP400     -0.2322
     25  C5       -10.8080   32.1310   12.2910 C.2   400  GNP400      0.2182
     26  C6       -10.3720   33.1150   13.2200 C.1   400  GNP400      0.2372
     27  O6        -9.2190   33.5410   13.3890 O.2   400  GNP400     -0.2069
     28  N1       -11.4040   33.6190   14.0040 N.2   400  GNP400     -0.2485
     29  C2       -12.7150   33.2090   13.8890 C.1   400  GNP400      0.2531
     30  N2       -13.6010   33.7850   14.7120 N.pl3 400  GNP400     -0.0226
     31  N3       -13.1430   32.2910   13.0260 N.2   400  GNP400     -0.3074
     32  C4       -12.1390   31.7970   12.2620 C.2   400  GNP400      0.2300
@<TRIPOS>BOND
     1     2     1    2
     2    12    10    2
     3     4     1    1
     4     8     6    2
     5     1     3    1
     6     1     5    1
     7    11    10    1
     8    10     9    1
     9    10    13    1
    10     5     6    1
    11     6     9    1
    12     6     7    1
    13    13    14    1
    14    20    19    1
    15    17    19    1
    16    17    18    1
    17    17    15    1
    18    19    21    1
    19    14    15    1
    20    15    16    1
    21    23    22    1
    22    23    24    1
    23    21    16    1
    24    21    22    1
    25    22    32    1
    26    24    25    2
    27    32    25    1
    28    32    31    2
    29    25    26    1
    30    31    29    2
    31    26    27    2
    32    26    28    2
    33    29    28    2
    34    29    30    1
