@<TRIPOS>MOLECULE
1ky3_GDP_A_1.pdb
 28 30 0 0 0
SMALL
GASTEIGER

@<TRIPOS>ATOM
      1  PB        -1.1620   -4.4090   27.3170 P.3   400  GDP400      0.5373
      2  O1B        0.2960   -4.2240   27.0420 O.3   400  GDP400     -0.1143
      3  O2B       -1.8490   -5.3760   26.3620 O.2   400  GDP400     -0.2221
      4  O3B       -1.9490   -3.1110   27.5630 O.3   400  GDP400     -0.1143
      5  O3A       -1.1990   -5.2040   28.7840 O.3   400  GDP400     -0.2261
      6  PA        -2.2100   -5.0760   29.9770 P.3   400  GDP400      0.2231
      7  O1A       -3.6070   -5.2830   29.5240 O.2   400  GDP400     -0.5169
      8  O2A       -1.9290   -3.8750   30.8500 O.3   400  GDP400     -0.4370
      9  O5'       -1.7790   -6.3450   30.8630 O.3   400  GDP400     -0.3111
     10  C5'       -1.7320   -7.6520   30.2860 C.3   400  GDP400      0.1813
     11  C4'       -1.9030   -8.6420   31.3950 C.3   400  GDP400      0.1799
     12  O4'       -0.6630   -8.6180   32.1750 O.3   400  GDP400     -0.3326
     13  C3'       -3.0870   -8.3400   32.3340 C.3   400  GDP400      0.2158
     14  O3'       -3.5630   -9.6590   32.7650 O.3   400  GDP400     -0.2175
     15  C2'       -2.3720   -7.6850   33.5090 C.3   400  GDP400      0.2310
     16  O2'       -3.1320   -7.7390   34.6850 O.3   400  GDP400     -0.2158
     17  C1'       -0.9990   -8.3950   33.5130 C.3   400  GDP400      0.2293
     18  N9         0.0890   -7.4440   34.1250 N.pl3 400  GDP400     -0.2354
     19  C8         0.2620   -6.1320   33.8020 C.3   400  GDP400      0.2246
     20  N7         1.2750   -5.6140   34.5050 N.2   400  GDP400     -0.2322
     21  C5         1.7480   -6.6590   35.3040 C.2   400  GDP400      0.2182
     22  C6         2.7990   -6.6710   36.2320 C.1   400  GDP400      0.2372
     23  O6         3.5310   -5.7110   36.5250 O.2   400  GDP400     -0.2069
     24  N1         2.9710   -7.9140   36.8350 N.2   400  GDP400     -0.2485
     25  C2         2.1870   -9.0020   36.5380 C.1   400  GDP400      0.2531
     26  N2         2.4470  -10.1530   37.1850 N.pl3 400  GDP400     -0.0226
     27  N3         1.1890   -8.9870   35.6530 N.2   400  GDP400     -0.3074
     28  C4         1.0320   -7.7870   35.0800 C.2   400  GDP400      0.2300
@<TRIPOS>BOND
     1     3     1    2
     2     2     1    1
     3     1     4    1
     4     1     5    1
     5     5     6    1
     6     7     6    2
     7     6     8    1
     8     6     9    1
     9    10     9    1
    10    10    11    1
    11    11    12    1
    12    11    13    1
    13    12    17    1
    14    13    14    1
    15    13    15    1
    16    15    17    1
    17    15    16    1
    18    17    18    1
    19    19    18    1
    20    19    20    1
    21    18    28    1
    22    20    21    2
    23    28    21    1
    24    28    27    2
    25    21    22    1
    26    27    25    2
    27    22    23    2
    28    22    24    2
    29    25    24    2
    30    25    26    1
