@<TRIPOS>MOLECULE
1ky4_NAD_A_1.pdb
 44 48 0 0 0
SMALL
GASTEIGER

@<TRIPOS>ATOM
      1  PA        15.8290   -6.8640   20.9650 P.3   432  NAD432      0.2189
      2  O1A       15.2300   -6.7350   22.3180 O.3   432  NAD432     -0.4371
      3  O2A       16.9420   -5.9010   20.7220 O.2   432  NAD432     -0.5170
      4  O5B       14.7540   -6.5230   19.8890 O.3   432  NAD432     -0.3112
      5  C5B       13.5140   -7.2280   19.7940 C.3   432  NAD432      0.1813
      6  C4B       12.6560   -6.1850   19.1360 C.3   432  NAD432      0.1821
      7  O4B       11.3250   -6.7150   18.9380 O.3   432  NAD432     -0.3135
      8  C3B       12.4660   -4.9260   19.9800 C.3   432  NAD432      0.2184
      9  O3B       12.9700   -3.7480   19.3000 O.3   432  NAD432     -0.2174
     10  C2B       10.9700   -4.9310   20.2330 C.3   432  NAD432      0.2570
     11  O2B       10.4710   -3.5870   20.2770 O.3   432  NAD432     -0.2130
     12  C1B       10.4180   -5.7240   19.0380 C.3   432  NAD432      0.3186
     13  N9A        9.1610   -6.3580   19.3240 N.pl3 432  NAD432     -0.1439
     14  C8A        8.7720   -6.9500   20.4990 C.3   432  NAD432      0.3377
     15  N7A        7.5290   -7.4490   20.4500 N.2   432  NAD432     -0.2095
     16  C5A        7.1380   -7.1480   19.1520 C.2   432  NAD432      0.2526
     17  C6A        5.9310   -7.3930   18.4490 C.2   432  NAD432      0.4393
     18  N6A        4.8810   -8.0120   18.9610 N.pl3 432  NAD432      0.2180
     19  N1A        5.8450   -6.9580   17.1510 N.2   432  NAD432      0.0021
     20  C2A        6.9240   -6.3160   16.6020 C.3   432  NAD432      0.5254
     21  N3A        8.0780   -6.0510   17.1900 N.2   432  NAD432     -0.0055
     22  C4A        8.1270   -6.4810   18.4590 C.2   432  NAD432      0.3518
     23  O3        16.2900   -8.3740   20.7150 O.3   432  NAD432     -0.2703
     24  PN        17.5710   -8.7060   19.8370 P.3   432  NAD432      0.2189
     25  O1N       17.6670   -9.1260   18.4270 O.2   432  NAD432     -0.5170
     26  O2N       18.7580   -9.0960   20.6930 O.3   432  NAD432     -0.4371
     27  O5D       16.8910  -10.1790   19.9970 O.3   432  NAD432     -0.3112
     28  C5D       15.6890  -10.6280   19.2550 C.3   432  NAD432      0.1813
     29  C4D       15.3820  -12.0900   19.5940 C.3   432  NAD432      0.1799
     30  O4D       16.2860  -12.9260   18.8180 O.3   432  NAD432     -0.3327
     31  C3D       15.5690  -12.5550   21.0370 C.3   432  NAD432      0.2158
     32  O3D       14.5970  -13.5750   21.3290 O.3   432  NAD432     -0.2175
     33  C2D       16.9530  -13.1570   21.0190 C.3   432  NAD432      0.2309
     34  O2D       17.1720  -14.0490   22.1210 O.3   432  NAD432     -0.2158
     35  C1D       16.9540  -13.8340   19.6850 C.3   432  NAD432      0.2263
     36  N1N       18.2990  -14.1640   19.1660 N.pl3 432  NAD432     -0.2787
     37  C2N       18.4210  -15.1910   18.2030 C.3   432  NAD432      0.1244
     38  C3N       19.7150  -15.5820   17.6450 C.2   432  NAD432      0.0544
     39  C7N       19.7070  -16.6810   16.6390 C.2   432  NAD432      0.2818
     40  O7N       20.8350  -16.9660   16.2180 O.2   432  NAD432     -0.2670
     41  N7N       18.5840  -17.3280   16.2050 N.am  432  NAD432     -0.0839
     42  C4N       20.9280  -14.8770   18.1040 C.2   432  NAD432      0.0033
     43  C5N       20.7250  -13.7870   19.1320 C.2   432  NAD432      0.0157
     44  C6N       19.5070  -13.4970   19.5880 C.2   432  NAD432      0.0633
@<TRIPOS>BOND
     1    41    39   am
     2    40    39    2
     3    20    19    1
     4    20    21    1
     5    39    38    1
     6    19    17    2
     7    21    22    2
     8    38    42    2
     9    38    37    1
    10    42    43    1
    11    37    36    1
    12    25    24    2
    13    17    18    1
    14    17    16    1
    15    22    16    1
    16    22    13    1
    17    30    29    1
    18    30    35    1
    19     7    12    1
    20     7     6    1
    21    12    13    1
    22    12    10    1
    23    43    44    2
    24     6     5    1
    25     6     8    1
    26    16    15    2
    27    36    44    1
    28    36    35    1
    29    28    29    1
    30    28    27    1
    31     9     8    1
    32    13    14    1
    33    29    31    1
    34    35    33    1
    35     5     4    1
    36    24    27    1
    37    24    26    1
    38    24    23    1
    39     4     1    1
    40     8    10    1
    41    10    11    1
    42    15    14    1
    43    23     1    1
    44     3     1    2
    45     1     2    1
    46    33    31    1
    47    33    34    1
    48    31    32    1
