@<TRIPOS>MOLECULE
1ky5_NAI_A_1.pdb
 44 48 0 0 0
SMALL
GASTEIGER

@<TRIPOS>ATOM
      1  PA        42.0010   21.4500   42.9520 P.3   432  NAI432      0.2189
      2  O1A       42.5050   20.5920   44.0380 O.3   432  NAI432     -0.4371
      3  O2A       40.7270   22.2040   43.2570 O.2   432  NAI432     -0.5170
      4  O5B       41.6180   20.5840   41.6930 O.3   432  NAI432     -0.3112
      5  C5B       42.5190   19.6640   41.0690 C.3   432  NAI432      0.1813
      6  C4B       41.5490   18.5400   40.8030 C.3   432  NAI432      0.1821
      7  O4B       42.2090   17.4270   40.1750 O.3   432  NAI432     -0.3135
      8  C3B       40.8880   17.9640   42.0710 C.3   432  NAI432      0.2184
      9  O3B       39.4320   18.1290   42.0420 O.3   432  NAI432     -0.2174
     10  C2B       41.3560   16.5140   42.0710 C.3   432  NAI432      0.2570
     11  O2B       40.2980   15.6990   42.6340 O.3   432  NAI432     -0.2130
     12  C1B       41.6190   16.2450   40.5660 C.3   432  NAI432      0.3186
     13  N9A       42.6330   15.2390   40.3080 N.pl3 432  NAI432     -0.1439
     14  C8A       43.6980   14.9000   41.1010 C.3   432  NAI432      0.3377
     15  N7A       44.4550   13.9440   40.5680 N.2   432  NAI432     -0.2095
     16  C5A       43.8210   13.6730   39.3650 C.2   432  NAI432      0.2526
     17  C6A       44.1230   12.7550   38.3130 C.2   432  NAI432      0.4393
     18  N6A       45.1630   11.9250   38.3060 N.pl3 432  NAI432      0.2180
     19  N1A       43.2880   12.7340   37.2340 N.2   432  NAI432      0.0021
     20  C2A       42.2080   13.5850   37.2220 C.3   432  NAI432      0.5254
     21  N3A       41.8570   14.4560   38.1450 N.2   432  NAI432     -0.0055
     22  C4A       42.7020   14.4570   39.1920 C.2   432  NAI432      0.3518
     23  O3        43.2020   22.4380   42.5860 O.3   432  NAI432     -0.2703
     24  PN        43.1210   23.9720   42.0140 P.3   432  NAI432      0.2189
     25  O1N       42.9310   25.0490   43.0110 O.3   432  NAI432     -0.4371
     26  O2N       42.0620   24.0040   40.9310 O.2   432  NAI432     -0.5170
     27  O5D       44.6720   24.0180   41.5370 O.3   432  NAI432     -0.3112
     28  C5D       45.2500   22.8460   40.8550 C.3   432  NAI432      0.1813
     29  C4D       46.6990   23.1230   40.5400 C.3   432  NAI432      0.1799
     30  O4D       46.8130   24.3200   39.7460 O.3   432  NAI432     -0.3327
     31  C3D       47.6040   23.3340   41.7390 C.3   432  NAI432      0.2158
     32  O3D       48.8900   22.7100   41.4790 O.3   432  NAI432     -0.2175
     33  C2D       47.7390   24.8530   41.8040 C.3   432  NAI432      0.2309
     34  O2D       48.9510   25.2350   42.4660 O.3   432  NAI432     -0.2158
     35  C1D       47.7210   25.2290   40.3540 C.3   432  NAI432      0.2263
     36  N1N       47.2640   26.5950   40.0460 N.pl3 432  NAI432     -0.2787
     37  C2N       47.8760   27.2810   38.9690 C.3   432  NAI432      0.1244
     38  C3N       47.4640   28.6310   38.5860 C.2   432  NAI432      0.0544
     39  C7N       48.1940   29.2580   37.4260 C.2   432  NAI432      0.2818
     40  O7N       47.7950   30.4030   37.1560 O.2   432  NAI432     -0.2670
     41  N7N       49.2040   28.6520   36.7200 N.am  432  NAI432     -0.0839
     42  C4N       46.3690   29.2870   39.3470 C.2   432  NAI432      0.0033
     43  C5N       45.7600   28.5010   40.4880 C.2   432  NAI432      0.0157
     44  C6N       46.2010   27.2730   40.7680 C.2   432  NAI432      0.0633
@<TRIPOS>BOND
     1    41    39   am
     2    40    39    2
     3    20    19    1
     4    20    21    1
     5    19    17    2
     6    39    38    1
     7    21    22    2
     8    18    17    1
     9    17    16    1
    10    38    37    1
    11    38    42    2
    12    37    36    1
    13    22    16    1
    14    22    13    1
    15    42    43    1
    16    16    15    2
    17    30    35    1
    18    30    29    1
    19    36    35    1
    20    36    44    1
    21     7    12    1
    22     7     6    1
    23    13    12    1
    24    13    14    1
    25    35    33    1
    26    43    44    2
    27    29    28    1
    28    29    31    1
    29    12    10    1
    30    15    14    1
    31     6     5    1
    32     6     8    1
    33    28    27    1
    34    26    24    2
    35     5     4    1
    36    32    31    1
    37    27    24    1
    38     4     1    1
    39    31    33    1
    40    33    34    1
    41    24    23    1
    42    24    25    1
    43     9     8    1
    44    10     8    1
    45    10    11    1
    46    23     1    1
    47     1     3    2
    48     1     2    1
