@<TRIPOS>MOLECULE
1ky5_ADY_A_1.pdb
 19 21 0 0 0
SMALL
GASTEIGER

@<TRIPOS>ATOM
      1  O5'       52.0800   29.2780   40.8510 O.3   433  ADY433     -0.2172
      2  C5'       50.6580   29.2080   40.9580 C.3   433  ADY433      0.2192
      3  C4'       50.2400   30.6740   41.1640 C.3   433  ADY433      0.2116
      4  O4'       50.5100   31.4840   39.9850 O.3   433  ADY433     -0.3082
      5  C3'       48.9120   31.1740   41.6610 C.2   433  ADY433      0.2172
      6  O3'       48.3820   30.7580   42.6980 O.2   433  ADY433     -0.2905
      7  C2'       48.4710   32.3020   40.7320 C.3   433  ADY433      0.2834
      8  O2'       47.7930   33.2130   41.6060 O.3   433  ADY433     -0.2077
      9  C1'       49.8870   32.7050   40.3200 C.3   433  ADY433      0.3237
     10  N9        49.9670   33.7130   39.2270 N.pl3 433  ADY433     -0.1435
     11  C8        49.2890   33.6860   37.9790 C.3   433  ADY433      0.3377
     12  N7        49.5510   34.7130   37.1940 N.2   433  ADY433     -0.2095
     13  C5        50.4540   35.4770   37.9500 C.2   433  ADY433      0.2526
     14  C6        51.1470   36.7150   37.7050 C.2   433  ADY433      0.4393
     15  N6        51.0230   37.4170   36.5810 N.pl3 433  ADY433      0.2180
     16  N1        51.9710   37.1780   38.6900 N.2   433  ADY433      0.0021
     17  C2        52.1140   36.4850   39.8370 C.3   433  ADY433      0.5254
     18  N3        51.5270   35.3280   40.1820 N.2   433  ADY433     -0.0055
     19  C4        50.7140   34.8760   39.1970 C.2   433  ADY433      0.3518
@<TRIPOS>BOND
     1    15    14    1
     2    12    13    2
     3    12    11    1
     4    14    13    1
     5    14    16    2
     6    13    19    1
     7    11    10    1
     8    16    17    1
     9    19    10    1
    10    19    18    2
    11    10     9    1
    12    17    18    1
    13     4     9    1
    14     4     3    1
    15     9     7    1
    16     7     8    1
    17     7     5    1
    18     1     2    1
    19     2     3    1
    20     3     5    1
    21     5     6    2
