@<TRIPOS>MOLECULE
1ky8_NAP_A_1.pdb
 48 52 0 0 0
SMALL
GASTEIGER

@<TRIPOS>ATOM
      1  PA       -18.8990   59.9130   11.5520 P.3   999  NAP999      0.2189
      2  O1A      -20.2300   59.2750   11.6900 O.3   999  NAP999     -0.4371
      3  O2A      -17.7200   59.0290   11.3910 O.2   999  NAP999     -0.5170
      4  O5B      -18.5830   60.8880   12.7500 O.3   999  NAP999     -0.3112
      5  C5B      -18.7210   60.3460   14.0130 C.3   999  NAP999      0.1813
      6  C4B      -18.3210   61.2700   15.1460 C.3   999  NAP999      0.1820
      7  O4B      -18.5890   60.3350   16.1860 O.3   999  NAP999     -0.3136
      8  C3B      -16.8050   61.4530   15.0820 C.3   999  NAP999      0.2157
      9  O3B      -16.4610   62.5900   15.8970 O.3   999  NAP999     -0.2175
     10  C2B      -16.2980   60.1780   15.6780 C.3   999  NAP999      0.2314
     11  O2B      -14.9700   60.3480   16.1850 O.3   999  NAP999     -0.2630
     12  C1B      -17.3560   59.7990   16.7380 C.3   999  NAP999      0.3158
     13  N9A      -17.5070   58.3520   16.8550 N.pl3 999  NAP999     -0.1439
     14  C8A      -17.1370   57.3610   15.9610 C.3   999  NAP999      0.3377
     15  N7A      -17.4600   56.1400   16.4520 N.2   999  NAP999     -0.2095
     16  C5A      -18.0220   56.3910   17.6290 C.2   999  NAP999      0.2526
     17  C6A      -18.5310   55.4840   18.5350 C.2   999  NAP999      0.4393
     18  N6A      -18.5060   54.1830   18.3040 N.pl3 999  NAP999      0.2180
     19  N1A      -19.0810   55.9640   19.7210 N.2   999  NAP999      0.0021
     20  C2A      -19.1140   57.2920   19.9750 C.3   999  NAP999      0.5254
     21  N3A      -18.6190   58.1740   19.0910 N.2   999  NAP999     -0.0055
     22  C4A      -18.0630   57.7510   17.9020 C.2   999  NAP999      0.3518
     23  O3       -18.9050   60.8400   10.2460 O.3   999  NAP999     -0.2703
     24  PN       -17.8860   61.8210    9.5950 P.3   999  NAP999      0.2189
     25  O1N      -17.5460   61.2610    8.2750 O.2   999  NAP999     -0.5170
     26  O2N      -16.6810   61.9720   10.4690 O.3   999  NAP999     -0.4371
     27  O5D      -18.7880   63.1350    9.4680 O.3   999  NAP999     -0.3112
     28  C5D      -19.5600   63.3020    8.2540 C.3   999  NAP999      0.1813
     29  C4D      -20.8350   62.4700    8.3450 C.3   999  NAP999      0.1799
     30  O4D      -21.7510   63.1470    9.2120 O.3   999  NAP999     -0.3327
     31  C3D      -21.5690   62.2970    6.9990 C.3   999  NAP999      0.2158
     32  O3D      -22.2190   60.9840    6.9220 O.3   999  NAP999     -0.2175
     33  C2D      -22.5940   63.4470    7.0040 C.3   999  NAP999      0.2309
     34  O2D      -23.7140   63.1740    6.1510 O.3   999  NAP999     -0.2158
     35  C1D      -22.9470   63.5420    8.4700 C.3   999  NAP999      0.2263
     36  N1N      -23.3780   64.8930    8.8190 N.pl3 999  NAP999     -0.2787
     37  C2N      -24.7610   65.0650    9.1400 C.3   999  NAP999      0.1244
     38  C3N      -25.2260   66.3630    9.4610 C.2   999  NAP999      0.0544
     39  C7N      -26.7290   66.6170    9.8030 C.2   999  NAP999      0.2818
     40  O7N      -27.1160   67.7520   10.0710 O.2   999  NAP999     -0.2670
     41  N7N      -27.5040   65.5580    9.7710 N.am  999  NAP999     -0.0839
     42  C4N      -24.2950   67.4760    9.4600 C.2   999  NAP999      0.0033
     43  C5N      -22.8940   67.3000    9.1340 C.2   999  NAP999      0.0157
     44  C6N      -22.4500   65.9970    8.8150 C.2   999  NAP999      0.0633
     45  P2B      -13.5970   60.0300   15.3420 P.3   999  NAP999      0.5328
     46  O1X      -13.7370   58.5540   14.9390 O.3   999  NAP999     -0.1145
     47  O2X      -13.5520   61.0050   14.2300 O.2   999  NAP999     -0.2224
     48  O3X      -12.4900   60.1900   16.3780 O.3   999  NAP999     -0.1145
@<TRIPOS>BOND
     1    34    33    1
     2    32    31    1
     3    31    33    1
     4    31    29    1
     5    33    35    1
     6    28    29    1
     7    28    27    1
     8    25    24    2
     9    29    30    1
    10    35    36    1
    11    35    30    1
    12    44    36    1
    13    44    43    2
    14    36    37    1
    15    43    42    1
    16    37    38    1
    17    42    38    2
    18    38    39    1
    19    27    24    1
    20    24    23    1
    21    24    26    1
    22    41    39   am
    23    39    40    2
    24    23     1    1
    25     3     1    2
    26     1     2    1
    27     1     4    1
    28     4     5    1
    29     5     6    1
    30    47    45    2
    31    46    45    1
    32     8     6    1
    33     8    10    1
    34     8     9    1
    35     6     7    1
    36    45    11    1
    37    45    48    1
    38    10    11    1
    39    10    12    1
    40    14    15    1
    41    14    13    1
    42     7    12    1
    43    15    16    2
    44    12    13    1
    45    13    22    1
    46    16    22    1
    47    16    17    1
    48    22    21    2
    49    18    17    1
    50    17    19    2
    51    21    20    1
    52    19    20    1
