@<TRIPOS>MOLECULE
1kyd_III_P_1.pdb
 45 47 0 0 0
SMALL
GASTEIGER

@<TRIPOS>ATOM
      1  N         29.9210   13.7890  -20.4330 N.3   341  SER341     -0.1202
      2  CA        28.9100   14.8500  -20.1290 C.3   341  SER341      0.2020
      3  C         27.8080   14.3230  -19.2050 C.2   341  SER341      0.2619
      4  O         27.7040   14.7310  -18.0470 O.2   341  SER341     -0.2717
      5  CB        28.2830   15.3670  -21.4290 C.3   341  SER341      0.2103
      6  OG        27.2920   16.3470  -21.1570 O.3   341  SER341     -0.2182
      7  N         26.9800   13.4280  -19.7280 N.am  342  ASP342     -0.1960
      8  CA        25.9030   12.8450  -18.9440 C.3   342  ASP342      0.1825
      9  C         26.4810   11.6610  -18.1730 C.2   342  ASP342      0.2464
     10  O         26.6510   10.5730  -18.7230 O.2   342  ASP342     -0.2730
     11  CB        24.7760   12.3710  -19.8630 C.3   342  ASP342      0.1450
     12  CG        23.5860   11.8380  -19.0930 C.2   342  ASP342      0.3671
     13  OD1       23.6440   11.8180  -17.8470 O.co2 342  ASP342     -0.2456
     14  OD2       22.5930   11.4340  -19.7320 O.co2 342  ASP342     -0.2456
     15  N         26.7790   11.8580  -16.8810 N.am  343  PRO343     -0.2715
     16  CA        27.3450   10.7990  -16.0400 C.3   343  PRO343      0.1536
     17  C         26.4250    9.5960  -15.8820 C.2   343  PRO343      0.2599
     18  O         26.8340    8.5590  -15.3580 O.2   343  PRO343     -0.2715
     19  CB        27.5680   11.5080  -14.7170 C.3   343  PRO343      0.0310
     20  CG        26.3710   12.4170  -14.6530 C.3   343  PRO343      0.0237
     21  CD        26.3530   13.0020  -16.0550 C.3   343  PRO343      0.0939
     22  N         25.1890    9.7320  -16.3480 N.am  344  TRP344     -0.1960
     23  CA        24.2210    8.6640  -16.1930 C.3   344  TRP344      0.1768
     24  C         24.3760    7.4770  -17.1200 C.2   344  TRP344      0.2620
     25  O         23.6210    6.5160  -17.0160 O.2   344  TRP344     -0.2715
     26  CB        22.7990    9.2230  -16.2850 C.3   344  TRP344      0.0553
     27  CG        22.4050    9.9710  -15.0500 C.2   344  TRP344     -0.0136
     28  CD1       22.2070   11.3140  -14.9320 C.2   344  TRP344      0.0907
     29  CD2       22.1910    9.4160  -13.7450 C.3   344  TRP344      0.0819
     30  NE1       21.8850   11.6330  -13.6340 N.2   344  TRP344     -0.2482
     31  CE2       21.8660   10.4860  -12.8850 C.2   344  TRP344      0.0665
     32  CE3       22.2420    8.1180  -13.2210 C.2   344  TRP344     -0.0164
     33  CZ2       21.5910   10.3020  -11.5300 C.2   344  TRP344      0.0153
     34  CZ3       21.9690    7.9300  -11.8640 C.2   344  TRP344     -0.0038
     35  CH2       21.6470    9.0200  -11.0380 C.2   344  TRP344      0.0009
     36  N         25.3440    7.5320  -18.0270 N.am  345  LYS345     -0.1941
     37  CA        25.5590    6.4020  -18.9230 C.3   345  LYS345      0.1978
     38  C         26.8570    6.5210  -19.7130 C.2   345  LYS345      0.3842
     39  O         27.8320    7.0470  -19.1340 O.co2 345  LYS345     -0.2437
     40  CB        24.3720    6.2350  -19.8750 C.3   345  LYS345      0.0333
     41  CG        24.2970    4.8460  -20.5170 C.3   345  LYS345      0.0039
     42  CD        24.0040    3.7420  -19.5110 C.3   345  LYS345      0.0206
     43  CE        24.4210    2.3740  -20.0470 C.3   345  LYS345      0.1093
     44  NZ        24.0580    1.2280  -19.1600 N.3   345  LYS345     -0.1314
     45  OXT       26.8860    6.0670  -20.8820 O.co2 345  LYS345     -0.2437
@<TRIPOS>BOND
     1     5     6    1
     2     5     2    1
     3    45    38   ar
     4    41    40    1
     5    41    42    1
     6     1     2    1
     7     2     3    1
     8    43    42    1
     9    43    44    1
    10    40    37    1
    11    11    12    1
    12    11     8    1
    13    14    12   ar
    14     7     3   am
    15     7     8    1
    16    38    39   ar
    17    38    37    1
    18     3     4    2
    19    12    13   ar
    20     8     9    1
    21    37    36    1
    22    10     9    2
    23     9    15   am
    24    36    24   am
    25    24    25    2
    26    24    23    1
    27    15    21    1
    28    15    16    1
    29    22    23    1
    30    22    17   am
    31    26    23    1
    32    26    27    1
    33    21    20    1
    34    16    17    1
    35    16    19    1
    36    17    18    2
    37    27    28    2
    38    27    29    1
    39    28    30    1
    40    19    20    1
    41    29    32    1
    42    29    31    1
    43    30    31    2
    44    32    34    2
    45    31    33    1
    46    34    35    1
    47    33    35    2
