@<TRIPOS>MOLECULE
1kyf_III_P_1.pdb
 42 43 0 0 0
SMALL
GASTEIGER

@<TRIPOS>ATOM
      1  N         28.4880   13.7410  -20.8740 N.3   628  SER628     -0.1202
      2  CA        27.8350   14.8100  -20.1210 C.3   628  SER628      0.2020
      3  C         27.0480   14.2930  -18.9090 C.2   628  SER628      0.2619
      4  O         27.3280   14.6210  -17.7590 O.2   628  SER628     -0.2717
      5  CB        26.8510   15.5670  -21.0180 C.3   628  SER628      0.2103
      6  OG        26.8120   16.9500  -20.6960 O.3   628  SER628     -0.2182
      7  N         26.0630   13.4910  -19.2570 N.am  629  ASP629     -0.1960
      8  CA        25.1270   12.7980  -18.3970 C.3   629  ASP629      0.1825
      9  C         25.8640   11.7970  -17.5370 C.2   629  ASP629      0.2464
     10  O         26.3310   10.7600  -18.0300 O.2   629  ASP629     -0.2730
     11  CB        24.0710   12.1390  -19.3060 C.3   629  ASP629      0.1450
     12  CG        22.9730   11.5070  -18.4710 C.2   629  ASP629      0.3671
     13  OD1       23.1240   11.4440  -17.2340 O.co2 629  ASP629     -0.2456
     14  OD2       21.9600   11.0400  -19.0390 O.co2 629  ASP629     -0.2456
     15  N         25.9800   12.0660  -16.2300 N.am  630  PRO630     -0.2715
     16  CA        26.8310   11.1770  -15.4260 C.3   630  PRO630      0.1536
     17  C         26.2100    9.8040  -15.2680 C.2   630  PRO630      0.2599
     18  O         26.9380    8.8930  -14.8200 O.2   630  PRO630     -0.2715
     19  CB        26.9790   11.9160  -14.1050 C.3   630  PRO630      0.0310
     20  CG        25.7780   12.8090  -14.0240 C.3   630  PRO630      0.0237
     21  CD        25.3870   13.1400  -15.4430 C.3   630  PRO630      0.0939
     22  N         24.9360    9.6290  -15.6070 N.am  631  PHE631     -0.1960
     23  CA        24.2590    8.3610  -15.4930 C.3   631  PHE631      0.1771
     24  C         24.3650    7.6280  -16.8580 C.2   631  PHE631      0.2620
     25  O         23.4810    6.7890  -17.0780 O.2   631  PHE631     -0.2715
     26  CB        22.7800    8.3910  -15.1420 C.3   631  PHE631      0.0574
     27  CG        22.3520    9.0550  -13.8290 C.ar  631  PHE631     -0.0200
     28  CD1       22.1160    8.3780  -12.6340 C.ar  631  PHE631     -0.0042
     29  CD2       22.1640   10.4210  -13.8250 C.ar  631  PHE631     -0.0042
     30  CE1       21.7230    9.0700  -11.4980 C.ar  631  PHE631     -0.0003
     31  CE2       21.7960   11.1300  -12.7230 C.ar  631  PHE631     -0.0003
     32  CZ        21.5670   10.4400  -11.5420 C.ar  631  PHE631     -0.0000
     33  N         25.3490    8.0230  -17.6470 N.am  632  LYS632     -0.1941
     34  CA        25.6310    7.4110  -18.9730 C.3   632  LYS632      0.1978
     35  C         24.8860    8.1540  -20.0750 C.2   632  LYS632      0.3842
     36  O         23.6660    7.9810  -20.2670 O.co2 632  LYS632     -0.2437
     37  CB        25.3510    5.9220  -18.9410 C.3   632  LYS632      0.0333
     38  CG        25.4910    5.0080  -20.1430 C.3   632  LYS632      0.0039
     39  CD        24.4770    3.8590  -19.9750 C.3   632  LYS632      0.0206
     40  CE        23.1640    4.4320  -19.4410 C.3   632  LYS632      0.1093
     41  NZ        22.1890    3.3760  -19.0590 N.3   632  LYS632     -0.1314
     42  OXT       25.5450    8.9560  -20.7800 O.co2 632  LYS632     -0.2437
@<TRIPOS>BOND
     1     5     6    1
     2     5     2    1
     3     1     2    1
     4    42    35   ar
     5    36    35   ar
     6    38    39    1
     7    38    37    1
     8     2     3    1
     9    35    34    1
    10    39    40    1
    11    40    41    1
    12    11    12    1
    13    11     8    1
    14     7     3   am
    15     7     8    1
    16    14    12   ar
    17    34    37    1
    18    34    33    1
    19     3     4    2
    20    12    13   ar
    21     8     9    1
    22    10     9    2
    23    33    24   am
    24     9    15   am
    25    25    24    2
    26    24    23    1
    27    15    21    1
    28    15    16    1
    29    22    23    1
    30    22    17   am
    31    23    26    1
    32    21    20    1
    33    16    17    1
    34    16    19    1
    35    17    18    2
    36    26    27    1
    37    19    20    1
    38    27    29   ar
    39    27    28   ar
    40    29    31   ar
    41    31    32   ar
    42    28    30   ar
    43    32    30   ar
