@<TRIPOS>MOLECULE
1kyi_ATP_A_1.pdb
 31 33 0 0 0
SMALL
GASTEIGER

@<TRIPOS>ATOM
      1  PG       178.1480   82.4900  123.1350 P.3   450  ATP450      0.5373
      2  O1G      178.2670   82.4440  121.5980 O.2   450  ATP450     -0.2221
      3  O2G      177.7440   83.8240  123.7320 O.3   450  ATP450     -0.1143
      4  O3G      177.5290   81.2630  123.7920 O.3   450  ATP450     -0.1143
      5  PB       180.5910   83.4960  124.5380 P.3   450  ATP450      0.2277
      6  O1B      181.5240   84.2750  123.6660 O.2   450  ATP450     -0.5168
      7  O2B      179.6230   84.2270  125.4090 O.3   450  ATP450     -0.4368
      8  O3B      179.7000   82.4490  123.6710 O.3   450  ATP450     -0.2258
      9  PA       181.3100   82.1020  126.9700 P.3   450  ATP450      0.2189
     10  O1A      179.8690   81.6910  127.0150 O.2   450  ATP450     -0.5170
     11  O2A      181.8760   82.9970  128.0440 O.3   450  ATP450     -0.4371
     12  O3A      181.5750   82.7060  125.5150 O.3   450  ATP450     -0.2700
     13  O5'      182.1230   80.7510  126.9510 O.3   450  ATP450     -0.3112
     14  C5'      183.5220   80.7520  126.9240 C.3   450  ATP450      0.1813
     15  C4'      184.0440   79.6920  127.8470 C.3   450  ATP450      0.1821
     16  O4'      185.4740   79.6920  127.7070 O.3   450  ATP450     -0.3135
     17  C3'      183.7720   79.9510  129.3220 C.3   450  ATP450      0.2184
     18  O3'      183.7980   78.7380  130.0600 O.3   450  ATP450     -0.2174
     19  C2'      184.9270   80.8650  129.7140 C.3   450  ATP450      0.2570
     20  O2'      185.3680   80.6170  131.0330 O.3   450  ATP450     -0.2130
     21  C1'      186.0400   80.4550  128.7440 C.3   450  ATP450      0.3186
     22  N9       186.5910   81.6350  128.0990 N.pl3 450  ATP450     -0.1439
     23  C8       186.2080   82.0980  126.8690 C.3   450  ATP450      0.3377
     24  N7       186.8470   83.1670  126.4830 N.2   450  ATP450     -0.2095
     25  C5       187.7080   83.4270  127.5340 C.2   450  ATP450      0.2526
     26  C6       188.6470   84.4250  127.7290 C.2   450  ATP450      0.4393
     27  N6       188.8900   85.3830  126.8290 N.pl3 450  ATP450      0.2180
     28  N1       189.3380   84.4130  128.8830 N.2   450  ATP450      0.0021
     29  C2       189.0850   83.4420  129.7670 C.3   450  ATP450      0.5254
     30  N3       188.2200   82.4440  129.6950 N.2   450  ATP450     -0.0055
     31  C4       187.5560   82.4950  128.5410 C.2   450  ATP450      0.3518
@<TRIPOS>BOND
     1     2     1    2
     2     1     8    1
     3     1     3    1
     4     1     4    1
     5     6     5    2
     6     8     5    1
     7     5     7    1
     8     5    12    1
     9    12     9    1
    10    24    23    1
    11    24    25    2
    12    27    26    1
    13    23    22    1
    14    14    13    1
    15    14    15    1
    16    13     9    1
    17     9    10    2
    18     9    11    1
    19    25    26    1
    20    25    31    1
    21    16    15    1
    22    16    21    1
    23    26    28    2
    24    15    17    1
    25    22    31    1
    26    22    21    1
    27    31    30    2
    28    21    19    1
    29    28    29    1
    30    17    19    1
    31    17    18    1
    32    30    29    1
    33    19    20    1
