@<TRIPOS>MOLECULE
1kyi_LVS_G_1.pdb
 28 27 0 0 0
SMALL
GASTEIGER

@<TRIPOS>ATOM
      1  CB1      170.7130   90.9240   81.5360 C.3   175  LVS175      0.0284
      2  CG1      171.1350   92.3890   81.3600 C.3   175  LVS175      0.0019
      3  CD1      170.2660   93.0160   80.3120 C.3   175  LVS175      0.0001
      4  CD2      171.0020   93.1660   82.6370 C.3   175  LVS175      0.0001
      5  C1       171.8680   88.8880   80.6320 C.2   175  LVS175      0.2592
      6  O1       171.5880   88.0200   81.4510 O.2   175  LVS175     -0.2718
      7  N1       169.5180   89.4210   79.9330 N.3   175  LVS175     -0.1231
      8  CA1      170.8590   90.0050   80.3140 C.3   175  LVS175      0.1693
      9  N2       173.0390   88.8870   80.0050 N.am  175  LVS175     -0.1966
     10  CA2      173.9650   87.7900   80.2680 C.3   175  LVS175      0.1727
     11  CB2      173.8860   86.7130   79.1970 C.3   175  LVS175      0.0311
     12  CG2      172.5220   86.1120   78.8870 C.3   175  LVS175      0.0022
     13  CD3      171.8080   86.9980   77.7990 C.3   175  LVS175      0.0001
     14  CD4      172.7240   84.6760   78.4250 C.3   175  LVS175      0.0001
     15  C2       175.3790   88.2220   80.3280 C.2   175  LVS175      0.2612
     16  O2       175.6860   89.3980   80.1480 O.2   175  LVS175     -0.2715
     17  N3       176.2530   87.2560   80.5650 N.am  175  LVS175     -0.2057
     18  CA3      177.6640   87.5370   80.6700 C.3   175  LVS175      0.0971
     19  CS       178.6540   86.4250   80.6540 C.3   175  LVS175      0.0470
     20  CB3      177.9180   88.4220   81.9150 C.3   175  LVS175      0.0217
     21  CG3      177.1740   88.1990   83.2500 C.3   175  LVS175      0.0017
     22  CD5      177.5940   86.9300   83.9720 C.3   175  LVS175      0.0001
     23  CD6      177.3980   89.3910   84.1290 C.3   175  LVS175      0.0001
     24  C1'      177.6500   85.9080   77.8510 C.3   175  LVS175      0.1760
     25  S        177.5390   84.4160   78.8700 S.O2  175  LVS175     -0.0082
     26  O1'      176.1960   83.7820   78.9230 O.2   175  LVS175     -0.1729
     27  O2'      178.5360   83.3960   78.4560 O.2   175  LVS175     -0.1729
     28  C2'      178.0240   85.0550   80.5330 C.3   175  LVS175      0.1527
@<TRIPOS>BOND
     1    13    12    1
     2    24    25    1
     3    14    12    1
     4    27    25    2
     5    25    26    2
     6    25    28    1
     7    12    11    1
     8    11    10    1
     9     7     8    1
    10     9    10    1
    11     9     5   am
    12    16    15    2
    13    10    15    1
    14     3     2    1
    15     8     5    1
    16     8     1    1
    17    15    17   am
    18    28    19    1
    19    17    18    1
    20     5     6    2
    21    19    18    1
    22    18    20    1
    23     2     1    1
    24     2     4    1
    25    20    21    1
    26    21    22    1
    27    21    23    1
