@<TRIPOS>MOLECULE
1kyn_KTP_A_1.pdb
 27 30 0 0 0
SMALL
GASTEIGER

@<TRIPOS>ATOM
      1  P1        27.8380   29.9660  -10.0090 P.3   601  KTP601      0.1282
      2  O1        28.8980   30.5040   -9.1280 O.3   601  KTP601     -0.3566
      3  O2        27.8300   32.3130  -13.3310 O.2   601  KTP601     -0.2905
      4  C1        27.0030   31.2560  -11.1260 C.3   601  KTP601      0.1358
      5  C2        27.7890   32.4570  -12.1650 C.2   601  KTP601      0.1836
      6  O3        28.5770   28.8080  -10.8530 O.2   601  KTP601     -0.4593
      7  O4        26.7670   29.2760   -9.0320 O.3   601  KTP601     -0.3566
      8  C3        28.5230   33.7920  -11.8940 C.ar  601  KTP601      0.0355
      9  C4        28.6370   34.2440  -10.5640 C.ar  601  KTP601      0.0029
     10  C5        29.2880   35.4500  -10.2510 C.ar  601  KTP601      0.0001
     11  C6        29.3870   35.8780   -8.9140 C.ar  601  KTP601      0.0000
     12  C7        30.0440   37.0900   -8.6120 C.ar  601  KTP601      0.0000
     13  C8        30.6060   37.8890   -9.6640 C.ar  601  KTP601      0.0000
     14  C9        30.5140   37.4670  -11.0220 C.ar  601  KTP601      0.0000
     15  C10       29.8660   36.2640  -11.3270 C.ar  601  KTP601      0.0000
     16  C11       29.7610   35.8340  -12.6540 C.ar  601  KTP601      0.0001
     17  C12       29.0990   34.6130  -12.9350 C.ar  601  KTP601      0.0029
     18  C13       26.2530   29.2250  -12.5800 C.ar  601  KTP601     -0.0034
     19  C14       25.9220   30.4300  -11.9150 C.ar  601  KTP601     -0.0083
     20  C15       24.5210   30.8960  -11.9800 C.ar  601  KTP601     -0.0031
     21  C16       24.1010   32.0970  -11.3460 C.ar  601  KTP601     -0.0003
     22  C17       22.7360   32.5220  -11.4280 C.ar  601  KTP601     -0.0000
     23  C18       21.7790   31.7400  -12.1500 C.ar  601  KTP601     -0.0000
     24  C19       22.1850   30.5220  -12.7970 C.ar  601  KTP601     -0.0000
     25  C20       23.5310   30.0950  -12.7240 C.ar  601  KTP601     -0.0003
     26  C21       23.9270   28.9020  -13.3610 C.ar  601  KTP601     -0.0000
     27  C22       25.2830   28.4680  -13.2910 C.ar  601  KTP601     -0.0003
@<TRIPOS>BOND
     1    26    27   ar
     2    26    25   ar
     3     3     5    2
     4    27    18   ar
     5    17    16   ar
     6    17     8   ar
     7    24    25   ar
     8    24    23   ar
     9    25    20   ar
    10    16    15   ar
    11    18    19   ar
    12     5     8    1
    13     5     4    1
    14    23    22   ar
    15    20    19   ar
    16    20    21   ar
    17    19     4    1
    18     8     9   ar
    19    22    21   ar
    20    15    14   ar
    21    15    10   ar
    22     4     1    1
    23    14    13   ar
    24     6     1    2
    25     9    10   ar
    26    10    11   ar
    27     1     2    1
    28     1     7    1
    29    13    12   ar
    30    11    12   ar
