@<TRIPOS>MOLECULE
1kyo_SMA_C_1.pdb
 37 38 0 0 0
SMALL
GASTEIGER

@<TRIPOS>ATOM
      1  C2        17.3230  -22.3760   71.5820 C.ar  505  SMA505      0.1220
      2  C3        16.4190  -22.9630   72.3710 C.ar  505  SMA505      0.0475
      3  C3M       15.2710  -22.1600   72.9400 C.3   505  SMA505      0.0373
      4  C4        16.4910  -24.3630   72.7160 C.ar  505  SMA505      0.2002
      5  C4A       17.6280  -25.1170   72.1580 C.ar  505  SMA505      0.1105
      6  C5        17.8330  -26.5360   72.4240 C.ar  505  SMA505      0.1479
      7  C5M       17.4640  -27.8590   74.3210 C.3   505  SMA505      0.2525
      8  C6        18.9110  -27.1900   71.8840 C.ar  505  SMA505      0.0774
      9  C7        19.8250  -26.4960   71.0520 C.ar  505  SMA505      0.1835
     10  C7M       21.3550  -28.2930   71.2050 C.3   505  SMA505      0.2526
     11  C8        19.6830  -25.1330   70.7540 C.ar  505  SMA505      0.2636
     12  C8A       18.5940  -24.4240   71.2880 C.ar  505  SMA505      0.1925
     13  C9        17.2070  -20.9040   71.2530 C.3   505  SMA505      0.0644
     14  C10       17.5790  -20.5770   69.8480 C.3   505  SMA505      0.0104
     15  C11       17.4990  -19.1100   69.4310 C.3   505  SMA505      0.0277
     16  C12       16.2090  -18.9150   68.5810 C.3   505  SMA505      0.1175
     17  C13       16.4620  -19.5460   67.1100 C.3   505  SMA505      0.0544
     18  C14       15.7720  -18.7660   65.9540 C.3   505  SMA505      0.1176
     19  C15       15.1160  -19.6910   64.9540 C.3   505  SMA505      0.0296
     20  C16       15.0750  -19.4800   63.6190 C.3   505  SMA505      0.0028
     21  C17       15.1930  -20.5080   62.5740 C.3   505  SMA505      0.0044
     22  C18       14.1420  -21.0410   61.9060 C.3   505  SMA505      0.0217
     23  C19       14.1690  -21.5540   60.5400 C.2   505  SMA505     -0.0482
     24  C20       14.8690  -21.0210   59.4970 C.2   505  SMA505     -0.0342
     25  C21       14.8750  -21.5750   58.0790 C.3   505  SMA505      0.0300
     26  C22       17.5310  -18.1930   70.6400 C.3   505  SMA505      0.0025
     27  C23       14.5580  -17.4280   69.1160 C.3   505  SMA505      0.1740
     28  C24       17.9310  -19.6410   66.7730 C.3   505  SMA505      0.0050
     29  C25       16.7610  -16.8920   65.0380 C.3   505  SMA505      0.1740
     30  C26       13.2790  -22.7810   60.4820 C.3   505  SMA505      0.0260
     31  O1        18.4030  -23.0750   71.0360 O.2   505  SMA505     -0.4544
     32  O4        15.6510  -24.9080   73.4460 O.2   505  SMA505     -0.2866
     33  O5        16.9220  -27.1960   73.2360 O.3   505  SMA505     -0.4711
     34  O7        20.9210  -27.1760   70.5020 O.3   505  SMA505     -0.4680
     35  O8        20.5880  -24.5400   69.9550 O.3   505  SMA505     -0.2800
     36  O12       15.8130  -17.5830   68.5620 O.3   505  SMA505     -0.3535
     37  O14       15.8320  -17.3780   65.9350 O.3   505  SMA505     -0.3535
@<TRIPOS>BOND
     1    25    24    1
     2    24    23    2
     3    30    23    1
     4    23    22    1
     5    22    21    1
     6    21    20    1
     7    20    19    1
     8    19    18    1
     9    29    37    1
    10    37    18    1
    11    18    17    1
    12    28    17    1
    13    17    16    1
    14    36    16    1
    15    36    27    1
    16    16    15    1
    17    15    14    1
    18    15    26    1
    19    14    13    1
    20    35    11    1
    21    34     9    1
    22    34    10    1
    23    11     9   ar
    24    11    12   ar
    25    31    12   ar
    26    31     1   ar
    27     9     8   ar
    28    13     1    1
    29    12     5   ar
    30     1     2   ar
    31     8     6   ar
    32     5     6   ar
    33     5     4   ar
    34     2     4   ar
    35     2     3    1
    36     6    33    1
    37     4    32    2
    38    33     7    1
