@<TRIPOS>MOLECULE
1kyo_HEM_C_1.pdb
 43 50 0 0 0
SMALL
GASTEIGER

@<TRIPOS>ATOM
      1 FE         28.6010  -21.6100   57.9260 Fe    501  HEM501      0.0000
      2  CHA       28.8760  -24.6900   59.2670 C.2   501  HEM501      0.0000
      3  CHB       28.0510  -20.3020   61.0950 C.2   501  HEM501      0.0000
      4  CHC       28.3600  -18.4500   56.6670 C.2   501  HEM501      0.0000
      5  CHD       29.1810  -22.8200   54.8100 C.2   501  HEM501      0.0000
      6  NA        28.3830  -22.3480   59.7870 N.2   501  HEM501      0.0000
      7  C1A       28.5600  -23.6640   60.1460 C.2   501  HEM501      0.0000
      8  C2A       28.3760  -23.8170   61.5700 C.2   501  HEM501      0.0000
      9  C3A       28.0660  -22.6020   62.0630 C.2   501  HEM501      0.0000
     10  C4A       28.1650  -21.6730   60.9690 C.2   501  HEM501      0.0000
     11  CMA       27.7650  -22.1580   63.4840 C.3   501  HEM501      0.0000
     12  CAA       28.6150  -25.0680   62.3380 C.3   501  HEM501      0.0000
     13  CBA       29.8590  -24.8730   63.1700 C.3   501  HEM501      0.0000
     14  CGA       30.6960  -26.1090   63.2140 C.2   501  HEM501      0.0000
     15  O1A       31.5870  -26.2200   62.3460 O.co2 501  HEM501      0.0000
     16  O2A       30.4650  -26.9630   64.1020 O.co2 501  HEM501      0.0000
     17  NB        28.2800  -19.7660   58.7420 N.ar  501  HEM501      0.0000
     18  C1B       28.1050  -19.4130   60.0570 C.ar  501  HEM501      0.0000
     19  C2B       27.9060  -18.0000   60.1750 C.ar  501  HEM501      0.0000
     20  C3B       28.1490  -17.4830   58.9630 C.ar  501  HEM501      0.0000
     21  C4B       28.2420  -18.5840   58.0400 C.ar  501  HEM501      0.0000
     22  CMB       27.4340  -17.1820   61.3700 C.3   501  HEM501      0.0000
     23  CAB       28.2410  -16.1690   58.6380 C.3   501  HEM501      0.0000
     24  CBB       27.0260  -15.5470   58.1430 C.3   501  HEM501      0.0000
     25  NC        28.7320  -20.8060   56.0920 N.2   501  HEM501      0.0000
     26  C1C       28.5780  -19.4770   55.7580 C.2   501  HEM501      0.0000
     27  C2C       28.6810  -19.3000   54.3210 C.2   501  HEM501      0.0000
     28  C3C       28.8830  -20.5250   53.7960 C.2   501  HEM501      0.0000
     29  C4C       28.9530  -21.4580   54.9070 C.2   501  HEM501      0.0000
     30  CMC       28.5690  -17.9970   53.4600 C.3   501  HEM501      0.0000
     31  CAC       28.9650  -20.6720   52.4200 C.3   501  HEM501      0.0000
     32  CBC       28.7930  -21.9430   51.7810 C.3   501  HEM501      0.0000
     33  ND        28.9640  -23.3810   57.1920 N.ar  501  HEM501      0.0000
     34  C1D       29.1960  -23.7100   55.8760 C.ar  501  HEM501      0.0000
     35  C2D       29.5060  -25.1160   55.7760 C.ar  501  HEM501      0.0000
     36  C3D       29.3860  -25.6380   57.0100 C.ar  501  HEM501      0.0000
     37  C4D       29.0600  -24.5560   57.9010 C.ar  501  HEM501      0.0000
     38  CMD       29.8840  -25.8760   54.5400 C.3   501  HEM501      0.0000
     39  CAD       29.5400  -27.0950   57.3730 C.3   501  HEM501      0.0000
     40  CBD       30.9410  -27.5660   57.7300 C.3   501  HEM501      0.0000
     41  CGD       31.4250  -26.9760   59.0210 C.2   501  HEM501      0.0000
     42  O1D       30.9280  -27.3950   60.0870 O.co2 501  HEM501      0.0000
     43  O2D       32.2890  -26.0790   58.9550 O.co2 501  HEM501      0.0000
@<TRIPOS>BOND
     1    32    31    1
     2    31    28    1
     3    30    27    1
     4    28    27    2
     5    28    29    1
     6    27    26    1
     7    38    35    1
     8     5    29    1
     9     5    34    2
    10    29    25    2
    11    26    25    1
    12    26     4    2
    13    35    34   ar
    14    35    36   ar
    15    34    33   ar
    16    25     1    1
    17     4    21    1
    18    36    39    1
    19    36    37   ar
    20    33    37   ar
    21    33     1    1
    22    39    40    1
    23    40    41    1
    24    37     2    2
    25     1    17    1
    26     1     6    1
    27    21    17   ar
    28    21    20   ar
    29    24    23    1
    30    23    20    1
    31    17    18   ar
    32    43    41   ar
    33    20    19   ar
    34    41    42   ar
    35     2     7    1
    36     6     7    2
    37     6    10    1
    38    18    19   ar
    39    18     3    1
    40     7     8    1
    41    19    22    1
    42    10     3    2
    43    10     9    1
    44     8     9    2
    45     8    12    1
    46     9    11    1
    47    12    13    1
    48    15    14   ar
    49    13    14    1
    50    14    16   ar
