@<TRIPOS>MOLECULE
1kyq_NAD_A_1.pdb
 26 28 0 0 0
SMALL
GASTEIGER

@<TRIPOS>ATOM
      1  PA        41.2690   48.2880   34.3840 P.3   800  NAD800      0.2204
      2  O1A       41.6910   49.2570   35.4200 O.3   800  NAD800     -0.4371
      3  O2A       42.0610   48.3360   33.1450 O.2   800  NAD800     -0.5170
      4  O5B       39.7250   48.5300   34.0530 O.3   800  NAD800     -0.3112
      5  C5B       38.7130   48.7660   35.0800 C.3   800  NAD800      0.1813
      6  C4B       37.5910   49.4980   34.3460 C.3   800  NAD800      0.1821
      7  O4B       36.3830   49.3880   35.1460 O.3   800  NAD800     -0.3135
      8  C3B       37.8770   51.0010   34.1760 C.3   800  NAD800      0.2184
      9  O3B       37.3090   51.4910   32.9640 O.3   800  NAD800     -0.2174
     10  C2B       37.0720   51.6280   35.3330 C.3   800  NAD800      0.2570
     11  O2B       36.5950   52.9040   34.9030 O.3   800  NAD800     -0.2130
     12  C1B       35.8570   50.6860   35.3800 C.3   800  NAD800      0.3186
     13  N9A       35.1640   50.5890   36.6630 N.pl3 800  NAD800     -0.1439
     14  C8A       35.6950   50.5380   37.9150 C.3   800  NAD800      0.3377
     15  N7A       34.7730   50.4080   38.8660 N.2   800  NAD800     -0.2095
     16  C5A       33.5840   50.3650   38.1830 C.2   800  NAD800      0.2526
     17  C6A       32.2540   50.2490   38.6180 C.2   800  NAD800      0.4393
     18  N6A       31.8870   50.1460   39.8860 N.pl3 800  NAD800      0.2180
     19  N1A       31.2920   50.2420   37.6530 N.2   800  NAD800      0.0021
     20  C2A       31.6680   50.3530   36.3460 C.3   800  NAD800      0.5254
     21  N3A       32.8650   50.4680   35.8450 N.2   800  NAD800     -0.0055
     22  C4A       33.7970   50.4740   36.8200 C.2   800  NAD800      0.3518
     23  O3        41.2090   46.7960   34.9900 O.3   800  NAD800     -0.2513
     24  PN        41.0750   45.4550   34.1000 P.3   800  NAD800      0.3991
     25  O1N       42.4510   45.1030   33.6480 O.3   800  NAD800     -0.1422
     26  O2N       40.2570   45.8110   32.9030 O.3   800  NAD800     -0.1422
@<TRIPOS>BOND
     1    26    24    1
     2     9     8    1
     3     3     1    2
     4    25    24    1
     5     4     1    1
     6     4     5    1
     7    24    23    1
     8     8     6    1
     9     8    10    1
    10     6     5    1
    11     6     7    1
    12     1    23    1
    13     1     2    1
    14    11    10    1
    15     7    12    1
    16    10    12    1
    17    12    13    1
    18    21    20    1
    19    21    22    2
    20    20    19    1
    21    13    22    1
    22    13    14    1
    23    22    16    1
    24    19    17    2
    25    14    15    1
    26    16    17    1
    27    16    15    2
    28    17    18    1
