@<TRIPOS>MOLECULE
1kyu_III_P_1.pdb
 42 43 0 0 0
SMALL
GASTEIGER

@<TRIPOS>ATOM
      1  N        -18.4840   38.9740  -19.3620 N.3   628  SER628     -0.1202
      2  CA       -19.4070   37.9470  -18.7990 C.3   628  SER628      0.2020
      3  C        -18.7960   37.2670  -17.5780 C.2   628  SER628      0.2619
      4  O        -19.4180   37.2030  -16.5150 O.2   628  SER628     -0.2717
      5  CB       -19.7330   36.8940  -19.8620 C.3   628  SER628      0.2103
      6  OG       -20.5520   35.8660  -19.3320 O.3   628  SER628     -0.2182
      7  N        -17.5780   36.7570  -17.7380 N.am  629  ASP629     -0.1960
      8  CA       -16.8770   36.0810  -16.6520 C.3   629  ASP629      0.1825
      9  C        -16.2440   37.1100  -15.7170 C.2   629  ASP629      0.2464
     10  O        -15.2290   37.7270  -16.0460 O.2   629  ASP629     -0.2730
     11  CB       -15.8060   35.1490  -17.2230 C.3   629  ASP629      0.1450
     12  CG       -15.0810   34.3610  -16.1490 C.2   629  ASP629      0.3671
     13  OD1      -15.5520   34.3480  -14.9910 O.co2 629  ASP629     -0.2456
     14  OD2      -14.0430   33.7450  -16.4680 O.co2 629  ASP629     -0.2456
     15  N        -16.8400   37.3020  -14.5300 N.am  630  PRO630     -0.2715
     16  CA       -16.3560   38.2570  -13.5290 C.3   630  PRO630      0.1536
     17  C        -14.9570   37.9620  -12.9950 C.2   630  PRO630      0.2599
     18  O        -14.4690   38.6590  -12.1060 O.2   630  PRO630     -0.2715
     19  CB       -17.4260   38.1820  -12.4430 C.3   630  PRO630      0.0310
     20  CG       -17.8760   36.7600  -12.5250 C.3   630  PRO630      0.0237
     21  CD       -17.9920   36.5430  -14.0100 C.3   630  PRO630      0.0939
     22  N        -14.3120   36.9330  -13.5380 N.am  631  PHE631     -0.1960
     23  CA       -12.9690   36.5680  -13.1010 C.3   631  PHE631      0.1771
     24  C        -11.8550   37.1040  -13.9980 C.2   631  PHE631      0.2620
     25  O        -10.7550   36.5490  -14.0320 O.2   631  PHE631     -0.2715
     26  CB       -12.8540   35.0470  -12.9770 C.3   631  PHE631      0.0574
     27  CG       -13.2990   34.5150  -11.6460 C.ar  631  PHE631     -0.0200
     28  CD1      -12.5510   34.7660  -10.5020 C.ar  631  PHE631     -0.0042
     29  CD2      -14.4680   33.7710  -11.5310 C.ar  631  PHE631     -0.0042
     30  CE1      -12.9570   34.2870   -9.2640 C.ar  631  PHE631     -0.0003
     31  CE2      -14.8840   33.2870  -10.2940 C.ar  631  PHE631     -0.0003
     32  CZ       -14.1260   33.5460   -9.1600 C.ar  631  PHE631     -0.0000
     33  N        -12.1450   38.1800  -14.7260 N.am  632  LYS632     -0.1941
     34  CA       -11.1580   38.8130  -15.6020 C.3   632  LYS632      0.1978
     35  C        -11.7720   39.9770  -16.3740 C.2   632  LYS632      0.3842
     36  O        -11.6680   41.1240  -15.8850 O.co2 632  LYS632     -0.2437
     37  CB       -10.5690   37.7960  -16.5890 C.3   632  LYS632      0.0333
     38  CG        -9.2440   38.2380  -17.2100 C.3   632  LYS632      0.0039
     39  CD        -8.1990   38.4940  -16.1270 C.3   632  LYS632      0.0206
     40  CE        -6.9030   39.0750  -16.6790 C.3   632  LYS632      0.1093
     41  NZ        -5.9850   39.5130  -15.5850 N.3   632  LYS632     -0.1314
     42  OXT      -12.3640   39.7250  -17.4480 O.co2 632  LYS632     -0.2437
@<TRIPOS>BOND
     1     5     6    1
     2     5     2    1
     3     1     2    1
     4     2     3    1
     5     7     3   am
     6     7     8    1
     7     3     4    2
     8    42    35   ar
     9    11     8    1
    10    11    12    1
    11    38    37    1
    12    38    39    1
    13    40    39    1
    14    40    41    1
    15     8     9    1
    16    37    34    1
    17    14    12   ar
    18    35    36   ar
    19    35    34    1
    20    12    13   ar
    21    10     9    2
    22     9    15   am
    23    34    33    1
    24    33    24   am
    25    15    21    1
    26    15    16    1
    27    25    24    2
    28    21    20    1
    29    24    23    1
    30    22    23    1
    31    22    17   am
    32    16    17    1
    33    16    19    1
    34    23    26    1
    35    17    18    2
    36    26    27    1
    37    20    19    1
    38    27    29   ar
    39    27    28   ar
    40    29    31   ar
    41    28    30   ar
    42    31    32   ar
    43    30    32   ar
