@<TRIPOS>MOLECULE
1kyv_RBF_A_1.pdb
 27 29 0 0 0
SMALL
GASTEIGER

@<TRIPOS>ATOM
      1  N1        76.1010   45.0550   42.2090 N.2   501  RBF501     -0.2890
      2  C2        75.9850   43.8380   42.8680 C.1   501  RBF501      0.3669
      3  O2        76.9980   43.2190   43.0710 O.2   501  RBF501     -0.1744
      4  N3        74.7080   43.4690   43.2140 N.2   501  RBF501     -0.2300
      5  C4        73.4910   44.1430   42.9990 C.1   501  RBF501      0.2513
      6  O4        72.4240   43.6700   43.3750 O.2   501  RBF501     -0.2057
      7  C4A       73.6730   45.4670   42.2550 C.2   501  RBF501      0.2700
      8  N5        72.6080   46.1960   41.9750 N.2   501  RBF501     -0.3878
      9  C5A       72.7580   47.4210   41.2810 C.2   501  RBF501      0.1320
     10  C6        71.5110   48.1400   40.9950 C.2   501  RBF501      0.0250
     11  C7        71.6610   49.3430   40.2930 C.2   501  RBF501     -0.0238
     12  C7M       70.4500   50.2280   39.8900 C.3   501  RBF501      0.0308
     13  C8        73.0190   49.8100   39.8990 C.2   501  RBF501     -0.0280
     14  C8M       73.1470   51.1550   39.1060 C.3   501  RBF501      0.0304
     15  C9        74.2250   49.1530   40.1660 C.2   501  RBF501     -0.0041
     16  C9A       74.0520   47.9070   40.8810 C.3   501  RBF501      0.1497
     17  N10       75.2070   47.0580   41.2320 N.pl3 501  RBF501     -0.2691
     18  C10       75.0030   45.8690   41.9000 C.2   501  RBF501      0.2416
     19  C1'       76.5370   47.5410   40.8350 C.3   501  RBF501      0.1294
     20  C2'       77.0520   47.0920   39.4760 C.3   501  RBF501      0.2044
     21  O2'       77.3060   45.6470   39.5560 O.3   501  RBF501     -0.2185
     22  C3'       78.2720   47.8940   39.1720 C.3   501  RBF501      0.2166
     23  O3'       79.2880   47.8500   40.1700 O.3   501  RBF501     -0.2175
     24  C4'       78.1050   49.3530   38.9460 C.3   501  RBF501      0.2175
     25  O4'       77.0180   49.5100   38.0100 O.3   501  RBF501     -0.2175
     26  C5'       79.3040   50.1350   38.2660 C.3   501  RBF501      0.2175
     27  O5'       79.5890   49.5240   36.9870 O.3   501  RBF501     -0.2175
@<TRIPOS>BOND
     1    27    26    1
     2    25    24    1
     3    26    24    1
     4    24    22    1
     5    14    13    1
     6    22    20    1
     7    22    23    1
     8    20    21    1
     9    20    19    1
    10    12    11    1
    11    13    15    2
    12    13    11    1
    13    15    16    1
    14    11    10    2
    15    19    17    1
    16    16    17    1
    17    16     9    1
    18    10     9    1
    19    17    18    1
    20     9     8    2
    21    18     1    2
    22    18     7    1
    23     8     7    2
    24     1     2    2
    25     7     5    1
    26     2     3    2
    27     2     4    2
    28     5     4    2
    29     5     6    2
