@<TRIPOS>MOLECULE
1kyx_CRM_A_1.pdb
 27 28 0 0 0
SMALL
GASTEIGER

@<TRIPOS>ATOM
      1  C2        75.9310   43.4560   42.7710 C.1   501  CRM501      0.3669
      2  O15       76.8790   42.7190   42.8290 O.2   501  CRM501     -0.1744
      3  N3        76.0190   44.6680   42.1620 N.2   501  CRM501     -0.2886
      4  C4        75.0060   45.5980   42.0280 C.2   501  CRM501      0.2471
      5  N10       75.1360   46.7950   41.4100 N.am  501  CRM501     -0.2224
      6  C17       76.3920   47.2240   40.8110 C.3   501  CRM501      0.1366
      7  C18       76.9120   46.7520   39.4450 C.3   501  CRM501      0.2049
      8  C20       78.0650   47.6860   38.9500 C.3   501  CRM501      0.2166
      9  C22       77.5720   49.1120   38.5670 C.3   501  CRM501      0.2175
     10  C25       78.6790   50.0110   37.9490 C.3   501  CRM501      0.2175
     11  O26       79.3230   49.3510   36.8360 O.3   501  CRM501     -0.2175
     12  O23       76.5200   48.9880   37.5980 O.3   501  CRM501     -0.2175
     13  O21       79.0530   47.7730   40.0010 O.3   501  CRM501     -0.2175
     14  O19       77.4120   45.4100   39.6120 O.3   501  CRM501     -0.2185
     15  C9        74.0880   47.6540   41.3180 C.2   501  CRM501      0.2802
     16  O16       74.1510   48.7570   40.7600 O.2   501  CRM501     -0.2671
     17  C8        72.7520   47.3070   41.9010 C.2   501  CRM501      0.1642
     18  C11       71.4760   48.1440   41.8940 C.3   501  CRM501      0.0756
     19  C12       70.5590   47.9880   40.6610 C.3   501  CRM501      0.1216
     20  C13       70.2670   46.5490   40.2670 C.2   501  CRM501      0.3653
     21  O28       70.8890   46.0920   39.2610 O.co2 501  CRM501     -0.2456
     22  O27       69.4480   45.8530   40.9500 O.co2 501  CRM501     -0.2456
     23  N7        72.6830   46.1450   42.4840 N.2   501  CRM501     -0.3851
     24  C5        73.8130   45.2230   42.5780 C.2   501  CRM501      0.2705
     25  C6        73.6530   43.8980   43.2650 C.1   501  CRM501      0.2513
     26  O14       72.5780   43.5780   43.7490 O.2   501  CRM501     -0.2057
     27  N1        74.7400   43.0850   43.3180 N.2   501  CRM501     -0.2300
@<TRIPOS>BOND
     1    11    10    1
     2    12     9    1
     3    10     9    1
     4     9     8    1
     5     8     7    1
     6     8    13    1
     7    21    20   ar
     8     7    14    1
     9     7     6    1
    10    20    19    1
    11    20    22   ar
    12    19    18    1
    13    16    15    2
    14     6     5    1
    15    15     5   am
    16    15    17    1
    17     5     4    1
    18    18    17    1
    19    17    23    2
    20     4     3    2
    21     4    24    1
    22     3     1    2
    23    23    24    2
    24    24    25    1
    25     1     2    2
    26     1    27    2
    27    25    27    2
    28    25    26    2
