@<TRIPOS>MOLECULE
1kyy_INI_A_1.pdb
 21 21 0 0 0
SMALL
GASTEIGER

@<TRIPOS>ATOM
      1  N1        76.3690   44.3460   41.9050 N.2   201  INI201     -0.2923
      2  C2        76.1530   43.1250   42.5170 C.1   201  INI201      0.3663
      3  O2        77.1400   42.3970   42.6220 O.2   201  INI201     -0.1745
      4  N3        74.8810   42.8470   42.9350 N.2   201  INI201     -0.2344
      5  C4        73.7940   43.6970   42.7990 C.1   201  INI201      0.2293
      6  O4        72.7130   43.2310   43.2440 O.2   201  INI201     -0.2107
      7  C5        74.0530   45.0710   42.1250 C.3   201  INI201      0.3505
      8  N5        72.9240   45.9730   42.0120 N.pl3 201  INI201      0.0583
      9  O51       71.8620   45.6690   42.4310 O.2   201  INI201     -0.1294
     10  O52       73.0760   47.0390   41.4660 O.2   201  INI201     -0.1294
     11  C6        75.4350   45.3730   41.7390 C.2   201  INI201      0.2365
     12  N7        75.9520   46.5950   41.2420 N.pl3 201  INI201     -0.2071
     13  C8        75.8580   46.7280   39.7590 C.3   201  INI201      0.1501
     14  C9        77.2000   46.4280   38.9770 C.3   201  INI201      0.2063
     15  O9        77.6980   45.2410   39.5630 O.3   201  INI201     -0.2184
     16  C10       78.4530   47.4360   38.9400 C.3   201  INI201      0.2166
     17  O10       79.1560   47.4080   40.1460 O.3   201  INI201     -0.2175
     18  C11       78.2670   49.0500   38.4660 C.3   201  INI201      0.2175
     19  O11       76.8470   49.0100   38.1090 O.3   201  INI201     -0.2175
     20  C12       78.8310   49.7760   37.1660 C.3   201  INI201      0.2175
     21  O12       80.0100   49.0900   36.8380 O.3   201  INI201     -0.2175
@<TRIPOS>BOND
     1    21    20    1
     2    20    18    1
     3    19    18    1
     4    18    16    1
     5    16    14    1
     6    16    17    1
     7    14    15    1
     8    14    13    1
     9    13    12    1
    10    12    11    1
    11    10     8    2
    12    11     1    2
    13    11     7    1
    14     1     2    2
    15     8     7    1
    16     8     9    2
    17     7     5    1
    18     2     3    2
    19     2     4    2
    20     5     4    2
    21     5     6    2
