@<TRIPOS>MOLECULE
1kz8_PFE_A_1.pdb
 30 33 0 0 0
SMALL
GASTEIGER

@<TRIPOS>ATOM
      1  O51       39.6200   78.7550   19.8340 O.3   738  PFE738     -0.2116
      2  C47       39.8110   77.9700   20.9970 C.3   738  PFE738      0.2469
      3  C48       41.2950   78.0450   21.2700 C.2   738  PFE738      0.1677
      4  S45       42.0210   76.6080   21.8090 S.3   738  PFE738     -0.0766
      5  C43       43.5290   77.4080   22.0080 C.3   738  PFE738      0.1231
      6  N44       42.1170   79.0800   21.1610 N.2   738  PFE738     -0.4008
      7  C40       43.3930   78.7200   21.5920 C.2   738  PFE738      0.1206
      8  C36       44.5130   79.6470   21.6190 C.ar  738  PFE738      0.0298
      9  C35       44.4220   80.9190   21.0140 C.ar  738  PFE738      0.0466
     10  C33       45.6920   79.2610   22.2580 C.ar  738  PFE738      0.0025
     11  C37       46.8080   80.1100   22.3350 C.ar  738  PFE738      0.0037
     12  C34       46.7020   81.3760   21.7670 C.ar  738  PFE738      0.0444
     13  C32       45.5300   81.7920   21.1130 C.ar  738  PFE738      0.1835
     14  N3        45.3810   83.0700   20.5520 N.pl3 738  PFE738     -0.0060
     15  C4        46.2970   83.9540   19.9510 C.2   738  PFE738      0.3643
     16  N2        47.5080   83.4660   19.6150 N.2   738  PFE738     -0.0327
     17  C7        48.3460   84.3380   19.0220 C.3   738  PFE738      0.3917
     18  C6        45.9080   85.3040   19.7570 C.2   738  PFE738      0.1027
     19  C9        44.6620   85.8660   20.1090 C.2   738  PFE738      0.0484
     20  C13       44.3970   87.2210   19.8450 C.2   738  PFE738      0.1687
     21  O15       43.2450   87.9080   20.1700 O.2   738  PFE738     -0.4727
     22  C20       42.3220   87.2900   21.1010 C.3   738  PFE738      0.2057
     23  C21       41.1250   88.2110   21.1440 C.3   738  PFE738      0.0512
     24  C8        46.8890   86.1030   19.1350 C.2   738  PFE738      0.0732
     25  N5        48.0710   85.6190   18.7680 N.2   738  PFE738     -0.2223
     26  C18       46.6140   87.4360   18.8920 C.3   738  PFE738      0.1127
     27  C16       45.3860   88.0000   19.2330 C.2   738  PFE738      0.1556
     28  O17       45.0380   89.3090   19.0150 O.2   738  PFE738     -0.4763
     29  C19       46.0610   90.1500   18.4910 C.3   738  PFE738      0.2052
     30  C26       45.5870   91.5700   18.7230 C.3   738  PFE738      0.0511
@<TRIPOS>BOND
     1    29    30    1
     2    29    28    1
     3    25    17    1
     4    25    24    2
     5    26    24    1
     6    26    27    1
     7    28    27    1
     8    17    16    1
     9    24    18    1
    10    27    20    2
    11    16    15    2
    12    18    15    1
    13    18    19    2
    14     1     2    1
    15    20    19    1
    16    20    21    1
    17    15    14    1
    18    21    22    1
    19    14    13    1
    20     2     3    1
    21     9    13   ar
    22     9     8   ar
    23    22    23    1
    24    13    12   ar
    25     6     3    2
    26     6     7    2
    27     3     4    1
    28     7     8    1
    29     7     5    1
    30     8    10   ar
    31    12    11   ar
    32     4     5    1
    33    10    11   ar
