@<TRIPOS>MOLECULE
1kz8_F6P_A_1.pdb
 16 16 0 0 0
SMALL
GASTEIGER

@<TRIPOS>ATOM
      1  O1        42.5980  107.4710   10.0900 O.3   736  F6P736     -0.2148
      2  C1        43.2360  108.2990   11.0100 C.3   736  F6P736      0.2434
      3  C2        42.1750  108.7700   12.0020 C.3   736  F6P736      0.2807
      4  O2        42.2240  107.9570   13.1660 O.3   736  F6P736     -0.1896
      5  C3        40.7210  108.7550   11.4860 C.3   736  F6P736      0.2409
      6  O3        40.0450  107.5350   11.7490 O.3   736  F6P736     -0.2149
      7  C4        40.0850  109.9350   12.2020 C.3   736  F6P736      0.2167
      8  O4        39.0470  110.5910   11.4710 O.3   736  F6P736     -0.2175
      9  C5        41.2700  110.8760   12.3990 C.3   736  F6P736      0.1808
     10  O5        42.4740  110.1180   12.2840 O.3   736  F6P736     -0.3254
     11  C6        41.2960  111.5430   13.7410 C.3   736  F6P736      0.1859
     12  O6        42.3850  112.4900   13.7020 O.3   736  F6P736     -0.2675
     13  P         42.4320  113.6520   14.8300 P.3   736  F6P736      0.5327
     14  O1P       43.4940  114.5960   14.3060 O.2   736  F6P736     -0.2224
     15  O2P       41.0450  114.2650   14.9910 O.3   736  F6P736     -0.1145
     16  O3P       42.9220  112.9420   16.0600 O.3   736  F6P736     -0.1145
@<TRIPOS>BOND
     1     1     2    1
     2     2     3    1
     3     8     7    1
     4     5     6    1
     5     5     3    1
     6     5     7    1
     7     3    10    1
     8     3     4    1
     9     7     9    1
    10    10     9    1
    11     9    11    1
    12    12    11    1
    13    12    13    1
    14    14    13    2
    15    13    15    1
    16    13    16    1
