@<TRIPOS>MOLECULE
1kz8_AMP_A_1.pdb
 23 25 0 0 0
SMALL
GASTEIGER

@<TRIPOS>ATOM
      1  P         35.0680   90.1130  -13.5650 P.3   737  AMP737      0.5327
      2  O1P       36.3400   90.8750  -13.4210 O.3   737  AMP737     -0.1145
      3  O2P       34.7350   89.1200  -12.3980 O.3   737  AMP737     -0.1145
      4  O3P       35.0100   89.3410  -14.8830 O.2   737  AMP737     -0.2224
      5  O5'       33.9770   91.1920  -13.6160 O.3   737  AMP737     -0.2675
      6  C5'       34.0530   92.3980  -14.4980 C.3   737  AMP737      0.1860
      7  C4'       33.1320   93.5650  -14.1320 C.3   737  AMP737      0.1823
      8  O4'       31.7210   93.2130  -14.0280 O.3   737  AMP737     -0.3135
      9  C3'       33.3470   94.1760  -12.7870 C.3   737  AMP737      0.2184
     10  O3'       34.6440   94.8290  -12.8190 O.3   737  AMP737     -0.2174
     11  C2'       32.1220   94.9640  -12.3900 C.3   737  AMP737      0.2570
     12  O2'       32.0480   96.0750  -13.2830 O.3   737  AMP737     -0.2130
     13  C1'       31.1490   93.8740  -12.8700 C.3   737  AMP737      0.3186
     14  N9        31.0630   92.7930  -11.8240 N.pl3 737  AMP737     -0.1439
     15  C8        31.6190   91.5440  -11.7990 C.3   737  AMP737      0.3377
     16  N7        31.2710   90.8960  -10.6790 N.2   737  AMP737     -0.2095
     17  C5        30.5020   91.7310   -9.9750 C.2   737  AMP737      0.2526
     18  C6        29.8000   91.6600   -8.6870 C.2   737  AMP737      0.4393
     19  N6        29.8320   90.5800   -7.8840 N.pl3 737  AMP737      0.2180
     20  N1        29.1320   92.7580   -8.3810 N.2   737  AMP737      0.0021
     21  C2        29.0660   93.8880   -9.1180 C.3   737  AMP737      0.5254
     22  N3        29.6630   94.0270  -10.2950 N.2   737  AMP737     -0.0055
     23  C4        30.3650   92.9640  -10.7000 C.2   737  AMP737      0.3518
@<TRIPOS>BOND
     1     4     1    2
     2     6     7    1
     3     6     5    1
     4     7     8    1
     5     7     9    1
     6     8    13    1
     7     5     1    1
     8     1     2    1
     9     1     3    1
    10    12    11    1
    11    13    11    1
    12    13    14    1
    13    10     9    1
    14     9    11    1
    15    14    15    1
    16    14    23    1
    17    15    16    1
    18    23    22    2
    19    23    17    1
    20    16    17    2
    21    22    21    1
    22    17    18    1
    23    21    20    1
    24    18    20    2
    25    18    19    1
