@<TRIPOS>MOLECULE
1kza_MAN_1_1.pdb
 12 12 0 0 0
SMALL
GASTEIGER

@<TRIPOS>ATOM
      1  C1         1.9350   46.5880   -0.0160 C.3   1001  MAN1001     0.3024
      2  C2         2.3350   45.4370    0.9080 C.3   1001  MAN1001     0.2434
      3  C3         3.0960   46.0010    2.1070 C.3   1001  MAN1001     0.2199
      4  C4         4.2990   46.7790    1.6170 C.3   1001  MAN1001     0.2144
      5  C5         3.8680   47.8810    0.6470 C.3   1001  MAN1001     0.1836
      6  C6         5.0950   48.5370    0.0390 C.3   1001  MAN1001     0.2142
      7  O1         1.1130   47.4630    0.6810 O.3   1001  MAN1001    -0.1869
      8  O2         3.1710   44.5380    0.2070 O.3   1001  MAN1001    -0.2148
      9  O3         3.5380   44.9380    2.9410 O.3   1001  MAN1001    -0.2174
     10  O4         4.9770   47.3400    2.7210 O.3   1001  MAN1001    -0.2176
     11  O5         3.1040   47.3130   -0.4460 O.3   1001  MAN1001    -0.3236
     12  O6         4.7760   49.7850   -0.5610 O.3   1001  MAN1001    -0.2176
@<TRIPOS>BOND
     1    12     6    1
     2    11     1    1
     3    11     5    1
     4     1     7    1
     5     1     2    1
     6     6     5    1
     7     8     2    1
     8     5     4    1
     9     2     3    1
    10     4     3    1
    11     4    10    1
    12     3     9    1
