@<TRIPOS>MOLECULE
1kzb_MAN_1_1.pdb
 12 12 0 0 0
SMALL
GASTEIGER

@<TRIPOS>ATOM
      1  C1         2.0780   46.4760    0.2390 C.3   1501  MAN1501     0.3024
      2  C2         2.4610   45.3640    1.2190 C.3   1501  MAN1501     0.2434
      3  C3         3.1270   45.9700    2.4660 C.3   1501  MAN1501     0.2199
      4  C4         4.3150   46.8260    2.0440 C.3   1501  MAN1501     0.2144
      5  C5         3.8610   47.8940    1.0460 C.3   1501  MAN1501     0.1836
      6  C6         5.0440   48.6900    0.5310 C.3   1501  MAN1501     0.2142
      7  O1         1.1300   47.3050    0.8170 O.3   1501  MAN1501    -0.1869
      8  O2         3.3570   44.4690    0.5790 O.3   1501  MAN1501    -0.2148
      9  O3         3.5790   44.9340    3.3300 O.3   1501  MAN1501    -0.2174
     10  O4         4.8920   47.4390    3.1840 O.3   1501  MAN1501    -0.2176
     11  O5         3.2350   47.2690   -0.1020 O.3   1501  MAN1501    -0.3236
     12  O6         4.6330   49.6990   -0.3790 O.3   1501  MAN1501    -0.2176
@<TRIPOS>BOND
     1    12     6    1
     2    11     1    1
     3    11     5    1
     4     1     7    1
     5     1     2    1
     6     6     5    1
     7     8     2    1
     8     5     4    1
     9     2     3    1
    10     4     3    1
    11     4    10    1
    12     3     9    1
