@<TRIPOS>MOLECULE
1kzc_MAN_1_1.pdb
 12 12 0 0 0
SMALL
GASTEIGER

@<TRIPOS>ATOM
      1  C1         1.9410   46.4930    0.0470 C.3   1001  MAN1001     0.3024
      2  C2         2.3940   45.3710    0.9740 C.3   1001  MAN1001     0.2434
      3  C3         3.1590   45.9720    2.1590 C.3   1001  MAN1001     0.2199
      4  C4         4.3150   46.8310    1.6600 C.3   1001  MAN1001     0.2144
      5  C5         3.7980   47.8890    0.6910 C.3   1001  MAN1001     0.1836
      6  C6         4.9480   48.6760    0.0770 C.3   1001  MAN1001     0.2142
      7  O1         1.0810   47.3360    0.7310 O.3   1001  MAN1001    -0.1869
      8  O2         3.2330   44.4810    0.2590 O.3   1001  MAN1001    -0.2148
      9  O3         3.6630   44.9400    2.9960 O.3   1001  MAN1001    -0.2174
     10  O4         4.9490   47.4610    2.7600 O.3   1001  MAN1001    -0.2176
     11  O5         3.0750   47.2600   -0.3950 O.3   1001  MAN1001    -0.3236
     12  O6         4.4870   49.8650   -0.5450 O.3   1001  MAN1001    -0.2176
@<TRIPOS>BOND
     1    12     6    1
     2    11     1    1
     3    11     5    1
     4     1     7    1
     5     1     2    1
     6     6     5    1
     7     8     2    1
     8     5     4    1
     9     2     3    1
    10     4     3    1
    11     4    10    1
    12     3     9    1
