@<TRIPOS>MOLECULE
1kzd_NAG_1_1.pdb
 15 15 0 0 0
SMALL
GASTEIGER

@<TRIPOS>ATOM
      1  C1         2.4980   46.5850   -0.0860 C.3   1001  NAG1001     0.2917
      2  C2         2.8010   45.4540    0.9000 C.3   1001  NAG1001     0.1871
      3  C3         3.3580   46.0730    2.1870 C.3   1001  NAG1001     0.2095
      4  C4         4.6040   46.8910    1.8500 C.3   1001  NAG1001     0.2136
      5  C5         4.2650   47.9450    0.7930 C.3   1001  NAG1001     0.1835
      6  C6         5.4830   48.7240    0.3360 C.3   1001  NAG1001     0.2142
      7  C7         1.4030   43.5080    0.6090 C.2   1001  NAG1001     0.2421
      8  C8         0.2740   42.6560    1.1690 C.3   1001  NAG1001     0.0964
      9  N2         1.5920   44.6990    1.1720 N.am  1001  NAG1001    -0.1991
     10  O1         2.0130   46.0590   -1.2720 O.3   1001  NAG1001    -0.1879
     11  O3         3.6870   45.0570    3.1220 O.3   1001  NAG1001    -0.2183
     12  O4         5.0880   47.5250    3.0170 O.3   1001  NAG1001    -0.2176
     13  O5         3.6990   47.3140   -0.3790 O.3   1001  NAG1001    -0.3242
     14  O6         5.1320   49.7090   -0.6250 O.3   1001  NAG1001    -0.2176
     15  O7         2.0960   43.0820   -0.3230 O.2   1001  NAG1001    -0.2733
@<TRIPOS>BOND
     1    10     1    1
     2    14     6    1
     3    13     1    1
     4    13     5    1
     5    15     7    2
     6     1     2    1
     7     6     5    1
     8     7     8    1
     9     7     9   am
    10     5     4    1
    11     2     9    1
    12     2     3    1
    13     4     3    1
    14     4    12    1
    15     3    11    1
