@<TRIPOS>MOLECULE
1kze_MAN_1_1.pdb
 12 12 0 0 0
SMALL
GASTEIGER

@<TRIPOS>ATOM
      1  C1         1.9810   46.3380    0.1140 C.3   1001  MAN1001     0.3024
      2  C2         2.3730   45.2510    1.1160 C.3   1001  MAN1001     0.2434
      3  C3         3.0440   45.9110    2.3320 C.3   1001  MAN1001     0.2199
      4  C4         4.2410   46.7250    1.8680 C.3   1001  MAN1001     0.2144
      5  C5         3.8140   47.7440    0.8090 C.3   1001  MAN1001     0.1836
      6  C6         5.0310   48.4590    0.2420 C.3   1001  MAN1001     0.2142
      7  O1         1.0930   47.2200    0.7170 O.3   1001  MAN1001    -0.1869
      8  O2         3.2800   44.3590    0.4920 O.3   1001  MAN1001    -0.2148
      9  O3         3.4810   44.9210    3.2590 O.3   1001  MAN1001    -0.2174
     10  O4         4.8240   47.3910    2.9740 O.3   1001  MAN1001    -0.2176
     11  O5         3.1520   47.0740   -0.2930 O.3   1001  MAN1001    -0.3236
     12  O6         4.6610   49.4550   -0.6990 O.3   1001  MAN1001    -0.2176
@<TRIPOS>BOND
     1    12     6    1
     2    11     1    1
     3    11     5    1
     4     1     7    1
     5     1     2    1
     6     6     5    1
     7     8     2    1
     8     5     4    1
     9     2     3    1
    10     4     3    1
    11     4    10    1
    12     3     9    1
