@<TRIPOS>MOLECULE
1kzi_UMP_A_1.pdb
 20 21 0 0 0
SMALL
GASTEIGER

@<TRIPOS>ATOM
      1  N1        99.5150    4.9200    2.1970 N.am  302  UMP302     -0.2018
      2  C2        99.0750    5.6660    3.3080 C.1   302  UMP302      0.2802
      3  N3        99.4830    7.0110    3.3830 N.2   302  UMP302     -0.2497
      4  C4       100.2330    7.6140    2.3940 C.1   302  UMP302      0.1941
      5  C5       100.5500    6.9260    1.0380 C.3   302  UMP302      0.1579
      6  C6        99.8080    5.5500    0.8300 C.3   302  UMP302      0.1249
      7  O2        98.4000    5.1870    4.2290 O.2   302  UMP302     -0.1922
      8  O4       100.7710    8.9160    2.5030 O.2   302  UMP302     -0.2133
      9  C1'       99.3250    3.4270    2.1720 C.3   302  UMP302      0.2048
     10  C2'       97.8960    2.9590    1.8290 C.3   302  UMP302      0.0871
     11  C3'       98.1750    1.5390    1.3090 C.3   302  UMP302      0.1857
     12  C4'       99.4780    1.7670    0.5020 C.3   302  UMP302      0.1774
     13  O3'       98.4880    0.6640    2.4230 O.3   302  UMP302     -0.2203
     14  O4'      100.1590    2.8790    1.1390 O.3   302  UMP302     -0.3342
     15  C5'       99.1240    2.1340   -0.9580 C.3   302  UMP302      0.1858
     16  O5'       98.6290    0.9630   -1.6450 O.3   302  UMP302     -0.2675
     17  P         97.3410    0.9680   -2.6620 P.3   302  UMP302      0.5327
     18  OP1       97.2200   -0.4150   -3.1990 O.3   302  UMP302     -0.1145
     19  OP2       96.1640    1.3590   -1.8100 O.3   302  UMP302     -0.1145
     20  OP3       97.6470    1.9520   -3.7760 O.2   302  UMP302     -0.2224
@<TRIPOS>BOND
     1    20    17    2
     2    18    17    1
     3    17    19    1
     4    17    16    1
     5    16    15    1
     6    15    12    1
     7    12    14    1
     8    12    11    1
     9     6     5    1
    10     6     1    1
    11     5     4    1
    12    14     9    1
    13    11    10    1
    14    11    13    1
    15    10     9    1
    16     9     1    1
    17     1     2   am
    18     4     8    2
    19     4     3    2
    20     2     3    2
    21     2     7    2
