@<TRIPOS>MOLECULE
1kzi_THG_A_1.pdb
 32 34 0 0 0
SMALL
GASTEIGER

@<TRIPOS>ATOM
      1  N3       102.1700    2.6830    3.6430 N.2   303  THG303     -0.2474
      2  C2       102.6590    1.8810    2.5960 C.1   303  THG303      0.2608
      3  N1       103.1450    2.3990    1.4700 N.2   303  THG303     -0.2683
      4  C8A      103.1600    3.7390    1.3420 C.1   303  THG303      0.1270
      5  C4A      102.7220    4.5830    2.3560 C.2   303  THG303      0.2463
      6  C4       102.1400    4.0760    3.5350 C.1   303  THG303      0.2441
      7  N8       103.6380    4.2620    0.1350 N.2   303  THG303     -0.2054
      8  C7       103.5950    5.7260   -0.1040 C.3   303  THG303      0.1634
      9  C6       103.7250    6.5360    1.2000 C.3   303  THG303      0.1514
     10  N5       102.8320    5.9930    2.2360 N.2   303  THG303     -0.2469
     11  C9       105.1100    6.4300    1.7940 C.3   303  THG303      0.1385
     12  N10      104.9970    6.9840    3.1670 N.pl3 303  THG303     -0.2355
     13  C4'      105.5030    6.2260    4.2560 C.ar  303  THG303      0.0654
     14  C3'      105.4390    6.7750    5.5610 C.ar  303  THG303      0.0162
     15  C2'      106.0720    6.1110    6.6190 C.ar  303  THG303      0.0059
     16  C1'      106.7570    4.8980    6.3600 C.ar  303  THG303      0.0551
     17  C6'      106.7060    4.2950    5.0860 C.ar  303  THG303      0.0059
     18  C5'      106.0790    4.9540    4.0320 C.ar  303  THG303      0.0162
     19  C11      107.5510    4.2280    7.3960 C.2   303  THG303      0.2652
     20  N        107.5610    4.8130    8.6430 N.am  303  THG303     -0.1918
     21  CA       108.3860    4.2320    9.7180 C.3   303  THG303      0.1986
     22  C        107.8650    4.6470   11.0770 C.2   303  THG303      0.3842
     23  OX2      107.0280    5.5550   11.1470 O.co2 303  THG303     -0.2437
     24  OX1      108.3440    4.0770   12.0630 O.co2 303  THG303     -0.2437
     25  CB       109.8640    4.6440    9.5340 C.3   303  THG303      0.0451
     26  CG       110.0450    6.1750    9.5770 C.3   303  THG303      0.1164
     27  CD       111.5060    6.5580    9.4390 C.2   303  THG303      0.3649
     28  OE1      112.0560    6.4260    8.3350 O.co2 303  THG303     -0.2457
     29  OE2      112.0710    6.9900   10.4570 O.co2 303  THG303     -0.2457
     30  O11      108.2180    3.2030    7.1690 O.2   303  THG303     -0.2684
     31  O4       101.6330    4.7480    4.4520 O.2   303  THG303     -0.2063
     32  N2       102.5960    0.5070    2.8060 N.pl3 303  THG303     -0.0220
@<TRIPOS>BOND
     1     8     7    1
     2     8     9    1
     3     7     4    2
     4     9    11    1
     5     9    10    1
     6     4     3    2
     7     4     5    1
     8     3     2    2
     9    11    12    1
    10    10     5    2
    11     5     6    1
    12     2    32    1
    13     2     1    2
    14    12    13    1
    15     6     1    2
    16     6    31    2
    17    18    13   ar
    18    18    17   ar
    19    13    14   ar
    20    17    16   ar
    21    14    15   ar
    22    16    15   ar
    23    16    19    1
    24    30    19    2
    25    19    20   am
    26    28    27   ar
    27    20    21    1
    28    27    26    1
    29    27    29   ar
    30    25    26    1
    31    25    21    1
    32    21    22    1
    33    22    23   ar
    34    22    24   ar
