@<TRIPOS>MOLECULE
1kzj_CB3_A_1.pdb
 35 37 0 0 0
SMALL
GASTEIGER

@<TRIPOS>ATOM
      1  N1        17.7460   26.4160  -13.2720 N.2   301  CB3301     -0.3283
      2  C2        18.0110   27.7630  -13.4670 C.1   301  CB3301      0.2512
      3  NA2       18.7890   28.2310  -14.5180 N.pl3 301  CB3301     -0.0226
      4  N3        17.4480   28.6880  -12.5710 N.2   301  CB3301     -0.2537
      5  C4        16.9040   28.2960  -11.3210 C.1   301  CB3301      0.2018
      6  O4        16.7570   29.1690  -10.4330 O.2   301  CB3301     -0.2127
      7  C4A       16.5400   26.8760  -11.1870 C.3   301  CB3301      0.1935
      8  C5        15.7930   26.4130  -10.0700 C.2   301  CB3301     -0.0044
      9  C6        15.3930   25.0740  -10.0390 C.2   301  CB3301     -0.0051
     10  C7        15.8240   24.1730  -11.0430 C.2   301  CB3301     -0.0005
     11  C8        16.6140   24.6110  -12.1020 C.2   301  CB3301      0.0298
     12  C8A       16.9520   25.9650  -12.1770 C.2   301  CB3301      0.1431
     13  C9        14.3870   24.5480   -9.0760 C.3   301  CB3301      0.1182
     14  N10       13.2150   25.4580   -8.8760 N.pl3 301  CB3301     -0.2924
     15  C11       11.2020   27.9620  -11.5830 C.ar  301  CB3301      0.0551
     16  C12       12.0010   26.8940  -12.0700 C.ar  301  CB3301      0.0058
     17  C13       12.6540   26.0580  -11.1790 C.ar  301  CB3301      0.0147
     18  C14       12.5250   26.2840   -9.7990 C.ar  301  CB3301      0.0488
     19  C15       11.7390   27.3520   -9.3200 C.ar  301  CB3301      0.0147
     20  C16       11.0770   28.1930  -10.2070 C.ar  301  CB3301      0.0058
     21  C         10.5130   28.8280  -12.5350 C.2   301  CB3301      0.2652
     22  O         10.8710   28.8990  -13.7310 O.2   301  CB3301     -0.2684
     23  N          9.5480   29.6750  -12.0460 N.am  301  CB3301     -0.1918
     24  CA         8.9950   30.6600  -12.9970 C.3   301  CB3301      0.1986
     25  CB         7.6610   30.1690  -13.5550 C.3   301  CB3301      0.0451
     26  CG         6.6670   30.0270  -12.4080 C.3   301  CB3301      0.1164
     27  CD         5.4030   29.3210  -12.8260 C.2   301  CB3301      0.3649
     28  OE1        4.3470   29.8530  -12.4600 O.co2 301  CB3301     -0.2457
     29  OE2        5.4900   28.2400  -13.4350 O.co2 301  CB3301     -0.2457
     30  CT         8.8910   31.9730  -12.3130 C.2   301  CB3301      0.3842
     31  O1         8.6260   32.9880  -12.9780 O.co2 301  CB3301     -0.2437
     32  O2         9.1360   31.9390  -11.1050 O.co2 301  CB3301     -0.2437
     33  CP1       13.0180   25.6880   -7.4290 C.3   301  CB3301      0.1697
     34  CP2       13.9150   26.8300   -7.1340 C.1   301  CB3301     -0.0557
     35  CP3       14.6920   27.7400   -6.9390 C.1   301  CB3301     -0.0124
@<TRIPOS>BOND
     1     3     2    1
     2    22    21    2
     3    25    24    1
     4    25    26    1
     5     2     1    2
     6     2     4    2
     7    29    27   ar
     8     1    12    2
     9    24    30    1
    10    24    23    1
    11    31    30   ar
    12    27    28   ar
    13    27    26    1
    14     4     5    2
    15    21    23   am
    16    21    15    1
    17    30    32   ar
    18    12    11    1
    19    12     7    1
    20    11    10    2
    21    16    15   ar
    22    16    17   ar
    23    15    20   ar
    24     5     7    1
    25     5     6    2
    26     7     8    1
    27    17    18   ar
    28    10     9    1
    29    20    19   ar
    30     8     9    2
    31     9    13    1
    32    18    19   ar
    33    18    14    1
    34    13    14    1
    35    14    33    1
    36    33    34    1
    37    34    35    3
