@<TRIPOS>MOLECULE
1kzj_UMP_A_1.pdb
 20 21 0 0 0
SMALL
GASTEIGER

@<TRIPOS>ATOM
      1  N1        19.9160   27.4010   -8.8960 N.am  300  UMP300     -0.2018
      2  C2        19.3230   28.3370   -8.0830 C.1   300  UMP300      0.2802
      3  N3        18.6980   27.7970   -6.9510 N.2   300  UMP300     -0.2497
      4  C4        18.3300   26.4600   -6.8810 C.1   300  UMP300      0.1941
      5  C5        18.4580   25.5480   -8.0850 C.3   300  UMP300      0.1579
      6  C6        19.7580   25.9120   -8.7990 C.3   300  UMP300      0.1249
      7  O2        19.7170   29.5070   -7.9740 O.2   300  UMP300     -0.1922
      8  O4        17.8830   25.7860   -5.6900 O.2   300  UMP300     -0.2133
      9  C1'       20.2620   27.8880  -10.2370 C.3   300  UMP300      0.2048
     10  C2'       21.8030   28.1040  -10.3160 C.3   300  UMP300      0.0871
     11  C3'       22.0790   27.9020  -11.8280 C.3   300  UMP300      0.1857
     12  C4'       21.1240   26.7120  -12.0850 C.3   300  UMP300      0.1774
     13  O3'       21.6520   29.0460  -12.5990 O.3   300  UMP300     -0.2203
     14  O4'       19.9590   26.8640  -11.2050 O.3   300  UMP300     -0.3342
     15  C5'       21.8750   25.4560  -11.6920 C.3   300  UMP300      0.1858
     16  O5'       22.8130   25.3180  -12.7000 O.3   300  UMP300     -0.2675
     17  P         24.3020   24.8060  -12.4280 P.3   300  UMP300      0.5327
     18  OP1       25.0060   24.7330  -13.7940 O.2   300  UMP300     -0.2224
     19  OP2       24.9640   25.8280  -11.5720 O.3   300  UMP300     -0.1145
     20  OP3       24.1530   23.4540  -11.8030 O.3   300  UMP300     -0.1145
@<TRIPOS>BOND
     1    18    17    2
     2    16    17    1
     3    16    15    1
     4    13    11    1
     5    17    20    1
     6    17    19    1
     7    12    11    1
     8    12    15    1
     9    12    14    1
    10    11    10    1
    11    14     9    1
    12    10     9    1
    13     9     1    1
    14     1     6    1
    15     1     2   am
    16     6     5    1
    17     5     4    1
    18     2     7    2
    19     2     3    2
    20     3     4    2
    21     4     8    2
