@<TRIPOS>MOLECULE
1kzk_JE2_A_1.pdb
 41 44 0 0 0
SMALL
GASTEIGER

@<TRIPOS>ATOM
      1  C3        23.6870    3.4480   20.9470 C.ar  701  JE2701      0.0417
      2  C4        22.3390    3.4320   20.7260 C.ar  701  JE2701      0.0034
      3  C5        21.7270    2.3540   20.0240 C.ar  701  JE2701      0.0045
      4  C6        22.5330    1.3470   19.4330 C.ar  701  JE2701      0.0542
      5  C7        23.9500    1.3580   19.6050 C.ar  701  JE2701      0.0215
      6  C1        24.5000    2.3990   20.4240 C.ar  701  JE2701      0.1919
      7  C8        24.8990    0.3740   18.9300 C.3   701  JE2701      0.0345
      8  C9        21.8480    0.2670   18.6660 C.2   701  JE2701      0.2646
      9  O2        25.8560    2.4460   20.5620 O.3   701  JE2701     -0.2869
     10  O10       22.0690   -0.9900   18.9430 O.2   701  JE2701     -0.2684
     11  C22       20.3600   -1.7850   14.9420 C.2   701  JE2701      0.2589
     12  N11       20.9700    0.6590   17.7570 N.am  701  JE2701     -0.2000
     13  O23       19.2990   -1.8640   14.2880 O.2   701  JE2701     -0.2720
     14  C20       20.8680   -0.5040   15.6030 C.3   701  JE2701      0.2475
     15  C14       18.1480    0.6370   18.2120 C.ar  701  JE2701     -0.0204
     16  C13       18.6860    0.1940   16.8740 C.3   701  JE2701      0.0511
     17  C17       17.3240    1.4600   20.8120 C.ar  701  JE2701     -0.0000
     18  C12       20.1730   -0.3620   16.9800 C.3   701  JE2701      0.1392
     19  O21       20.5210    0.5820   14.7460 O.3   701  JE2701     -0.2114
     20  C15       18.0940    2.0320   18.5210 C.ar  701  JE2701     -0.0042
     21  C19       17.7970   -0.2950   19.2130 C.ar  701  JE2701     -0.0042
     22  C16       17.6770    2.4080   19.8380 C.ar  701  JE2701     -0.0003
     23  C18       17.3750    0.1040   20.4720 C.ar  701  JE2701     -0.0003
     24  C31       19.4740   -4.7460   15.4830 C.2   701  JE2701      0.2606
     25  N24       21.1050   -2.9230   15.1300 N.am  701  JE2701     -0.2602
     26  O32       19.3600   -4.5020   16.7210 O.2   701  JE2701     -0.2715
     27  C30       20.6350   -4.2260   14.6100 C.3   701  JE2701      0.1633
     28  C27       21.8980   -5.1370   14.5960 C.3   701  JE2701      0.0661
     29  C25       22.3900   -2.9470   15.9220 C.3   701  JE2701      0.1527
     30  C28       22.7450   -4.7600   13.3790 C.3   701  JE2701      0.0131
     31  C29       21.5620   -6.6380   14.5150 C.3   701  JE2701      0.0131
     32  S26       22.7750   -4.7050   16.1440 S.3   701  JE2701     -0.1182
     33  N33       18.5680   -5.5610   14.7910 N.am  701  JE2701     -0.1992
     34  C34       17.4260   -6.2060   15.4830 C.3   701  JE2701      0.1412
     35  C35       16.1360   -5.9810   14.6820 C.ar  701  JE2701     -0.0045
     36  C36       15.4800   -4.7310   14.6670 C.ar  701  JE2701     -0.0241
     37  C37       14.2670   -4.6240   13.9790 C.ar  701  JE2701     -0.0045
     38  C38       13.7360   -5.7470   13.2960 C.ar  701  JE2701     -0.0003
     39  C39       14.3650   -6.9590   13.3090 C.ar  701  JE2701     -0.0003
     40  C40       15.5770   -7.0730   14.0280 C.ar  701  JE2701     -0.0029
     41  C41       16.0130   -3.5750   15.4200 C.3   701  JE2701      0.0308
@<TRIPOS>BOND
     1    38    39   ar
     2    38    37   ar
     3    39    40   ar
     4    30    28    1
     5    37    36   ar
     6    40    35   ar
     7    13    11    2
     8    31    28    1
     9    28    27    1
    10    28    32    1
    11    27    25    1
    12    27    24    1
    13    36    35   ar
    14    36    41    1
    15    35    34    1
    16    19    14    1
    17    33    34    1
    18    33    24   am
    19    11    25   am
    20    11    14    1
    21    25    29    1
    22    24    26    2
    23    14    18    1
    24    29    32    1
    25    16    18    1
    26    16    15    1
    27    18    12    1
    28    12     8   am
    29    15    20   ar
    30    15    21   ar
    31    20    22   ar
    32     8    10    2
    33     8     4    1
    34     7     5    1
    35    21    23   ar
    36     4     5   ar
    37     4     3   ar
    38     5     6   ar
    39    22    17   ar
    40     3     2   ar
    41     6     9    1
    42     6     1   ar
    43    23    17   ar
    44     2     1   ar
