@<TRIPOS>MOLECULE
1kzl_CRM_A_1.pdb
 27 28 0 0 0
SMALL
GASTEIGER

@<TRIPOS>ATOM
      1  C2        44.3330   21.8970    8.4990 C.1   501  CRM501      0.3669
      2  O15       45.4170   22.1490    8.0110 O.2   501  CRM501     -0.1744
      3  N3        43.8630   22.6220    9.5450 N.2   501  CRM501     -0.2886
      4  C4        42.6590   22.4540   10.1880 C.2   501  CRM501      0.2471
      5  N10       42.2480   23.2020   11.2180 N.am  501  CRM501     -0.2224
      6  C17       43.0880   24.2910   11.7780 C.3   501  CRM501      0.1366
      7  C18       44.3590   23.9840   12.6310 C.3   501  CRM501      0.2049
      8  C20       45.0670   25.2730   13.1590 C.3   501  CRM501      0.2166
      9  C22       46.3740   24.9590   13.9570 C.3   501  CRM501      0.2175
     10  C25       47.0960   26.2230   14.5030 C.3   501  CRM501      0.2175
     11  O26       46.2130   26.9600   15.3590 O.3   501  CRM501     -0.2175
     12  O23       46.0420   24.1280   15.0880 O.3   501  CRM501     -0.2175
     13  O21       45.3820   26.0970   12.0230 O.3   501  CRM501     -0.2175
     14  O19       43.9350   23.1680   13.7480 O.3   501  CRM501     -0.2185
     15  C9        41.0480   22.9820   11.7910 C.2   501  CRM501      0.2802
     16  O16       40.6180   23.6440   12.7390 O.2   501  CRM501     -0.2671
     17  C8        40.1350   21.9010   11.3010 C.2   501  CRM501      0.1642
     18  C11       38.7670   21.5520   11.8170 C.3   501  CRM501      0.0756
     19  C12       37.6610   22.4180   11.1470 C.3   501  CRM501      0.1216
     20  C13       36.3130   22.4000   11.8000 C.2   501  CRM501      0.3653
     21  O28       36.1900   22.9950   12.9070 O.co2 501  CRM501     -0.2456
     22  O27       35.3660   21.8060   11.2290 O.co2 501  CRM501     -0.2456
     23  N7        40.5790   21.1950   10.3080 N.2   501  CRM501     -0.3851
     24  C5        41.8780   21.4420    9.6960 C.2   501  CRM501      0.2705
     25  C6        42.3290   20.5990    8.5610 C.1   501  CRM501      0.2513
     26  O14       41.6030   19.6990    8.1600 O.2   501  CRM501     -0.2057
     27  N1        43.5570   20.8780    8.0100 N.2   501  CRM501     -0.2300
@<TRIPOS>BOND
     1    27     1    2
     2    27    25    2
     3     2     1    2
     4    26    25    2
     5     1     3    2
     6    25    24    1
     7     3     4    2
     8    24     4    1
     9    24    23    2
    10     4     5    1
    11    23    17    2
    12    19    20    1
    13    19    18    1
    14     5     6    1
    15     5    15   am
    16    22    20   ar
    17    17    15    1
    18    17    18    1
    19     6     7    1
    20    15    16    2
    21    20    21   ar
    22    13     8    1
    23     7     8    1
    24     7    14    1
    25     8     9    1
    26     9    10    1
    27     9    12    1
    28    10    11    1
