@<TRIPOS>MOLECULE
1kzm_HEM_A_1.pdb
 43 50 0 0 0
SMALL
GASTEIGER

@<TRIPOS>ATOM
      1  CHA        0.5580    3.6190   11.6920 C.2   350  HEM350      0.0000
      2  CHB        2.8890    0.6990    8.6120 C.2   350  HEM350      0.0000
      3  CHC        6.8970    1.2230   11.2080 C.2   350  HEM350      0.0000
      4  CHD        4.5510    4.0250   14.3350 C.2   350  HEM350      0.0000
      5  C1A        0.8630    2.8480   10.5730 C.ar  350  HEM350      0.0000
      6  C2A       -0.0920    2.4550    9.5420 C.ar  350  HEM350      0.0000
      7  C3A        0.5390    1.6040    8.7190 C.ar  350  HEM350      0.0000
      8  C4A        1.8860    1.4560    9.2280 C.ar  350  HEM350      0.0000
      9  CMA       -0.0960    0.9230    7.5140 C.3   350  HEM350      0.0000
     10  CAA       -1.5600    2.8170    9.3920 C.3   350  HEM350      0.0000
     11  CBA       -1.7540    4.1720    8.7460 C.3   350  HEM350      0.0000
     12  CGA       -3.2200    4.5030    8.5060 C.2   350  HEM350      0.0000
     13  O1A       -3.5120    5.6550    8.1190 O.co2 350  HEM350      0.0000
     14  O2A       -4.0770    3.6120    8.7000 O.co2 350  HEM350      0.0000
     15  C1B        4.1950    0.5470    9.0630 C.2   350  HEM350      0.0000
     16  C2B        5.1650   -0.3530    8.4950 C.2   350  HEM350      0.0000
     17  C3B        6.2880   -0.2700    9.2380 C.2   350  HEM350      0.0000
     18  C4B        5.9980    0.7140   10.2770 C.2   350  HEM350      0.0000
     19  CMB        4.9260   -1.3250    7.3400 C.3   350  HEM350      0.0000
     20  CAB        7.4510   -1.0120    8.9960 C.3   350  HEM350      0.0000
     21  CBB        8.2950   -1.6390    9.9930 C.3   350  HEM350      0.0000
     22  C1C        6.6440    2.1530   12.2080 C.ar  350  HEM350      0.0000
     23  C2C        7.6590    2.7280   13.0810 C.ar  350  HEM350      0.0000
     24  C3C        6.9940    3.5120   14.0060 C.ar  350  HEM350      0.0000
     25  C4C        5.5830    3.4200   13.6410 C.ar  350  HEM350      0.0000
     26  CMC        9.1570    2.5260   12.9060 C.3   350  HEM350      0.0000
     27  CAC        7.4850    4.2710   15.0780 C.3   350  HEM350      0.0000
     28  CBC        8.6480    3.9500   15.8790 C.3   350  HEM350      0.0000
     29  C1D        3.2150    4.0370   13.9810 C.2   350  HEM350      0.0000
     30  C2D        2.1240    4.5470   14.7970 C.2   350  HEM350      0.0000
     31  C3D        0.9930    4.4280   14.0570 C.2   350  HEM350      0.0000
     32  C4D        1.3970    3.8520   12.7780 C.2   350  HEM350      0.0000
     33  CMD        2.2050    5.0550   16.2300 C.3   350  HEM350      0.0000
     34  CAD       -0.4120    4.8060   14.5020 C.3   350  HEM350      0.0000
     35  CBD       -0.6870    6.2550   14.1190 C.3   350  HEM350      0.0000
     36  CGD       -2.0760    6.7200   14.5190 C.2   350  HEM350      0.0000
     37  O1D       -2.4460    7.8510   14.1430 O.co2 350  HEM350      0.0000
     38  O2D       -2.7970    5.9650   15.2100 O.co2 350  HEM350      0.0000
     39  NA         2.0690    2.1930   10.3970 N.ar  350  HEM350      0.0000
     40  NB         4.6820    1.1440   10.2100 N.2   350  HEM350      0.0000
     41  NC         5.3850    2.6100   12.5200 N.ar  350  HEM350      0.0000
     42  ND         2.7380    3.4840   12.8000 N.2   350  HEM350      0.0000
     43 FE          3.6750    2.1870   11.5980 Fe    350  HEM350      0.0000
@<TRIPOS>BOND
     1    19    16    1
     2     9     7    1
     3    13    12   ar
     4    16    15    1
     5    16    17    2
     6    12    14   ar
     7    12    11    1
     8     2    15    1
     9     2     8    2
    10     7     8   ar
    11     7     6   ar
    12    11    10    1
    13    20    17    1
    14    20    21    1
    15    15    40    2
    16     8    39   ar
    17    17    18    1
    18    10     6    1
    19     6     5   ar
    20    40    18    1
    21    40    43    1
    22    18     3    2
    23    39     5   ar
    24    39    43    1
    25     5     1    2
    26     3    22    1
    27    43    41    1
    28    43    42    1
    29     1    32    1
    30    22    41   ar
    31    22    23   ar
    32    41    25   ar
    33    32    42    2
    34    32    31    1
    35    42    29    1
    36    26    23    1
    37    23    24   ar
    38    25    24   ar
    39    25     4    1
    40    29     4    2
    41    29    30    1
    42    24    27    1
    43    31    34    1
    44    31    30    2
    45    35    34    1
    46    35    36    1
    47    37    36   ar
    48    36    38   ar
    49    30    33    1
    50    27    28    1
