@<TRIPOS>MOLECULE
1kzn_CBN_A_1.pdb
 49 53 0 0 0
SMALL
GASTEIGER

@<TRIPOS>ATOM
      1  C7        18.8020   24.1050   36.3490 C.3     1  CBN1        0.1743
      2  C8        18.8670   28.0610   34.4960 C.3     1  CBN1        0.0324
      3  C12       19.7800   26.2630   33.1940 C.3     1  CBN1        0.0324
      4  C13       20.0830   26.0850   35.7500 C.3     1  CBN1        0.1826
      5  C21       20.5530   26.8640   37.0010 C.3     1  CBN1        0.2348
      6  C22       21.9800   27.3980   36.7800 C.3     1  CBN1        0.2636
      7  C23       21.9390   28.2690   35.4890 C.3     1  CBN1        0.3228
      8  C24       20.0060   27.0280   34.4950 C.3     1  CBN1        0.1248
      9 CL1        19.2400   31.4040   36.9200 Cl      1  CBN1       -0.0759
     10  C27       21.0800   30.5270   34.9930 C.ar    1  CBN1        0.1548
     11  C28       20.1180   31.5210   35.4180 C.ar    1  CBN1        0.1262
     12  C4        19.8990   32.6690   34.5810 C.ar    1  CBN1        0.1653
     13  C11       18.9710   34.9870   34.3350 C.ar    1  CBN1        0.3645
     14  C31       19.6540   35.1360   33.0180 C.ar    1  CBN1        0.1882
     15  C9        20.4450   34.1120   32.5490 C.ar    1  CBN1        0.2201
     16  C32       20.6270   32.8390   33.3180 C.ar    1  CBN1        0.0762
     17  C33       21.5740   31.8190   32.8900 C.ar    1  CBN1        0.0095
     18  C35       21.8070   30.6760   33.7110 C.ar    1  CBN1        0.0382
     19  C14       18.0840   36.6760   31.8520 C.2     1  CBN1        0.2693
     20  C15       17.0000   35.7420   31.4970 C.ar    1  CBN1        0.0553
     21  C16       17.2920   34.5070   30.7560 C.ar    1  CBN1        0.0038
     22  C17       16.2120   33.7010   30.2520 C.ar    1  CBN1        0.0212
     23  C18       14.8450   34.1450   30.4890 C.ar    1  CBN1        0.1920
     24  C19       14.5440   35.3510   31.2450 C.ar    1  CBN1        0.0419
     25  C20       15.6200   36.1400   31.7660 C.ar    1  CBN1        0.0078
     26  C25       16.5010   32.4120   29.5170 C.3     1  CBN1        0.0549
     27  C26       16.2960   31.1300   30.3750 C.2     1  CBN1       -0.0298
     28  C29       17.1960   30.2790   30.8980 C.2     1  CBN1       -0.0475
     29  C30       16.7210   29.1560   31.7160 C.3     1  CBN1        0.0260
     30  C34       18.6210   30.5360   30.7380 C.3     1  CBN1        0.0260
     31  N1        19.3180   36.2940   32.1840 N.am    1  CBN1       -0.1656
     32  O1        18.8300   25.5040   36.0880 O.3     1  CBN1       -0.3474
     33  O2        20.5180   26.0190   38.1540 O.3     1  CBN1       -0.4419
     34  O3        21.2620   27.6860   34.3740 O.3     1  CBN1       -0.3209
     35  O4        21.2760   29.4610   35.8670 O.3     1  CBN1       -0.4495
     36  O5        21.1150   34.2200   31.3710 O.3     1  CBN1       -0.2848
     37  O6        19.0610   33.7420   35.0210 O.2     1  CBN1       -0.4190
     38  O7        18.1920   35.7970   34.7370 O.2     1  CBN1       -0.2429
     39  O8        17.8870   37.8240   31.7570 O.2     1  CBN1       -0.2680
     40  O9        13.7970   33.3800   30.0440 O.3     1  CBN1       -0.2869
     41  C1        19.5130   23.7420   41.5590 C.2     1  CBN1        0.0304
     42  C2        19.5560   24.2690   40.3450 C.2     1  CBN1        0.0410
     43  C3        20.0400   25.6330   40.4530 C.2     1  CBN1        0.2062
     44  N2        20.3100   25.9400   41.8560 N.2     1  CBN1       -0.3996
     45  C5        19.8900   24.7250   42.5610 C.2     1  CBN1        0.1098
     46  C6        19.6810   24.8600   44.0060 C.3     1  CBN1        0.0664
     47  C10       20.3780   26.5730   39.4070 C.2     1  CBN1        0.3713
     48  O10       20.5240   27.7620   39.6120 O.2     1  CBN1       -0.2420
     49  O11       22.8530   26.2650   36.7100 O.3     1  CBN1       -0.2123
@<TRIPOS>BOND
     1    26    22    1
     2    26    27    1
     3    40    23    1
     4    22    23   ar
     5    22    21   ar
     6    27    28    2
     7    23    24   ar
     8    30    28    1
     9    21    20   ar
    10    28    29    1
    11    24    25   ar
    12    36    15    1
    13    20    25   ar
    14    20    19    1
    15    39    19    2
    16    19    31   am
    17    31    14    1
    18    15    14   ar
    19    15    16   ar
    20    17    16   ar
    21    17    18   ar
    22    14    13   ar
    23     3     8    1
    24    16    12   ar
    25    18    10   ar
    26    13    38    2
    27    13    37   ar
    28    34     8    1
    29    34     7    1
    30     8     2    1
    31     8     4    1
    32    12    37   ar
    33    12    11   ar
    34    10    11   ar
    35    10    35    1
    36    11     9    1
    37     7    35    1
    38     7     6    1
    39     4    32    1
    40     4     5    1
    41    32     1    1
    42    49     6    1
    43     6     5    1
    44     5    33    1
    45    33    47    1
    46    47    48    2
    47    47    43    1
    48    42    43    1
    49    42    41    2
    50    43    44    2
    51    41    45    1
    52    44    45    2
    53    45    46    1
