@<TRIPOS>MOLECULE
1kzo_FPP_B_1.pdb
 24 23 0 0 0
SMALL
GASTEIGER

@<TRIPOS>ATOM
      1  C1       108.7100   24.0820   33.3520 C.3   1002  FPP1002     0.1747
      2  O1       108.5930   22.8270   32.6710 O.3   1002  FPP1002    -0.3089
      3  C2       107.4740   24.9420   33.1810 C.2   1002  FPP1002    -0.0024
      4  C3       106.5890   25.1810   34.1770 C.2   1002  FPP1002    -0.0454
      5  C4       106.7430   24.6090   35.5580 C.3   1002  FPP1002     0.0261
      6  C5       105.3640   26.0380   34.0180 C.3   1002  FPP1002     0.0264
      7  C6       104.3070   25.4970   33.0830 C.3   1002  FPP1002     0.0297
      8  C7       103.0590   26.3470   33.1200 C.2   1002  FPP1002    -0.0342
      9  C8       102.3210   26.6410   32.0330 C.2   1002  FPP1002    -0.0478
     10  C10      102.6660   26.1490   30.6550 C.3   1002  FPP1002     0.0260
     11  C9       101.0860   27.4860   32.1050 C.3   1002  FPP1002     0.0263
     12  C11      100.0090   26.9310   33.0150 C.3   1002  FPP1002     0.0297
     13  C12       98.7450   27.7360   32.9630 C.2   1002  FPP1002    -0.0342
     14  C13       97.6180   27.4080   33.6450 C.2   1002  FPP1002    -0.0478
     15  C14       97.4970   26.1940   34.5370 C.3   1002  FPP1002     0.0260
     16  C15       96.3690   28.2330   33.5750 C.3   1002  FPP1002     0.0260
     17  PA       109.8020   22.3960   31.7040 P.3   1002  FPP1002     0.2233
     18  O1A      111.1720   22.6830   32.2620 O.3   1002  FPP1002    -0.4370
     19  O2A      109.5810   20.8800   31.4370 O.2   1002  FPP1002    -0.5169
     20  O3A      109.5590   23.1340   30.3130 O.3   1002  FPP1002    -0.2261
     21  PB       110.4160   24.2390   29.5630 P.3   1002  FPP1002     0.5373
     22  O1B      111.8310   23.8040   29.3140 O.3   1002  FPP1002    -0.1143
     23  O2B      110.3230   25.4940   30.4700 O.3   1002  FPP1002    -0.1143
     24  O3B      109.6270   24.5090   28.2560 O.2   1002  FPP1002    -0.2221
@<TRIPOS>BOND
     1    24    21    2
     2    22    21    1
     3    21    20    1
     4    21    23    1
     5    20    17    1
     6    10     9    1
     7    19    17    2
     8    17    18    1
     9    17     2    1
    10     9    11    1
    11     9     8    2
    12    11    12    1
    13     2     1    1
    14    13    12    1
    15    13    14    2
    16     7     8    1
    17     7     6    1
    18     3     1    1
    19     3     4    2
    20    16    14    1
    21    14    15    1
    22     6     4    1
    23     4     5    1
