@<TRIPOS>MOLECULE
1kzo_III_C_1.pdb
 46 45 0 0 0
SMALL
GASTEIGER

@<TRIPOS>ATOM
      1  N        108.6320   13.1790   31.0120 N.3     6  THR6       -0.1203
      2  CA       107.8610   13.3840   32.2690 C.3     6  THR6        0.1994
      3  C        106.3470   13.2340   31.9810 C.2     6  THR6        0.2618
      4  O        105.9720   12.5420   31.0260 O.2     6  THR6       -0.2717
      5  CB       108.2180   14.7620   32.8880 C.3     6  THR6        0.1784
      6  OG1      108.0150   15.7980   31.9150 O.3     6  THR6       -0.2211
      7  CG2      109.6830   14.7610   33.3540 C.3     6  THR6        0.0376
      8  N        105.4900   13.8560   32.7960 N.am    7  LYS7       -0.1965
      9  CA       104.0300   13.7780   32.6160 C.3     7  LYS7        0.1728
     10  C        103.4590   15.1670   32.2590 C.2     7  LYS7        0.2616
     11  O        103.8660   15.7340   31.2460 O.2     7  LYS7       -0.2715
     12  CB       103.3910   13.1870   33.8800 C.3     7  LYS7        0.0311
     13  CG       103.7490   11.7070   34.1290 C.3     7  LYS7        0.0038
     14  CD       103.1460   10.8020   33.0400 C.3     7  LYS7        0.0206
     15  CE       104.1800   10.2050   32.0800 C.3     7  LYS7        0.1093
     16  NZ       105.1410    9.2760   32.7670 N.3     7  LYS7       -0.1314
     17  N        102.5250   15.7180   33.0420 N.am    8  CYS8       -0.1954
     18  CA       102.0000   17.0700   32.7510 C.3     8  CYS8        0.1843
     19  C        102.6250   18.1130   33.6950 C.2     8  CYS8        0.2625
     20  O        102.3380   18.1330   34.8930 O.2     8  CYS8       -0.2714
     21  CB       100.4690   17.1350   32.8420 C.3     8  CYS8        0.0997
     22  SG        99.8260   18.7950   32.3890 S.3     8  CYS8       -0.0797
     23  N        103.4150   19.0220   33.1340 N.am    9  VAL9       -0.1963
     24  CA       104.1080   20.0280   33.9390 C.3     9  VAL9        0.1727
     25  C        103.3590   21.3190   34.2890 C.2     9  VAL9        0.2616
     26  O        103.9490   22.2060   34.9070 O.2     9  VAL9       -0.2715
     27  CB       105.4780   20.4340   33.2940 C.3     9  VAL9        0.0290
     28  CG1      106.2790   19.2050   32.8960 C.3     9  VAL9        0.0023
     29  CG2      105.2660   21.3460   32.0910 C.3     9  VAL9        0.0023
     30  N        102.0900   21.4510   33.9130 N.am   10  ILE10      -0.1963
     31  CA       101.3900   22.7030   34.2220 C.3    10  ILE10       0.1727
     32  C        100.5850   22.7620   35.5270 C.2    10  ILE10       0.2617
     33  O        100.1110   23.8360   35.9040 O.2    10  ILE10      -0.2715
     34  CB       100.4950   23.1920   33.0370 C.3    10  ILE10       0.0290
     35  CG1       99.1430   22.4750   33.0390 C.3    10  ILE10       0.0022
     36  CG2      101.2350   22.9950   31.7190 C.3    10  ILE10       0.0023
     37  CD1       98.1240   23.0690   32.1020 C.3    10  ILE10       0.0001
     38  N        100.4150   21.6260   36.2080 N.am   11  MET11      -0.1941
     39  CA        99.6640   21.5980   37.4660 C.3    11  MET11       0.1987
     40  C         99.9110   20.2680   38.1910 C.2    11  MET11       0.3842
     41  O        100.6030   19.4150   37.6040 O.co2  11  MET11      -0.2437
     42  CB        98.1710   21.7900   37.1790 C.3    11  MET11       0.0449
     43  CG        97.5560   20.6510   36.3860 C.3    11  MET11       0.0599
     44  SD        96.4040   21.1620   35.0920 S.3    11  MET11      -0.1393
     45  CE        96.7440   19.8990   33.8280 C.3    11  MET11       0.0692
     46  OXT       99.4250   20.0810   39.3310 O.co2  11  MET11      -0.2437
@<TRIPOS>BOND
     1     1     2    1
     2     4     3    2
     3    11    10    2
     4    36    34    1
     5     6     5    1
     6     3     2    1
     7     3     8   am
     8    15    16    1
     9    15    14    1
    10    29    27    1
    11    37    35    1
    12    10     9    1
    13    10    17   am
    14     2     5    1
    15    22    21    1
    16     9     8    1
    17     9    12    1
    18    18    21    1
    19    18    17    1
    20    18    19    1
    21     5     7    1
    22    28    27    1
    23    34    35    1
    24    34    31    1
    25    14    13    1
    26    23    19   am
    27    23    24    1
    28    27    24    1
    29    19    20    2
    30    45    44    1
    31    12    13    1
    32    30    31    1
    33    30    25   am
    34    24    25    1
    35    31    32    1
    36    25    26    2
    37    44    43    1
    38    32    33    2
    39    32    38   am
    40    38    39    1
    41    43    42    1
    42    42    39    1
    43    39    40    1
    44    41    40   ar
    45    40    46   ar
