@<TRIPOS>MOLECULE
1kzo_FAR_C_1.pdb
 15 14 0 0 0
SMALL
GASTEIGER

@<TRIPOS>ATOM
      1  C1       100.1090   18.7960   30.6030 C.3    12  FAR12       0.0300
      2  C2        99.6240   17.4800   30.0560 C.2    12  FAR12      -0.0342
      3  C3       100.3250   16.6740   29.2260 C.2    12  FAR12      -0.0478
      4  C5        99.7670   15.3860   28.7430 C.3    12  FAR12       0.0263
      5  C6       100.1710   14.2140   29.6260 C.3    12  FAR12       0.0297
      6  C7        99.6960   12.9250   29.0430 C.2    12  FAR12      -0.0342
      7  C8       100.5050   12.0020   28.5220 C.2    12  FAR12      -0.0478
      8  C9        99.9690   10.7390   27.9490 C.3    12  FAR12       0.0263
      9  C11      100.8730   10.0630   26.9310 C.3    12  FAR12       0.0297
     10  C12      100.1010    9.0460   26.1560 C.2    12  FAR12      -0.0342
     11  C13      100.6230    8.2610   25.2050 C.2    12  FAR12      -0.0478
     12  C14      102.0760    8.3050   24.8000 C.3    12  FAR12       0.0260
     13  C15       99.7920    7.2440   24.4620 C.3    12  FAR12       0.0260
     14  C4       101.7160   16.9710   28.7150 C.3    12  FAR12       0.0260
     15  C10      102.0000   12.1530   28.4560 C.3    12  FAR12       0.0260
@<TRIPOS>BOND
     1    13    11    1
     2    12    11    1
     3    11    10    2
     4    10     9    1
     5     9     8    1
     6     8     7    1
     7    15     7    1
     8     7     6    2
     9    14     3    1
    10     4     3    1
    11     4     5    1
    12     6     5    1
    13     3     2    2
    14     2     1    1
