@<TRIPOS>MOLECULE
1kzp_FAR_C_1.pdb
 15 14 0 0 0
SMALL
GASTEIGER

@<TRIPOS>ATOM
      1  C1       106.1860   21.9630   28.6000 C.3    12  FAR12       0.0300
      2  C2       105.1250   22.9730   28.8640 C.2    12  FAR12      -0.0342
      3  C3       104.7360   23.3610   30.0830 C.2    12  FAR12      -0.0478
      4  C5       103.6490   24.3890   30.2550 C.3    12  FAR12       0.0263
      5  C6       103.9200   25.5560   31.2000 C.3    12  FAR12       0.0297
      6  C7       102.6920   26.4000   31.2750 C.2    12  FAR12      -0.0342
      7  C8       102.1480   26.8440   32.3980 C.2    12  FAR12      -0.0478
      8  C9       100.9120   27.6840   32.3840 C.3    12  FAR12       0.0263
      9  C11       99.7870   27.0510   33.1840 C.3    12  FAR12       0.0297
     10  C12       98.5090   27.8090   33.1060 C.2    12  FAR12      -0.0342
     11  C13       97.4080   27.4430   33.7840 C.2    12  FAR12      -0.0478
     12  C14       97.3430   26.2390   34.6860 C.3    12  FAR12       0.0260
     13  C15       96.1260   28.2200   33.6990 C.3    12  FAR12       0.0260
     14  C4       105.3330   22.8160   31.3630 C.3    12  FAR12       0.0260
     15  C10      102.7090   26.5470   33.7700 C.3    12  FAR12       0.0260
@<TRIPOS>BOND
     1     1     2    1
     2     2     3    2
     3     3     4    1
     4     3    14    1
     5     4     5    1
     6     5     6    1
     7     6     7    2
     8     8     7    1
     9     8     9    1
    10     7    15    1
    11    10     9    1
    12    10    11    2
    13    13    11    1
    14    11    12    1
