@<TRIPOS>MOLECULE
1kzp_III_C_1.pdb
 35 34 0 0 0
SMALL
GASTEIGER

@<TRIPOS>ATOM
      1  N        106.6040   14.8640   29.1700 N.3     7  LYS7       -0.1231
      2  CA       105.2990   15.5680   29.0310 C.3     7  LYS7        0.1694
      3  C        105.3580   16.8880   29.8100 C.2     7  LYS7        0.2592
      4  O        106.2270   17.0830   30.6670 O.2     7  LYS7       -0.2718
      5  CB       104.1600   14.6850   29.5530 C.3     7  LYS7        0.0304
      6  N        104.4760   17.8170   29.4650 N.am    8  CYS8       -0.1956
      7  CA       104.4190   19.1070   30.1440 C.3     8  CYS8        0.1843
      8  C        103.3250   19.0350   31.2120 C.2     8  CYS8        0.2625
      9  O        102.1750   18.6940   30.9060 O.2     8  CYS8       -0.2714
     10  CB       104.0690   20.2190   29.1400 C.3     8  CYS8        0.0997
     11  SG       105.3480   20.5270   27.8820 S.3     8  CYS8       -0.0797
     12  N        103.6550   19.4070   32.4420 N.am    9  VAL9       -0.1963
     13  CA       102.6940   19.3880   33.5370 C.3     9  VAL9        0.1727
     14  C        102.3070   20.8200   33.9370 C.2     9  VAL9        0.2616
     15  O        103.1780   21.6510   34.1920 O.2     9  VAL9       -0.2715
     16  CB       103.2920   18.5960   34.7080 C.3     9  VAL9        0.0290
     17  CG1      102.8870   19.1590   36.0300 C.3     9  VAL9        0.0023
     18  CG2      102.8450   17.1760   34.6110 C.3     9  VAL9        0.0023
     19  N        101.0110   21.1220   33.9480 N.am   10  ILE10      -0.1963
     20  CA       100.5460   22.4680   34.3170 C.3    10  ILE10       0.1727
     21  C         99.8600   22.5720   35.6890 C.2    10  ILE10       0.2617
     22  O         99.4230   23.6530   36.0910 O.2    10  ILE10      -0.2715
     23  CB        99.6330   23.1100   33.2220 C.3    10  ILE10       0.0290
     24  CG1       98.3620   22.2930   32.9970 C.3    10  ILE10       0.0022
     25  CG2      100.3950   23.2470   31.9260 C.3    10  ILE10       0.0023
     26  CD1       97.3760   22.9930   32.0900 C.3    10  ILE10       0.0001
     27  N         99.7450   21.4490   36.3930 N.am   11  MET11      -0.1941
     28  CA        99.1440   21.4200   37.7260 C.3    11  MET11       0.1987
     29  C         99.5610   20.1210   38.4170 C.2    11  MET11       0.3842
     30  O        100.2350   19.3080   37.7750 O.co2  11  MET11      -0.2437
     31  CB        97.6160   21.5020   37.6680 C.3    11  MET11       0.0449
     32  CG        96.9510   20.2240   37.2200 C.3    11  MET11       0.0599
     33  SD        95.1830   20.2080   37.5300 S.3    11  MET11      -0.1393
     34  CE        95.1580   19.9070   39.2740 C.3    11  MET11       0.0692
     35  OXT       99.2290   19.9190   39.5950 O.co2  11  MET11      -0.2437
@<TRIPOS>BOND
     1    11    10    1
     2     2     1    1
     3     2     5    1
     4     2     3    1
     5    10     7    1
     6     6     3   am
     7     6     7    1
     8     3     4    2
     9     7     8    1
    10     9     8    2
    11     8    12   am
    12    25    23    1
    13    26    24    1
    14    12    13    1
    15    24    23    1
    16    23    20    1
    17    13    14    1
    18    13    16    1
    19    14    19   am
    20    14    15    2
    21    19    20    1
    22    20    21    1
    23    18    16    1
    24    16    17    1
    25    21    22    2
    26    21    27   am
    27    27    28    1
    28    32    33    1
    29    32    31    1
    30    33    34    1
    31    31    28    1
    32    28    29    1
    33    30    29   ar
    34    29    35   ar
