@<TRIPOS>MOLECULE
1l0i_PSR_A_1.pdb
 26 25 0 0 0
SMALL
GASTEIGER

@<TRIPOS>ATOM
      1  O23       25.4040  -10.4080    6.4440 O.3    78  PSR78      -0.1425
      2  P24       24.0330  -10.7190    7.0050 P.3    78  PSR78       0.3942
      3  O26       23.9000  -12.0730    7.6570 O.3    78  PSR78      -0.1425
      4  O27       23.6190   -9.5840    8.0330 O.3    78  PSR78      -0.2952
      5  C28       23.7890  -10.4950    9.4220 C.3    78  PSR78       0.1537
      6  C29       23.7900  -10.3590   10.9780 C.3    78  PSR78       0.0646
      7  C30       23.6880  -11.7720   11.6350 C.3    78  PSR78       0.0056
      8  C31       25.1530   -9.7710   11.4620 C.3    78  PSR78       0.0056
      9  C32       22.6360   -9.4050   11.3770 C.3    78  PSR78       0.2312
     10  O33       23.0700   -8.0310   11.3390 O.3    78  PSR78      -0.2131
     11  C34       21.9450   -9.6980   12.6850 C.2    78  PSR78       0.2719
     12  O35       21.3990  -10.7810   12.8700 O.2    78  PSR78      -0.2706
     13  N36       21.9920   -8.7060   13.5620 N.am   78  PSR78      -0.2028
     14  C37       21.3400   -8.6540   14.9330 C.3    78  PSR78       0.1248
     15  C38       20.2830   -7.5070   14.8680 C.3    78  PSR78       0.1102
     16  C39       19.7370   -7.3110   13.4570 C.2    78  PSR78       0.2432
     17  O40       19.2070   -8.2740   12.8840 O.2    78  PSR78      -0.2733
     18  N41       19.8560   -5.9480   13.1880 N.am   78  PSR78      -0.2044
     19  C42       19.4220   -5.4720   11.8100 C.3    78  PSR78       0.1272
     20  C43       17.9080   -5.3370   11.8040 C.3    78  PSR78       0.0883
     21  S1        17.6310   -4.7470   10.2020 S.3    78  PSR78      -0.0753
     22  C1        18.2730   -3.1250    9.7450 C.2    78  PSR78       0.1988
     23  O1        19.4730   -2.9030    9.9590 O.2    78  PSR78      -0.2845
     24  C2        17.4040   -2.1730    8.9470 C.3    78  PSR78       0.0759
     25  C3        16.9680   -0.9960    9.8900 C.3    78  PSR78       0.0087
     26  C4        16.1080   -0.0190    9.0460 C.3    78  PSR78       0.0005
@<TRIPOS>BOND
     1     1     2    1
     2     2     3    1
     3     2     4    1
     4     4     5    1
     5    24    22    1
     6    24    25    1
     7    26    25    1
     8     5     6    1
     9    22    23    2
    10    22    21    1
    11    21    20    1
    12     6     9    1
    13     6     8    1
    14     6     7    1
    15    10     9    1
    16     9    11    1
    17    20    19    1
    18    19    18    1
    19    11    12    2
    20    11    13   am
    21    17    16    2
    22    18    16   am
    23    16    15    1
    24    13    14    1
    25    15    14    1
