@<TRIPOS>MOLECULE
1l0l_HEM_C_1.pdb
 43 50 0 0 0
SMALL
GASTEIGER

@<TRIPOS>ATOM
      1  CHA       65.2870   63.9490  142.2550 C.2   609  HEM609      0.0000
      2  CHB       66.4020   67.0350  146.3010 C.2   609  HEM609      0.0000
      3  CHC       67.8720   62.8920  148.8820 C.2   609  HEM609      0.0000
      4  CHD       68.3430   60.4190  144.4410 C.2   609  HEM609      0.0000
      5  C1A       65.3870   65.0840  143.2120 C.2   609  HEM609      0.0000
      6  C2A       64.7740   66.4150  142.9190 C.2   609  HEM609      0.0000
      7  C3A       65.1320   67.2900  144.0290 C.2   609  HEM609      0.0000
      8  C4A       65.9040   66.4410  144.9960 C.2   609  HEM609      0.0000
      9  CMA       64.7630   68.7480  144.1570 C.3   609  HEM609      0.0000
     10  CAA       64.0190   66.9170  141.7170 C.3   609  HEM609      0.0000
     11  CBA       62.6950   66.2260  141.3660 C.3   609  HEM609      0.0000
     12  CGA       62.0400   65.3540  142.4030 C.2   609  HEM609      0.0000
     13  O1A       62.1260   64.1420  142.3530 O.co2 609  HEM609      0.0000
     14  O2A       61.3720   65.8740  143.2750 O.co2 609  HEM609      0.0000
     15  C1B       66.9270   66.0390  147.2760 C.ar  609  HEM609      0.0000
     16  C2B       67.3840   66.3820  148.4890 C.ar  609  HEM609      0.0000
     17  C3B       67.7660   65.2950  149.1440 C.ar  609  HEM609      0.0000
     18  C4B       67.5650   64.2560  148.3810 C.ar  609  HEM609      0.0000
     19  CMB       67.4770   67.8150  149.0060 C.3   609  HEM609      0.0000
     20  CAB       68.3750   65.1660  150.5450 C.3   609  HEM609      0.0000
     21  CBB       69.0420   66.4360  151.1020 C.3   609  HEM609      0.0000
     22  C1C       68.0370   61.8880  147.7860 C.2   609  HEM609      0.0000
     23  C2C       68.3470   60.6180  148.0530 C.2   609  HEM609      0.0000
     24  C3C       68.4650   59.9610  146.9050 C.2   609  HEM609      0.0000
     25  C4C       68.2180   60.8090  145.8920 C.2   609  HEM609      0.0000
     26  CMC       68.5090   60.0690  149.4740 C.3   609  HEM609      0.0000
     27  CAC       68.7540   58.4830  146.6910 C.3   609  HEM609      0.0000
     28  CBC       69.6410   57.8300  147.7320 C.3   609  HEM609      0.0000
     29  C1D       67.4640   61.2240  143.5570 C.ar  609  HEM609      0.0000
     30  C2D       67.1260   60.7840  142.3650 C.ar  609  HEM609      0.0000
     31  C3D       66.3140   61.6530  141.7520 C.ar  609  HEM609      0.0000
     32  C4D       66.1300   62.7310  142.5800 C.ar  609  HEM609      0.0000
     33  CMD       67.5940   59.4590  141.7980 C.3   609  HEM609      0.0000
     34  CAD       65.7790   61.3530  140.3240 C.3   609  HEM609      0.0000
     35  CBD       64.4480   61.9910  139.9340 C.3   609  HEM609      0.0000
     36  CGD       63.5100   60.9680  139.3520 C.2   609  HEM609      0.0000
     37  O1D       62.3040   61.1180  139.3720 O.co2 609  HEM609      0.0000
     38  O2D       63.9400   59.9740  138.8510 O.co2 609  HEM609      0.0000
     39  NA        65.9910   65.1890  144.4390 N.2   609  HEM609      0.0000
     40  NB        66.9340   64.6360  147.1340 N.ar  609  HEM609      0.0000
     41  NC        67.9970   62.1170  146.3740 N.2   609  HEM609      0.0000
     42  ND        66.9290   62.5150  143.7660 N.ar  609  HEM609      0.0000
     43 FE         66.9960   63.5930  145.4220 Fe    609  HEM609      0.0000
@<TRIPOS>BOND
     1    38    36   ar
     2    36    37   ar
     3    36    35    1
     4    35    34    1
     5    34    31    1
     6    11    10    1
     7    11    12    1
     8    10     6    1
     9    31    30   ar
    10    31    32   ar
    11    33    30    1
    12     1    32    2
    13     1     5    1
    14    13    12   ar
    15    30    29   ar
    16    12    14   ar
    17    32    42   ar
    18     6     5    1
    19     6     7    2
    20     5    39    2
    21    29    42   ar
    22    29     4    2
    23    42    43    1
    24     7     9    1
    25     7     8    1
    26    39     8    1
    27    39    43    1
    28     4    25    1
    29     8     2    2
    30    43    41    1
    31    43    40    1
    32    25    41    2
    33    25    24    1
    34     2    15    1
    35    41    22    1
    36    27    24    1
    37    27    28    1
    38    24    23    2
    39    40    15   ar
    40    40    18   ar
    41    15    16   ar
    42    22    23    1
    43    22     3    2
    44    23    26    1
    45    18     3    1
    46    18    17   ar
    47    16    19    1
    48    16    17   ar
    49    17    20    1
    50    20    21    1
