@<TRIPOS>MOLECULE
1l0l_FMX_C_1.pdb
 28 31 0 0 0
SMALL
GASTEIGER

@<TRIPOS>ATOM
      1  O6        66.8280   57.3500  167.4920 O.2   611  FMX611     -0.2686
      2  C6        67.7910   58.0010  167.7910 C.2   611  FMX611      0.2918
      3  N2        68.4920   57.9400  168.9820 N.am  611  FMX611     -0.0974
      4  N1        68.1790   57.0650  170.0280 N.pl3 611  FMX611     -0.1354
      5  C21       68.6350   55.7340  170.1150 C.ar  611  FMX611      0.0880
      6  C22       69.7220   55.3100  169.3840 C.ar  611  FMX611      0.0180
      7  C23       70.1770   54.0020  169.4930 C.ar  611  FMX611      0.0014
      8  C24       69.5320   53.1240  170.3470 C.ar  611  FMX611      0.0001
      9  C25       68.4380   53.5500  171.0910 C.ar  611  FMX611      0.0014
     10  C26       67.9880   54.8570  170.9780 C.ar  611  FMX611      0.0180
     11  C3        69.4750   58.8990  169.0570 C.2   611  FMX611      0.4293
     12  O4        69.5000   59.5740  167.9110 O.3   611  FMX611     -0.4273
     13  O3        70.1680   59.1490  170.0010 O.2   611  FMX611     -0.2240
     14  C5        68.4320   59.1170  167.0120 C.3   611  FMX611      0.2258
     15  C7        67.4900   60.2200  166.8270 C.3   611  FMX611      0.0581
     16  C8        69.0480   58.6120  165.7110 C.ar  611  FMX611      0.0223
     17  C9        69.4000   57.2900  165.4710 C.ar  611  FMX611      0.0027
     18  C10       69.9800   56.9610  164.2520 C.ar  611  FMX611      0.0373
     19  C11       70.2170   57.9560  163.2700 C.ar  611  FMX611      0.1453
     20  C12       69.8620   59.2580  163.5220 C.ar  611  FMX611      0.0373
     21  C13       69.2830   59.5740  164.7350 C.ar  611  FMX611      0.0027
     22  O14       70.7910   57.6630  162.0490 O.3   611  FMX611     -0.4535
     23  C15       70.3640   56.5820  161.2890 C.ar  611  FMX611      0.1453
     24  C16       69.0310   56.4600  160.9150 C.ar  611  FMX611      0.0375
     25  C17       68.6200   55.3560  160.1440 C.ar  611  FMX611      0.0031
     26  C18       69.5420   54.3930  159.7520 C.ar  611  FMX611      0.0002
     27  C19       70.8860   54.5240  160.1330 C.ar  611  FMX611      0.0031
     28  C20       71.2940   55.6160  160.9000 C.ar  611  FMX611      0.0375
@<TRIPOS>BOND
     1    26    27   ar
     2    26    25   ar
     3    27    28   ar
     4    25    24   ar
     5    28    23   ar
     6    24    23   ar
     7    23    22    1
     8    22    19    1
     9    19    20   ar
    10    19    18   ar
    11    20    21   ar
    12    18    17   ar
    13    21    16   ar
    14    17    16   ar
    15    16    14    1
    16    15    14    1
    17    14     2    1
    18    14    12    1
    19     1     2    2
    20     2     3   am
    21    12    11    1
    22     3    11   am
    23     3     4    1
    24    11    13    2
    25     6     7   ar
    26     6     5   ar
    27     7     8   ar
    28     4     5    1
    29     5    10   ar
    30     8     9   ar
    31    10     9   ar
