@<TRIPOS>MOLECULE
1l0n_HEM_C_1.pdb
 43 50 0 0 0
SMALL
GASTEIGER

@<TRIPOS>ATOM
      1  CHA       65.2280   63.7760  143.3350 C.2   381  HEM381      0.0000
      2  CHB       66.3910   66.6820  147.0260 C.2   381  HEM381      0.0000
      3  CHC       67.7330   63.0450  149.7460 C.2   381  HEM381      0.0000
      4  CHD       67.8920   60.5610  145.6080 C.2   381  HEM381      0.0000
      5  C1A       65.3050   64.8830  144.1420 C.2   381  HEM381      0.0000
      6  C2A       64.6880   66.1820  143.9260 C.2   381  HEM381      0.0000
      7  C3A       65.0470   66.9610  144.9490 C.2   381  HEM381      0.0000
      8  C4A       65.8610   66.1960  145.8600 C.2   381  HEM381      0.0000
      9  CMA       64.6350   68.4170  145.1630 C.3   381  HEM381      0.0000
     10  CAA       63.8050   66.6440  142.7610 C.3   381  HEM381      0.0000
     11  CBA       63.0000   65.4940  142.1640 C.3   381  HEM381      0.0000
     12  CGA       61.8620   65.2460  143.0760 C.2   381  HEM381      0.0000
     13  O1A       61.6980   64.1150  143.5830 O.co2 381  HEM381      0.0000
     14  O2A       61.1400   66.2190  143.3030 O.co2 381  HEM381      0.0000
     15  C1B       66.8350   65.9550  148.0880 C.ar  381  HEM381      0.0000
     16  C2B       67.1690   66.5030  149.3860 C.ar  381  HEM381      0.0000
     17  C3B       67.5610   65.4900  150.1620 C.ar  381  HEM381      0.0000
     18  C4B       67.4660   64.2900  149.3570 C.ar  381  HEM381      0.0000
     19  CMB       67.0690   68.0140  149.7520 C.3   381  HEM381      0.0000
     20  CAB       68.0010   65.5570  151.6420 C.2   381  HEM381      0.0000
     21  CBB       68.7960   66.5360  152.0890 C.2   381  HEM381      0.0000
     22  C1C       67.8200   62.0330  148.8460 C.2   381  HEM381      0.0000
     23  C2C       68.3050   60.6630  149.1360 C.2   381  HEM381      0.0000
     24  C3C       68.1210   59.9680  148.0120 C.2   381  HEM381      0.0000
     25  C4C       67.8610   60.9200  146.9370 C.2   381  HEM381      0.0000
     26  CMC       68.2470   60.0810  150.5510 C.3   381  HEM381      0.0000
     27  CAC       68.2950   58.4670  147.8140 C.2   381  HEM381      0.0000
     28  CBC       69.4260   57.8620  148.1040 C.2   381  HEM381      0.0000
     29  C1D       67.2270   61.1270  144.5790 C.ar  381  HEM381      0.0000
     30  C2D       67.0300   60.5740  143.2340 C.ar  381  HEM381      0.0000
     31  C3D       66.1880   61.5560  142.5320 C.ar  381  HEM381      0.0000
     32  C4D       65.9590   62.6260  143.4980 C.ar  381  HEM381      0.0000
     33  CMD       67.5470   59.2500  142.6170 C.3   381  HEM381      0.0000
     34  CAD       65.6840   61.4070  141.1030 C.3   381  HEM381      0.0000
     35  CBD       64.1930   61.1900  141.2250 C.3   381  HEM381      0.0000
     36  CGD       63.5040   61.0290  139.8840 C.2   381  HEM381      0.0000
     37  O1D       62.4780   60.2830  139.8200 O.co2 381  HEM381      0.0000
     38  O2D       63.9600   61.6530  138.8890 O.co2 381  HEM381      0.0000
     39  NA        66.0020   64.9350  145.3420 N.2   381  HEM381      0.0000
     40  NB        67.0260   64.6070  148.0990 N.ar  381  HEM381      0.0000
     41  NC        67.7040   62.1860  147.4730 N.2   381  HEM381      0.0000
     42  ND        66.6250   62.3360  144.6610 N.ar  381  HEM381      0.0000
     43 FE         66.8200   63.5120  146.2890 Fe    381  HEM381      0.0000
@<TRIPOS>BOND
     1    38    36   ar
     2    37    36   ar
     3    36    35    1
     4    34    35    1
     5    34    31    1
     6    11    10    1
     7    11    12    1
     8    31    30   ar
     9    31    32   ar
    10    33    30    1
    11    10     6    1
    12    12    14   ar
    13    12    13   ar
    14    30    29   ar
    15     1    32    2
    16     1     5    1
    17    32    42   ar
    18     6     5    1
    19     6     7    2
    20     5    39    2
    21    29    42   ar
    22    29     4    2
    23    42    43    1
    24     7     9    1
    25     7     8    1
    26    39     8    1
    27    39    43    1
    28     4    25    1
    29     8     2    2
    30    43    41    1
    31    43    40    1
    32    25    41    2
    33    25    24    1
    34     2    15    1
    35    41    22    1
    36    27    24    1
    37    27    28    2
    38    24    23    2
    39    15    40   ar
    40    15    16   ar
    41    40    18   ar
    42    22    23    1
    43    22     3    2
    44    23    26    1
    45    18     3    1
    46    18    17   ar
    47    16    19    1
    48    16    17   ar
    49    17    20    1
    50    20    21    2
