@<TRIPOS>MOLECULE
1l0o_ADP_A_1.pdb
 27 29 0 0 0
SMALL
GASTEIGER

@<TRIPOS>ATOM
      1  PB        -1.7590   12.5970   59.1490 P.3   601  ADP601      0.5373
      2  O1B       -0.2480   12.5590   59.3270 O.3   601  ADP601     -0.1143
      3  O2B       -2.3060   11.6600   58.1820 O.2   601  ADP601     -0.2221
      4  O3B       -2.4780   12.4960   60.5140 O.3   601  ADP601     -0.1143
      5  PA        -1.4200   15.1240   57.8160 P.3   601  ADP601      0.2231
      6  O1A        0.0250   15.0770   58.1840 O.3   601  ADP601     -0.4370
      7  O2A       -2.1310   16.4030   57.8170 O.2   601  ADP601     -0.5169
      8  O3A       -2.1490   14.0580   58.7870 O.3   601  ADP601     -0.2261
      9  O5'       -1.6010   14.3910   56.3870 O.3   601  ADP601     -0.3111
     10  C5'       -2.9420   14.3200   55.8420 C.3   601  ADP601      0.1813
     11  C4'       -3.1340   13.2950   54.7710 C.3   601  ADP601      0.1821
     12  O4'       -2.3750   13.7370   53.5980 O.3   601  ADP601     -0.3135
     13  C3'       -2.6010   11.9090   55.0070 C.3   601  ADP601      0.2184
     14  O3'       -3.5910   11.1100   55.6780 O.3   601  ADP601     -0.2174
     15  C2'       -2.3200   11.3530   53.5610 C.3   601  ADP601      0.2570
     16  O2'       -3.5190   10.7580   52.9710 O.3   601  ADP601     -0.2130
     17  C1'       -1.8860   12.6310   52.8200 C.3   601  ADP601      0.3186
     18  N9        -0.3620   12.7310   52.7200 N.pl3 601  ADP601     -0.1439
     19  C8         0.4220   13.6060   53.3300 C.3   601  ADP601      0.3377
     20  N7         1.6620   13.4460   53.0570 N.2   601  ADP601     -0.2095
     21  C5         1.7030   12.3680   52.1890 C.2   601  ADP601      0.2526
     22  C6         2.7570   11.6570   51.4870 C.2   601  ADP601      0.4393
     23  N6         4.0850   11.9990   51.5910 N.pl3 601  ADP601      0.2180
     24  N1         2.4020   10.6090   50.6850 N.2   601  ADP601      0.0021
     25  C2         1.1260   10.2710   50.5760 C.3   601  ADP601      0.5254
     26  N3         0.0800   10.8700   51.1920 N.2   601  ADP601     -0.0055
     27  C4         0.4360   11.9100   51.9820 C.2   601  ADP601      0.3518
@<TRIPOS>BOND
     1    25    24    1
     2    25    26    1
     3    24    22    2
     4    26    27    2
     5    22    23    1
     6    22    21    1
     7    27    21    1
     8    27    18    1
     9    21    20    2
    10    18    17    1
    11    18    19    1
    12    17    15    1
    13    17    12    1
    14    16    15    1
    15    20    19    1
    16    15    13    1
    17    12    11    1
    18    11    13    1
    19    11    10    1
    20    13    14    1
    21    10     9    1
    22     9     5    1
    23     5     7    2
    24     5     6    1
    25     5     8    1
    26     3     1    2
    27     8     1    1
    28     1     2    1
    29     1     4    1
