@<TRIPOS>MOLECULE
1l0v_MQ7_B_1.pdb
 24 25 0 0 0
SMALL
GASTEIGER

@<TRIPOS>ATOM
      1  C1        25.4720   14.8970  -54.6140 C.2   701  MQ7701      0.1915
      2  O1        24.6830   14.7540  -55.5530 O.2   701  MQ7701     -0.2869
      3  C2        26.2350   16.1970  -54.3050 C.2   701  MQ7701      0.0165
      4  C2M       25.9100   17.2890  -55.2920 C.3   701  MQ7701      0.0342
      5  C3        27.0900   16.2740  -53.2500 C.2   701  MQ7701      0.0202
      6  C4        27.2730   15.0670  -52.3850 C.2   701  MQ7701      0.1918
      7  O4        28.0740   15.1520  -51.4000 O.2   701  MQ7701     -0.2869
      8  C5        26.5290   13.7900  -52.6890 C.ar  701  MQ7701      0.0417
      9  C6        26.6840   12.6380  -51.9050 C.ar  701  MQ7701      0.0033
     10  C7        25.9570   11.4220  -52.2220 C.ar  701  MQ7701      0.0001
     11  C8        25.1050   11.3930  -53.3030 C.ar  701  MQ7701      0.0001
     12  C9        24.9420   12.5510  -54.1030 C.ar  701  MQ7701      0.0033
     13  C10       25.6450   13.7230  -53.7880 C.ar  701  MQ7701      0.0417
     14  C11       27.9450   17.4180  -52.7550 C.3   701  MQ7701      0.0547
     15  C12       29.2840   17.5540  -52.9030 C.2   701  MQ7701     -0.0298
     16  C13       30.1820   18.7570  -53.3100 C.2   701  MQ7701     -0.0475
     17  C14       29.6580   19.9820  -53.6080 C.3   701  MQ7701      0.0260
     18  C15       31.7070   18.5890  -53.3870 C.3   701  MQ7701      0.0264
     19  C16       32.3250   17.9580  -52.1230 C.3   701  MQ7701      0.0297
     20  C17       33.1970   16.7730  -52.5350 C.2   701  MQ7701     -0.0343
     21  C18       34.5390   16.7230  -52.3350 C.2   701  MQ7701     -0.0482
     22  C19       35.3380   17.8580  -51.6710 C.3   701  MQ7701      0.0260
     23  C20       35.2810   15.4870  -52.8050 C.3   701  MQ7701      0.0217
     24  C21       35.9070   14.7030  -51.6220 C.3   701  MQ7701      0.0047
@<TRIPOS>BOND
     1     2     1    2
     2     4     3    1
     3     1     3    1
     4     1    13    1
     5     3     5    2
     6    12    13   ar
     7    12    11   ar
     8    13     8   ar
     9    17    16    1
    10    18    16    1
    11    18    19    1
    12    16    15    2
    13    11    10   ar
    14     5    14    1
    15     5     6    1
    16    15    14    1
    17    23    21    1
    18    23    24    1
    19     8     6    1
    20     8     9   ar
    21    20    21    2
    22    20    19    1
    23     6     7    2
    24    21    22    1
    25    10     9   ar
