@<TRIPOS>MOLECULE
1l1e_SAH_A_1.pdb
 26 28 0 0 0
SMALL
GASTEIGER

@<TRIPOS>ATOM
      1  N         -3.3200   15.0940   64.9750 N.3   900  SAH900     -0.1208
      2  CA        -3.0030   14.2040   63.8570 C.3   900  SAH900      0.1952
      3  CB        -2.9220   14.9970   62.5340 C.3   900  SAH900      0.0422
      4  CG        -1.9380   16.1700   62.4980 C.3   900  SAH900      0.0597
      5  SD        -1.9020   17.0360   60.9210 S.3   900  SAH900     -0.1375
      6  C         -1.6660   13.4830   64.0990 C.2   900  SAH900      0.3819
      7  O         -1.0690   13.7070   65.1560 O.co2 900  SAH900     -0.2441
      8  OXT       -1.2250   12.7310   63.2180 O.co2 900  SAH900     -0.2441
      9  C5'       -2.9940   18.4550   61.2760 C.3   900  SAH900      0.0899
     10  C4'       -4.4740   18.1020   61.4700 C.3   900  SAH900      0.1630
     11  O4'       -5.2420   19.2140   62.0140 O.3   900  SAH900     -0.3153
     12  C3'       -5.1840   17.7290   60.1710 C.3   900  SAH900      0.2168
     13  O3'       -6.1190   16.6690   60.4750 O.3   900  SAH900     -0.2175
     14  C2'       -5.8920   18.9980   59.7820 C.3   900  SAH900      0.2569
     15  O2'       -6.9380   18.7610   58.8360 O.3   900  SAH900     -0.2130
     16  C1'       -6.3540   19.4850   61.1220 C.3   900  SAH900      0.3185
     17  N9        -6.7190   20.9180   61.1670 N.pl3 900  SAH900     -0.1439
     18  C8        -6.0510   22.0220   60.7420 C.3   900  SAH900      0.3377
     19  N7        -6.6210   23.1670   60.9250 N.2   900  SAH900     -0.2095
     20  C5        -7.8130   22.8130   61.5450 C.2   900  SAH900      0.2526
     21  C6        -8.9310   23.5640   62.0360 C.2   900  SAH900      0.4393
     22  N6        -9.0000   24.9020   61.9630 N.pl3 900  SAH900      0.2180
     23  N1        -9.9760   22.8650   62.6100 N.2   900  SAH900      0.0021
     24  C2        -9.9120   21.5130   62.6910 C.3   900  SAH900      0.5254
     25  N3        -8.9170   20.7060   62.2680 N.2   900  SAH900     -0.0055
     26  C4        -7.8890   21.4280   61.6980 C.2   900  SAH900      0.3518
@<TRIPOS>BOND
     1    15    14    1
     2    14    12    1
     3    14    16    1
     4    12    13    1
     5    12    10    1
     6    18    19    1
     7    18    17    1
     8     5     9    1
     9     5     4    1
    10    19    20    2
    11    16    17    1
    12    16    11    1
    13    17    26    1
    14     9    10    1
    15    10    11    1
    16    20    26    1
    17    20    21    1
    18    26    25    2
    19    22    21    1
    20    21    23    2
    21    25    24    1
    22     4     3    1
    23     3     2    1
    24    23    24    1
    25     8     6   ar
    26     2     6    1
    27     2     1    1
    28     6     7   ar
