@<TRIPOS>MOLECULE
1l1q_9DA_A_1.pdb
 10 11 0 0 0
SMALL
GASTEIGER

@<TRIPOS>ATOM
      1  N1         8.3480   32.7650   41.7770 N.2   201  9DA201     -0.0278
      2  C2         8.9640   33.9810   41.5130 C.3   201  9DA201      0.3922
      3  N3         8.7750   34.6300   40.3510 N.2   201  9DA201     -0.2168
      4  C4         7.9310   33.9710   39.4860 C.2   201  9DA201      0.1072
      5  C5         7.2870   32.7570   39.6890 C.2   201  9DA201      0.1887
      6  C6         7.4800   32.0590   40.9210 C.2   201  9DA201      0.4315
      7  N6         7.0090   30.9720   41.3140 N.pl3 201  9DA201      0.2177
      8  N7         6.5390   32.4660   38.5660 N.2   201  9DA201     -0.2347
      9  C8         6.7260   33.4840   37.6960 C.2   201  9DA201      0.1008
     10  C9         7.5750   34.4340   38.2200 C.2   201  9DA201      0.0412
@<TRIPOS>BOND
     1     9    10    2
     2     9     8    1
     3    10     4    1
     4     8     5    2
     5     4     5    1
     6     4     3    2
     7     5     6    1
     8     3     2    1
     9     6     7    1
    10     6     1    2
    11     2     1    1
