@<TRIPOS>MOLECULE
1l1r_9DA_A_1.pdb
 10 11 0 0 0
SMALL
GASTEIGER

@<TRIPOS>ATOM
      1  N1         8.4250   32.4700   42.2730 N.2   201  9DA201     -0.0278
      2  C2         8.9410   33.6890   41.8430 C.3   201  9DA201      0.3922
      3  N3         8.5680   34.2420   40.6810 N.2   201  9DA201     -0.2168
      4  C4         7.6510   33.4880   39.9930 C.2   201  9DA201      0.1072
      5  C5         7.0990   32.2710   40.3600 C.2   201  9DA201      0.1887
      6  C6         7.4850   31.6730   41.5960 C.2   201  9DA201      0.4315
      7  N6         7.1210   30.5950   42.1250 N.pl3 201  9DA201      0.2177
      8  N7         6.2220   31.8720   39.3720 N.2   201  9DA201     -0.2347
      9  C8         6.2400   32.8300   38.4170 C.2   201  9DA201      0.1008
     10  C9         7.1100   33.8470   38.7620 C.2   201  9DA201      0.0412
@<TRIPOS>BOND
     1     9    10    2
     2     9     8    1
     3    10     4    1
     4     8     5    2
     5     4     5    1
     6     4     3    2
     7     5     6    1
     8     3     2    1
     9     6     7    1
    10     6     1    2
    11     2     1    1
