@<TRIPOS>MOLECULE
1l1r_PRP_A_1.pdb
 22 22 0 0 0
SMALL
GASTEIGER

@<TRIPOS>ATOM
      1  C1         7.2810   36.5830   36.7140 C.3   301  PRP301      0.2742
      2  C2         8.8020   36.3150   36.6850 C.3   301  PRP301      0.2408
      3  C3         9.0430   35.8430   35.2590 C.3   301  PRP301      0.2167
      4  C4         7.7870   35.1090   34.8780 C.3   301  PRP301      0.1808
      5  C5         7.9610   33.7530   34.9560 C.3   301  PRP301      0.1859
      6  O1         7.0860   37.9510   36.2550 O.3   301  PRP301     -0.2857
      7  O2         9.5030   37.5150   37.0250 O.3   301  PRP301     -0.2149
      8  O3         9.2360   36.9960   34.4130 O.3   301  PRP301     -0.2175
      9  O4         6.7390   35.6320   35.8230 O.3   301  PRP301     -0.3255
     10  O5         6.7810   32.9830   34.7500 O.3   301  PRP301     -0.2675
     11  P          6.5910   31.9880   33.5000 P.3   301  PRP301      0.5327
     12  O1P        7.8630   31.1680   33.3070 O.3   301  PRP301     -0.1145
     13  O2P        6.1980   32.8150   32.2820 O.2   301  PRP301     -0.2224
     14  O3P        5.4530   31.1050   34.0080 O.3   301  PRP301     -0.1145
     15  PA         5.6920   38.7340   36.4850 P.3   301  PRP301      0.2249
     16  O1A        4.7990   38.4290   35.3370 O.2   301  PRP301     -0.5169
     17  O2A        5.1740   38.3810   37.8380 O.3   301  PRP301     -0.4370
     18  O3A        6.1680   40.2620   36.3670 O.3   301  PRP301     -0.2260
     19  PB         7.1650   41.1420   37.3450 P.3   301  PRP301      0.5373
     20  O1B        6.9860   40.5690   38.7610 O.3   301  PRP301     -0.1143
     21  O2B        6.7330   42.5810   37.1940 O.3   301  PRP301     -0.1143
     22  O3B        8.5370   40.9080   36.8170 O.2   301  PRP301     -0.2221
@<TRIPOS>BOND
     1    13    11    2
     2    12    11    1
     3    11    14    1
     4    11    10    1
     5     8     3    1
     6    10     5    1
     7     4     5    1
     8     4     3    1
     9     4     9    1
    10     3     2    1
    11    16    15    2
    12     9     1    1
    13     6    15    1
    14     6     1    1
    15    18    15    1
    16    18    19    1
    17    15    17    1
    18     2     1    1
    19     2     7    1
    20    22    19    2
    21    21    19    1
    22    19    20    1
