@<TRIPOS>MOLECULE
1l1y_BGC_A_1.pdb
 11 11 0 0 0
SMALL
GASTEIGER

@<TRIPOS>ATOM
      1  C2        28.2790   61.3220   48.4760 C.3   679  BGC679      0.2141
      2  C3        28.9790   61.2760   49.8430 C.3   679  BGC679      0.2173
      3  C4        28.0190   61.7350   50.9430 C.3   679  BGC679      0.2142
      4  C5        26.7360   60.8930   50.8300 C.3   679  BGC679      0.1810
      5  C6        25.6530   61.2940   51.8300 C.3   679  BGC679      0.2141
      6  C1        27.0550   60.3990   48.4980 C.3   679  BGC679      0.1777
      7  O2        29.1680   60.9880   47.4360 O.3   679  BGC679     -0.2176
      8  O3        30.1310   62.0850   49.8590 O.3   679  BGC679     -0.2175
      9  O4        28.6340   61.5130   52.1910 O.3   679  BGC679     -0.2176
     10  O5        26.2070   60.9400   49.5080 O.3   679  BGC679     -0.3481
     11  O6        25.4510   62.6990   51.8070 O.3   679  BGC679     -0.2176
@<TRIPOS>BOND
     1     7     1    1
     2     1     6    1
     3     1     2    1
     4     6    10    1
     5    10     4    1
     6     2     8    1
     7     2     3    1
     8     4     3    1
     9     4     5    1
    10     3     9    1
    11    11     5    1
