@<TRIPOS>MOLECULE
1l2a_BGC_A_1.pdb
 11 11 0 0 0
SMALL
GASTEIGER

@<TRIPOS>ATOM
      1  C2        28.3840   61.0050   49.2800 C.3   679  BGC679      0.2141
      2  C3        28.9640   60.9230   50.6920 C.3   679  BGC679      0.2173
      3  C4        27.9300   61.4020   51.7280 C.3   679  BGC679      0.2142
      4  C5        26.5980   60.6760   51.4790 C.3   679  BGC679      0.1810
      5  C6        25.4660   61.2030   52.3580 C.3   679  BGC679      0.2141
      6  C1        27.1130   60.1500   49.1850 C.3   679  BGC679      0.1777
      7  O2        29.3690   60.5790   48.3650 O.3   679  BGC679     -0.2176
      8  O3        30.1800   61.6510   50.7520 O.3   679  BGC679     -0.2175
      9  O4        28.3590   61.0860   53.0370 O.3   679  BGC679     -0.2176
     10  O5        26.1990   60.7180   50.1060 O.3   679  BGC679     -0.3481
     11  O6        25.4390   62.6230   52.3510 O.3   679  BGC679     -0.2176
@<TRIPOS>BOND
     1     7     1    1
     2     6     1    1
     3     6    10    1
     4     1     2    1
     5    10     4    1
     6     2     8    1
     7     2     3    1
     8     4     3    1
     9     4     5    1
    10     3     9    1
    11    11     5    1
