@<TRIPOS>MOLECULE
1l2i_ETC_A_1.pdb
 24 27 0 0 0
SMALL
GASTEIGER

@<TRIPOS>ATOM
      1  C22        3.9640   -2.1790   -8.4880 C.3   600  ETC600      0.0004
      2  C21        4.5360   -1.0410   -7.6600 C.3   600  ETC600      0.0047
      3  C11        5.4390   -1.5870   -6.5520 C.3   600  ETC600      0.0264
      4  C12        4.6350   -2.4910   -5.6090 C.3   600  ETC600      0.0308
      5  C9         6.0850   -0.4220   -5.7910 C.2   600  ETC600     -0.0264
      6  C8         5.5070    0.0830   -4.6820 C.2   600  ETC600     -0.0264
      7  C14        4.2170   -0.4460   -4.1890 C.ar  600  ETC600     -0.0080
      8  C15        3.4130    0.2930   -3.2850 C.ar  600  ETC600      0.0026
      9  C16        2.1580   -0.1860   -2.9140 C.ar  600  ETC600      0.0420
     10  C17        1.7160   -1.3920   -3.4430 C.ar  600  ETC600      0.1954
     11  O25        0.4760   -1.8460   -3.0990 O.3   600  ETC600     -0.2866
     12  C18        2.4840   -2.1450   -4.3300 C.ar  600  ETC600      0.0378
     13  C13        3.7390   -1.6670   -4.6980 C.ar  600  ETC600     -0.0190
     14  C10        7.3370    0.1140   -6.2900 C.ar  600  ETC600     -0.0080
     15  C5         8.1930    0.7930   -5.4040 C.ar  600  ETC600     -0.0190
     16  C6         7.7310    1.0630   -3.9850 C.3   600  ETC600      0.0308
     17  C7         6.1920    1.2490   -3.9340 C.3   600  ETC600      0.0264
     18  C20        5.8320    2.6020   -4.5790 C.3   600  ETC600      0.0047
     19  C19        4.3620    2.9590   -4.3560 C.3   600  ETC600      0.0004
     20  C4         9.4540    1.2060   -5.8240 C.ar  600  ETC600      0.0378
     21  C3         9.8200    0.9790   -7.1530 C.ar  600  ETC600      0.1954
     22  O23       11.0570    1.3620   -7.5660 O.3   600  ETC600     -0.2866
     23  C2         8.9770    0.3520   -8.0650 C.ar  600  ETC600      0.0420
     24  C1         7.7280   -0.0790   -7.6410 C.ar  600  ETC600      0.0026
@<TRIPOS>BOND
     1     1     2    1
     2    23    24   ar
     3    23    21   ar
     4     2     3    1
     5    24    14   ar
     6    22    21    1
     7    21    20   ar
     8     3     5    1
     9     3     4    1
    10    14     5    1
    11    14    15   ar
    12    20    15   ar
    13     5     6    2
    14     4    13    1
    15    15    16    1
    16    13    12   ar
    17    13     7   ar
    18     6     7    1
    19     6    17    1
    20    18    19    1
    21    18    17    1
    22    12    10   ar
    23     7     8   ar
    24    16    17    1
    25    10    11    1
    26    10     9   ar
    27     8     9   ar
