@<TRIPOS>MOLECULE
1l2j_ETC_A_1.pdb
 24 27 0 0 0
SMALL
GASTEIGER

@<TRIPOS>ATOM
      1  C22       29.4720   84.5280  -13.2620 C.3   600  ETC600      0.0004
      2  C21       30.5310   83.4540  -12.8890 C.3   600  ETC600      0.0047
      3  C11       30.9790   83.5710  -11.4000 C.3   600  ETC600      0.0264
      4  C12       31.8860   84.7890  -11.2000 C.3   600  ETC600      0.0308
      5  C9        31.6400   82.3210  -10.9660 C.2   600  ETC600     -0.0264
      6  C8        32.9760   82.1540  -11.1290 C.2   600  ETC600     -0.0264
      7  C14       33.8060   83.2110  -11.6420 C.ar  600  ETC600     -0.0080
      8  C15       35.1320   82.9550  -12.1170 C.ar  600  ETC600      0.0026
      9  C16       35.9150   84.0210  -12.5950 C.ar  600  ETC600      0.0420
     10  C17       35.3720   85.3170  -12.5940 C.ar  600  ETC600      0.1954
     11  O25       36.1680   86.3690  -13.0050 O.3   600  ETC600     -0.2866
     12  C18       34.0690   85.5890  -12.1470 C.ar  600  ETC600      0.0378
     13  C13       33.2890   84.5330  -11.6790 C.ar  600  ETC600     -0.0190
     14  C10       30.8240   81.2610  -10.3990 C.ar  600  ETC600     -0.0080
     15  C5        31.4650   80.1890   -9.7200 C.ar  600  ETC600     -0.0190
     16  C6        32.9600   80.2010   -9.5800 C.3   600  ETC600      0.0308
     17  C7        33.6170   80.8160  -10.8230 C.3   600  ETC600      0.0264
     18  C20       33.4570   79.8620  -12.0570 C.3   600  ETC600      0.0047
     19  C19       34.3010   78.5880  -11.9150 C.3   600  ETC600      0.0004
     20  C4        30.7250   79.1320   -9.2020 C.ar  600  ETC600      0.0378
     21  C3        29.3510   79.1470   -9.3500 C.ar  600  ETC600      0.1954
     22  O23       28.6290   78.1190   -8.8450 O.3   600  ETC600     -0.2866
     23  C2        28.6830   80.1700  -10.0060 C.ar  600  ETC600      0.0420
     24  C1        29.4200   81.2470  -10.5360 C.ar  600  ETC600      0.0026
@<TRIPOS>BOND
     1     1     2    1
     2    11    10    1
     3     2     3    1
     4     9    10   ar
     5     9     8   ar
     6    10    12   ar
     7    12    13   ar
     8     8     7   ar
     9    18    19    1
    10    18    17    1
    11    13     7   ar
    12    13     4    1
    13     7     6    1
    14     3     4    1
    15     3     5    1
    16     6     5    2
    17     6    17    1
    18     5    14    1
    19    17    16    1
    20    24    14   ar
    21    24    23   ar
    22    14    15   ar
    23    23    21   ar
    24    15    16    1
    25    15    20   ar
    26    21    20   ar
    27    21    22    1
