@<TRIPOS>MOLECULE
1l2o_PDM_A_1.pdb
 21 22 0 0 0
SMALL
GASTEIGER

@<TRIPOS>ATOM
      1  CP1       -6.1560   -8.5790   13.4840 C.ar  900  PDM900      0.0613
      2  CP2       -6.0600   -7.7640   12.3570 C.ar  900  PDM900      0.0167
      3  CP3       -7.1400   -6.9730   11.9530 C.ar  900  PDM900      0.0179
      4  CP4       -8.3300   -6.9860   12.6680 C.ar  900  PDM900      0.0734
      5  CP5       -8.4320   -7.7950   13.7930 C.ar  900  PDM900      0.0179
      6  CP6       -7.3520   -8.5860   14.1980 C.ar  900  PDM900      0.0167
      7  CP7       -9.4900   -5.1220   11.3540 C.2   900  PDM900      0.2461
      8  CP8       -9.2400   -5.5660    9.9830 C.3   900  PDM900      0.0990
      9  CP9       -8.6990   -4.4320    9.1070 C.3   900  PDM900      0.1237
     10  C10       -8.4640   -4.9350    7.6510 C.2   900  PDM900      0.3654
     11  C11       -5.0650  -10.1670   14.9980 C.2   900  PDM900      0.2590
     12  NP1       -5.0820   -9.4710   13.8430 N.am  900  PDM900     -0.2011
     13  NP2       -9.4550   -6.1020   12.2730 N.am  900  PDM900     -0.1792
     14  OP1       -6.0350  -10.3630   15.7330 O.2   900  PDM900     -0.2691
     15  OP2       -3.6460   -8.9630   12.1270 O.2   900  PDM900     -0.2691
     16  OP3       -9.3600   -3.9070   11.5610 O.2   900  PDM900     -0.2730
     17  OP4       -7.3880   -4.8830    7.0180 O.co2 900  PDM900     -0.2456
     18  OP5       -9.4730   -4.8470    6.9620 O.co2 900  PDM900     -0.2456
     19  C12       -3.7500  -10.6060   15.1730 C.2   900  PDM900      0.0634
     20  C14       -3.8800   -9.4510   13.2320 C.2   900  PDM900      0.2590
     21  C13       -3.0060  -10.1600   14.0610 C.2   900  PDM900      0.0634
@<TRIPOS>BOND
     1    18    10   ar
     2    17    10   ar
     3    10     9    1
     4     9     8    1
     5     8     7    1
     6     7    16    2
     7     7    13   am
     8     3     2   ar
     9     3     4   ar
    10    15    20    2
    11    13     4    1
    12     2     1   ar
    13     4     5   ar
    14    20    12   am
    15    20    21    1
    16     1    12    1
    17     1     6   ar
    18     5     6   ar
    19    12    11   am
    20    21    19    2
    21    11    19    1
    22    11    14    2
