@<TRIPOS>MOLECULE
1l2o_ADP_A_1.pdb
 27 29 0 0 0
SMALL
GASTEIGER

@<TRIPOS>ATOM
      1  PB        -3.2330    3.6100   -3.0620 P.3   999  ADP999      0.5373
      2  O1B       -3.1390    3.6440   -1.5670 O.3   999  ADP999     -0.1143
      3  O2B       -2.0060    3.2890   -3.7690 O.2   999  ADP999     -0.2221
      4  O3B       -4.3450    2.5990   -3.4680 O.3   999  ADP999     -0.1143
      5  PA        -2.9500    6.3050   -4.0800 P.3   999  ADP999      0.2231
      6  O1A       -1.6500    6.6590   -3.5350 O.3   999  ADP999     -0.4370
      7  O2A       -2.8720    6.0140   -5.5030 O.2   999  ADP999     -0.5169
      8  O3A       -3.6290    5.1020   -3.2460 O.3   999  ADP999     -0.2261
      9  O5'       -3.9510    7.5240   -3.8780 O.3   999  ADP999     -0.3111
     10  C5'       -5.3560    7.6590   -4.3010 C.3   999  ADP999      0.1813
     11  C4'       -5.6370    9.0380   -4.6470 C.3   999  ADP999      0.1821
     12  O4'       -5.7010    9.8240   -3.4190 O.3   999  ADP999     -0.3135
     13  C3'       -4.6140    9.7830   -5.4860 C.3   999  ADP999      0.2184
     14  O3'       -4.9180    9.5330   -6.8470 O.3   999  ADP999     -0.2174
     15  C2'       -4.8440   11.2120   -5.0570 C.3   999  ADP999      0.2570
     16  O2'       -5.9490   11.8580   -5.7000 O.3   999  ADP999     -0.2130
     17  C1'       -5.1130   11.1380   -3.5810 C.3   999  ADP999      0.3186
     18  N9        -3.8580   11.2540   -2.7610 N.pl3 999  ADP999     -0.1439
     19  C8        -3.2570   10.3170   -1.9160 C.3   999  ADP999      0.3377
     20  N7        -2.2610   10.7710   -1.2280 N.2   999  ADP999     -0.2095
     21  C5        -2.1630   12.0830   -1.6840 C.2   999  ADP999      0.2526
     22  C6        -1.2610   13.1430   -1.3530 C.2   999  ADP999      0.4393
     23  N6        -0.2960   12.9670   -0.4680 N.pl3 999  ADP999      0.2180
     24  N1        -1.4200   14.3560   -1.9760 N.2   999  ADP999      0.0021
     25  C2        -2.4100   14.5060   -2.8630 C.3   999  ADP999      0.5254
     26  N3        -3.3220   13.6110   -3.2630 N.2   999  ADP999     -0.0055
     27  C4        -3.1290   12.3760   -2.6150 C.2   999  ADP999      0.3518
@<TRIPOS>BOND
     1    14    13    1
     2    16    15    1
     3     7     5    2
     4    13    15    1
     5    13    11    1
     6    15    17    1
     7    11    10    1
     8    11    12    1
     9    10     9    1
    10     5     9    1
    11     5     6    1
    12     5     8    1
    13     3     1    2
    14    17    12    1
    15    17    18    1
    16     4     1    1
    17    26    25    1
    18    26    27    2
    19     8     1    1
    20     1     2    1
    21    25    24    1
    22    18    27    1
    23    18    19    1
    24    27    21    1
    25    24    22    2
    26    19    20    1
    27    21    22    1
    28    21    20    2
    29    22    23    1
