@<TRIPOS>MOLECULE
1l2s_STC_A_1.pdb
 19 20 0 0 0
SMALL
GASTEIGER

@<TRIPOS>ATOM
      1  N1        23.9580    4.3210   13.8760 N.pl3 1115  STC1115    -0.0965
      2  C2        22.7830    4.6990   13.2060 C.ar  1115  STC1115     0.0911
      3  C3        21.7520    5.3460   13.9220 C.ar  1115  STC1115     0.0189
      4  C4        22.6370    4.4260   11.8220 C.ar  1115  STC1115     0.0189
      5  C5        20.5620    5.7140   13.2600 C.ar  1115  STC1115     0.0128
      6  C6        21.4460    4.7960   11.1610 C.ar  1115  STC1115     0.0128
      7  C7        20.4110    5.4330   11.8830 C.ar  1115  STC1115     0.0578
      8 CL8        18.9380    5.8670   11.0820 Cl    1115  STC1115    -0.0822
      9  S13       25.2760    5.4300   13.8970 S.O2  1115  STC1115     0.0935
     10  C15       25.0170    6.7010   15.2220 C.ar  1115  STC1115     0.1399
     11  O16       26.4830    4.6860   14.1520 O.2   1115  STC1115    -0.1483
     12  O17       25.3670    6.0870   12.6250 O.2   1115  STC1115    -0.1483
     13  C18       24.7470    6.4870   16.5870 C.ar  1115  STC1115     0.1282
     14  C19       25.0600    8.0870   15.0100 C.ar  1115  STC1115     0.0280
     15  S20       24.6290    7.7630   17.2160 S.2   1115  STC1115    -0.0786
     16  C21       24.6010    5.1790   17.2960 C.2   1115  STC1115     0.3950
     17  C22       24.8220    8.7390   16.2240 C.ar  1115  STC1115     0.0371
     18  O23       24.7180    4.0210   16.6520 O.co2 1115  STC1115    -0.2399
     19  O24       24.3710    5.1850   18.4900 O.co2 1115  STC1115    -0.2399
@<TRIPOS>BOND
     1     8     7    1
     2     6     4   ar
     3     6     7   ar
     4     4     2   ar
     5     7     5   ar
     6    12     9    2
     7     2     1    1
     8     2     3   ar
     9     5     3   ar
    10     1     9    1
    11     9    11    2
    12     9    10    1
    13    14    10   ar
    14    14    17   ar
    15    10    13   ar
    16    17    15   ar
    17    13    15   ar
    18    13    16    1
    19    18    16   ar
    20    16    19   ar
