@<TRIPOS>MOLECULE
1l2t_ATP_A_1.pdb
 31 33 0 0 0
SMALL
GASTEIGER

@<TRIPOS>ATOM
      1  PG        31.7070    7.5780   46.5700 P.3   1301  ATP1301     0.5373
      2  O1G       31.5240    8.2150   45.2370 O.2   1301  ATP1301    -0.2221
      3  O2G       33.0440    7.7430   47.2120 O.3   1301  ATP1301    -0.1143
      4  O3G       30.6240    8.0220   47.4620 O.3   1301  ATP1301    -0.1143
      5  PB        30.6180    5.0300   45.6170 P.3   1301  ATP1301     0.2277
      6  O1B       30.1310    3.8590   46.2350 O.3   1301  ATP1301    -0.4368
      7  O2B       30.0270    5.4890   44.3660 O.2   1301  ATP1301    -0.5168
      8  O3B       31.4310    6.0070   46.5560 O.3   1301  ATP1301    -0.2258
      9  PA        32.0260    3.4590   43.6010 P.3   1301  ATP1301     0.2189
     10  O1A       32.7920    4.1790   42.6240 O.2   1301  ATP1301    -0.5170
     11  O2A       31.2660    2.2670   43.2370 O.3   1301  ATP1301    -0.4371
     12  O3A       31.9010    4.1160   45.0420 O.3   1301  ATP1301    -0.2700
     13  O5'       33.3010    2.8850   43.9050 O.3   1301  ATP1301    -0.3112
     14  C5'       34.1370    2.2010   44.4910 C.3   1301  ATP1301     0.1813
     15  C4'       34.8180    1.0100   44.9620 C.3   1301  ATP1301     0.1821
     16  O4'       35.3830    0.2920   43.8170 O.3   1301  ATP1301    -0.3135
     17  C3'       35.8340    1.8150   45.6750 C.3   1301  ATP1301     0.2184
     18  O3'       36.2680    1.3240   46.9020 O.3   1301  ATP1301    -0.2174
     19  C2'       36.9110    2.0240   44.5880 C.3   1301  ATP1301     0.2570
     20  O2'       38.2110    2.1880   45.1200 O.3   1301  ATP1301    -0.2130
     21  C1'       36.7630    0.8060   43.6250 C.3   1301  ATP1301     0.3186
     22  N9        37.0480    1.0430   42.1930 N.pl3 1301  ATP1301    -0.1439
     23  C8        36.3440    1.7290   41.2110 C.3   1301  ATP1301     0.3377
     24  N7        36.9280    1.7140   40.0430 N.2   1301  ATP1301    -0.2095
     25  C5        38.0810    0.9740   40.2760 C.2   1301  ATP1301     0.2526
     26  C6        39.1720    0.5640   39.4250 C.2   1301  ATP1301     0.4393
     27  N6        39.2290    0.8810   38.1310 N.pl3 1301  ATP1301     0.2180
     28  N1        40.1810   -0.1780   39.9840 N.2   1301  ATP1301     0.0021
     29  C2        40.1470   -0.5090   41.2830 C.3   1301  ATP1301     0.5254
     30  N3        39.1950   -0.1960   42.1720 N.2   1301  ATP1301    -0.0055
     31  C4        38.1620    0.5700   41.5750 C.2   1301  ATP1301     0.3518
@<TRIPOS>BOND
     1    27    26    1
     2    26    28    2
     3    26    25    1
     4    28    29    1
     5    24    25    2
     6    24    23    1
     7    25    31    1
     8    23    22    1
     9    29    30    1
    10    31    30    2
    11    31    22    1
    12    22    21    1
    13    10     9    2
    14    11     9    1
    15     9    13    1
    16     9    12    1
    17    21    16    1
    18    21    19    1
    19    16    15    1
    20    13    14    1
    21     7     5    2
    22    14    15    1
    23    19    20    1
    24    19    17    1
    25    15    17    1
    26    12     5    1
    27     2     1    2
    28     5     6    1
    29     5     8    1
    30    17    18    1
    31     8     1    1
    32     1     3    1
    33     1     4    1
