@<TRIPOS>MOLECULE
1l3i_SAH_A_1.pdb
 26 28 0 0 0
SMALL
GASTEIGER

@<TRIPOS>ATOM
      1  N         -2.4850    1.9200   46.8930 N.3   801  SAH801     -0.1208
      2  CA        -1.8170    2.0660   45.5950 C.3   801  SAH801      0.1952
      3  CB        -2.8140    1.8960   44.4180 C.3   801  SAH801      0.0422
      4  CG        -3.4950    0.4990   44.3950 C.3   801  SAH801      0.0597
      5  SD        -4.6440    0.1860   43.0490 S.3   801  SAH801     -0.1375
      6  C         -1.1500    3.4330   45.5390 C.2   801  SAH801      0.3819
      7  O         -1.2550    4.1570   46.5450 O.co2 801  SAH801     -0.2441
      8  OXT       -0.5190    3.7520   44.5110 O.co2 801  SAH801     -0.2441
      9  C5'       -5.1430   -1.4880   43.3710 C.3   801  SAH801      0.0899
     10  C4'       -4.2080   -2.4950   42.8010 C.3   801  SAH801      0.1630
     11  O4'       -4.7970   -3.7650   43.1390 O.3   801  SAH801     -0.3153
     12  C3'       -4.0340   -2.4870   41.2020 C.3   801  SAH801      0.2168
     13  O3'       -2.7160   -2.1680   40.6500 O.3   801  SAH801     -0.2175
     14  C2'       -4.5520   -3.9070   40.8770 C.3   801  SAH801      0.2569
     15  O2'       -4.0520   -4.5500   39.6940 O.3   801  SAH801     -0.2130
     16  C1'       -4.2690   -4.6300   42.1740 C.3   801  SAH801      0.3185
     17  N9        -4.9650   -5.8740   42.4750 N.pl3 801  SAH801     -0.1439
     18  C8        -6.3640   -6.0770   42.5690 C.3   801  SAH801      0.3377
     19  N7        -6.6410   -7.3090   42.8720 N.2   801  SAH801     -0.2095
     20  C5        -5.3940   -7.9660   42.9750 C.2   801  SAH801      0.2526
     21  C6        -5.0170   -9.2880   43.2720 C.2   801  SAH801      0.4393
     22  N6        -5.9190  -10.2400   43.5360 N.pl3 801  SAH801      0.2180
     23  N1        -3.6950   -9.6170   43.3030 N.2   801  SAH801      0.0021
     24  C2        -2.8120   -8.6610   43.0410 C.3   801  SAH801      0.5254
     25  N3        -3.0390   -7.3920   42.7510 N.2   801  SAH801     -0.0055
     26  C4        -4.3540   -7.0940   42.7320 C.2   801  SAH801      0.3518
@<TRIPOS>BOND
     1    15    14    1
     2    13    12    1
     3    14    12    1
     4    14    16    1
     5    12    10    1
     6    16    17    1
     7    16    11    1
     8    17    18    1
     9    17    26    1
    10    18    19    1
    11    26    25    2
    12    26    20    1
    13    25    24    1
    14    10    11    1
    15    10     9    1
    16    19    20    2
    17    20    21    1
    18    24    23    1
    19     5     9    1
    20     5     4    1
    21    21    23    2
    22    21    22    1
    23     4     3    1
    24     3     2    1
    25     8     6   ar
    26     6     2    1
    27     6     7   ar
    28     2     1    1
