@<TRIPOS>MOLECULE
1l3l_LAE_A_1.pdb
 17 17 0 0 0
SMALL
GASTEIGER

@<TRIPOS>ATOM
      1  C1        54.0570   16.1010   82.7900 C.3   1003  LAE1003     0.2189
      2  C2        52.6440   15.9910   83.3210 C.2   1003  LAE1003     0.3460
      3  O3        52.1790   17.1890   83.4890 O.3   1003  LAE1003    -0.4198
      4  C4        53.1210   18.4220   83.1260 C.2   1003  LAE1003     0.1805
      5  C5        54.3620   17.5260   82.6550 C.2   1003  LAE1003     0.0471
      6  O10       52.0550   15.0100   83.5500 O.2   1003  LAE1003    -0.2474
      7  N11       54.1710   15.2500   81.5770 N.am  1003  LAE1003    -0.1907
      8  C13       54.8680   14.1160   81.9610 C.2   1003  LAE1003     0.2496
      9  C14       55.0910   13.0470   80.9030 C.3   1003  LAE1003     0.1510
     10  C15       54.2360   11.7550   80.9320 C.2   1003  LAE1003     0.1599
     11  C18       52.7080   11.9410   80.9810 C.3   1003  LAE1003     0.0650
     12  C19       52.0230   10.9400   81.9040 C.3   1003  LAE1003     0.0078
     13  C22       50.5160   11.1760   81.9310 C.3   1003  LAE1003     0.0004
     14  C25       49.7590   10.2060   82.8300 C.3   1003  LAE1003     0.0000
     15  C28       48.7440    9.3970   82.0310 C.3   1003  LAE1003     0.0000
     16  O35       55.3250   13.8210   83.0600 O.2   1003  LAE1003    -0.2728
     17  O36       54.7500   10.6770   80.9290 O.2   1003  LAE1003    -0.2955
@<TRIPOS>BOND
     1     9    10    1
     2     9     8    1
     3    17    10    2
     4    10    11    1
     5    11    12    1
     6     7     8   am
     7     7     1    1
     8    12    13    1
     9    13    14    1
    10     8    16    2
    11    15    14    1
    12     5     1    1
    13     5     4    2
    14     1     2    1
    15     4     3    1
    16     2     3    1
    17     2     6    2
