@<TRIPOS>MOLECULE
1l3r_ADP_E_1.pdb
 27 29 0 0 0
SMALL
GASTEIGER

@<TRIPOS>ATOM
      1  PB        14.3740   10.2720   -1.0230 P.3   381  ADP381      0.5373
      2  O1B       15.5200   11.2180   -0.9780 O.3   381  ADP381     -0.1143
      3  O2B       13.8770    9.9310   -2.3720 O.2   381  ADP381     -0.2221
      4  O3B       14.6300    8.9380   -0.4530 O.3   381  ADP381     -0.1143
      5  PA        11.8590    9.9040   -0.1730 P.3   381  ADP381      0.2231
      6  O1A       10.8150   10.0940   -1.1990 O.2   381  ADP381     -0.5169
      7  O2A       12.1870    8.5160    0.2360 O.3   381  ADP381     -0.4370
      8  O3A       13.1260   10.7350   -0.2830 O.3   381  ADP381     -0.2261
      9  O5'       11.1710   10.4890    1.1420 O.3   381  ADP381     -0.3111
     10  C5'       11.9330   10.6690    2.3410 C.3   381  ADP381      0.1813
     11  C4'       11.1600   10.1900    3.5530 C.3   381  ADP381      0.1821
     12  O4'        9.9540   10.9810    3.7120 O.3   381  ADP381     -0.3135
     13  C3'       10.6610    8.7550    3.5300 C.3   381  ADP381      0.2184
     14  O3'       11.6890    7.8540    3.9140 O.3   381  ADP381     -0.2174
     15  C2'        9.5280    8.8020    4.5530 C.3   381  ADP381      0.2570
     16  O2'        9.9700    8.7760    5.8970 O.3   381  ADP381     -0.2130
     17  C1'        8.9240   10.1780    4.2680 C.3   381  ADP381      0.3186
     18  N9         7.8010   10.1490    3.3280 N.pl3 381  ADP381     -0.1439
     19  C8         7.8480   10.1000    1.9590 C.3   381  ADP381      0.3377
     20  N7         6.6690   10.1040    1.3870 N.2   381  ADP381     -0.2095
     21  C5         5.7820   10.1590    2.4520 C.2   381  ADP381      0.2526
     22  C6         4.3780   10.1910    2.5090 C.2   381  ADP381      0.4393
     23  N6         3.5920   10.2020    1.4270 N.pl3 381  ADP381      0.2180
     24  N1         3.8000   10.2170    3.7290 N.2   381  ADP381      0.0021
     25  C2         4.5910   10.2240    4.8120 C.3   381  ADP381      0.5254
     26  N3         5.9240   10.2160    4.8850 N.2   381  ADP381     -0.0055
     27  C4         6.4640   10.1770    3.6550 C.2   381  ADP381      0.3518
@<TRIPOS>BOND
     1     3     1    2
     2     6     5    2
     3     1     2    1
     4     1     4    1
     5     1     8    1
     6     8     5    1
     7     5     7    1
     8     5     9    1
     9     9    10    1
    10    20    19    1
    11    20    21    2
    12    23    22    1
    13    19    18    1
    14    10    11    1
    15    21    22    1
    16    21    27    1
    17    22    24    2
    18    18    27    1
    19    18    17    1
    20    13    11    1
    21    13    14    1
    22    13    15    1
    23    11    12    1
    24    27    26    2
    25    12    17    1
    26    24    25    1
    27    17    15    1
    28    15    16    1
    29    25    26    1
