@<TRIPOS>MOLECULE
1l4e_RBZ_A_1.pdb
 24 26 0 0 0
SMALL
GASTEIGER

@<TRIPOS>ATOM
      1  N3        56.3540   41.7500   14.0850 N.2   990  RBZ990     -0.2549
      2  N1        56.8020   40.9860   11.9760 N.3   990  RBZ990     -0.2199
      3  C2        55.9760   40.9700   13.0650 C.3   990  RBZ990      0.2029
      4  C7A       57.8250   41.8960   12.3890 C.3   990  RBZ990      0.1232
      5  C3A       57.5270   42.3640   13.6930 C.2   990  RBZ990      0.0738
      6  C4        58.3770   43.2990   14.3550 C.2   990  RBZ990      0.0114
      7  C5        59.5460   43.7730   13.7030 C.2   990  RBZ990     -0.0248
      8  C6        59.8730   43.2930   12.3570 C.2   990  RBZ990     -0.0283
      9  C7        59.0120   42.3680   11.7190 C.2   990  RBZ990     -0.0089
     10  C8        60.4460   44.7830   14.4250 C.3   990  RBZ990      0.0307
     11  C9        61.1150   43.7710   11.6270 C.3   990  RBZ990      0.0304
     12  P         59.7420   39.3170    6.1690 P.3   990  RBZ990      0.5327
     13  O1P       59.5150   38.0620    5.3650 O.3   990  RBZ990     -0.1145
     14  O2P       59.8890   40.4820    5.2490 O.2   990  RBZ990     -0.2224
     15  O3P       60.9740   39.1860    6.9760 O.3   990  RBZ990     -0.1145
     16  O5'       58.4870   39.5720    7.1120 O.3   990  RBZ990     -0.2675
     17  C5'       58.1030   38.5770    8.0860 C.3   990  RBZ990      0.1859
     18  C4'       58.4110   38.9950    9.5270 C.3   990  RBZ990      0.1798
     19  O4'       57.8840   40.3250    9.8840 O.3   990  RBZ990     -0.3354
     20  C3'       57.8340   38.1240   10.6120 C.3   990  RBZ990      0.2155
     21  O3'       58.6180   38.1610   11.8230 O.3   990  RBZ990     -0.2176
     22  C2'       56.4420   38.7360   10.7500 C.3   990  RBZ990      0.2272
     23  O2'       55.8720   38.2960   11.9880 O.3   990  RBZ990     -0.2161
     24  C1'       56.6860   40.2480   10.6630 C.3   990  RBZ990      0.2115
@<TRIPOS>BOND
     1    14    12    2
     2    13    12    1
     3    12    15    1
     4    12    16    1
     5    16    17    1
     6    17    18    1
     7    18    19    1
     8    18    20    1
     9    19    24    1
    10    20    22    1
    11    20    21    1
    12    24    22    1
    13    24     2    1
    14    22    23    1
    15    11     8    1
    16     9     8    2
    17     9     4    1
    18     2     4    1
    19     2     3    1
    20     8     7    1
    21     4     5    1
    22     3     1    1
    23     5     1    2
    24     5     6    1
    25     7     6    2
    26     7    10    1
