@<TRIPOS>MOLECULE
1l4f_150_A_1.pdb
 10 10 0 0 0
SMALL
GASTEIGER

@<TRIPOS>ATOM
      1  N1        56.3310   41.3910   14.1030 N.pl3 990  150990     -0.1267
      2  N2        57.3840   40.9490   11.5290 N.pl3 990  150990     -0.1267
      3  C1        57.4940   42.1210   13.6800 C.ar  990  150990      0.1054
      4  C2        58.0170   41.8930   12.4090 C.ar  990  150990      0.1054
      5  C3        59.1020   42.5420   12.0010 C.ar  990  150990      0.0149
      6  C4        59.6990   43.4420   12.8220 C.ar  990  150990     -0.0244
      7  C5        59.1800   43.6780   14.0850 C.ar  990  150990     -0.0244
      8  C6        58.0700   43.0030   14.5010 C.ar  990  150990      0.0149
      9  C7        60.9170   44.1980   12.3640 C.3   990  150990      0.0307
     10  C8        59.8580   44.6760   14.9750 C.3   990  150990      0.0307
@<TRIPOS>BOND
     1     2     4    1
     2     5     4   ar
     3     5     6   ar
     4     9     6    1
     5     4     3   ar
     6     6     7   ar
     7     3     1    1
     8     3     8   ar
     9     7     8   ar
    10     7    10    1
