@<TRIPOS>MOLECULE
1l4f_NCN_A_1.pdb
 22 23 0 0 0
SMALL
GASTEIGER

@<TRIPOS>ATOM
      1  P         59.4530   39.3480    5.9850 P.3   991  NCN991      0.5327
      2  O1P       59.2590   38.1420    5.1070 O.2   991  NCN991     -0.2224
      3  O2P       59.7820   40.5250    5.1380 O.3   991  NCN991     -0.1145
      4  O3P       60.6690   39.0930    7.0450 O.3   991  NCN991     -0.1145
      5  O5'       58.1230   39.6210    6.7930 O.3   991  NCN991     -0.2675
      6  C5'       57.6250   38.5880    7.6560 C.3   991  NCN991      0.1859
      7  C4'       57.5950   39.1320    9.0460 C.3   991  NCN991      0.1801
      8  O4'       56.7550   40.3300    9.0710 O.3   991  NCN991     -0.3327
      9  C3'       57.0510   38.1770   10.0910 C.3   991  NCN991      0.2158
     10  O3'       57.8030   38.1680   11.3320 O.3   991  NCN991     -0.2175
     11  C2'       55.5620   38.6320   10.2190 C.3   991  NCN991      0.2309
     12  O2'       55.2290   38.6510   11.6410 O.3   991  NCN991     -0.2158
     13  C1'       55.4750   40.0240    9.5460 C.3   991  NCN991      0.2263
     14  N1        54.4460   40.1950    8.4190 N.pl3 991  NCN991     -0.2787
     15  C6        54.8040   40.8660    7.1930 C.3   991  NCN991      0.1195
     16  C5        53.7650   40.9600    6.2600 C.2   991  NCN991     -0.0044
     17  C4        52.4350   40.4730    6.4080 C.2   991  NCN991      0.0050
     18  C3        52.1990   39.8200    7.6920 C.2   991  NCN991      0.0940
     19  C2        53.1830   39.6770    8.6800 C.2   991  NCN991      0.0699
     20  C7        50.7340   39.3680    7.6790 C.2   991  NCN991      0.3890
     21  O7        49.9130   39.5240    6.7850 O.co2 991  NCN991     -0.2405
     22  O8        50.4680   38.7490    8.8440 O.co2 991  NCN991     -0.2405
@<TRIPOS>BOND
     1     2     1    2
     2     3     1    1
     3     1     5    1
     4     1     4    1
     5    16    17    2
     6    16    15    1
     7    17    18    1
     8    21    20   ar
     9     5     6    1
    10    15    14    1
    11     6     7    1
    12    20    18    1
    13    20    22   ar
    14    18    19    2
    15    14    19    1
    16    14    13    1
    17     7     8    1
    18     7     9    1
    19     8    13    1
    20    13    11    1
    21     9    11    1
    22     9    10    1
    23    11    12    1
