@<TRIPOS>MOLECULE
1l4g_NCN_A_1.pdb
 22 23 0 0 0
SMALL
GASTEIGER

@<TRIPOS>ATOM
      1  P         59.2710   39.3370    5.8100 P.3   991  NCN991      0.5327
      2  O1P       59.0830   38.1460    4.9380 O.2   991  NCN991     -0.2224
      3  O2P       59.5240   40.5410    4.9600 O.3   991  NCN991     -0.1145
      4  O3P       60.5380   39.1180    6.8170 O.3   991  NCN991     -0.1145
      5  O5'       57.9620   39.6000    6.6650 O.3   991  NCN991     -0.2675
      6  C5'       57.4800   38.5780    7.5610 C.3   991  NCN991      0.1859
      7  C4'       57.4520   39.1020    8.8760 C.3   991  NCN991      0.1801
      8  O4'       56.6410   40.3130    8.9330 O.3   991  NCN991     -0.3327
      9  C3'       56.9170   38.1940    9.9620 C.3   991  NCN991      0.2158
     10  O3'       57.6300   38.3290   11.2200 O.3   991  NCN991     -0.2175
     11  C2'       55.4160   38.6090   10.0260 C.3   991  NCN991      0.2309
     12  O2'       54.9750   38.5670   11.4080 O.3   991  NCN991     -0.2158
     13  C1'       55.3530   40.0100    9.3760 C.3   991  NCN991      0.2263
     14  N1        54.3570   40.1970    8.2500 N.pl3 991  NCN991     -0.2787
     15  C6        54.7240   40.8380    7.0130 C.3   991  NCN991      0.1195
     16  C5        53.6700   40.9270    6.0920 C.2   991  NCN991     -0.0044
     17  C4        52.3260   40.4620    6.2730 C.2   991  NCN991      0.0050
     18  C3        52.1070   39.8390    7.5800 C.2   991  NCN991      0.0940
     19  C2        53.0960   39.7130    8.5380 C.2   991  NCN991      0.0699
     20  C7        50.6490   39.4030    7.6330 C.2   991  NCN991      0.3890
     21  O7        49.7980   39.5230    6.7820 O.co2 991  NCN991     -0.2405
     22  O8        50.4300   38.8380    8.8130 O.co2 991  NCN991     -0.2405
@<TRIPOS>BOND
     1     2     1    2
     2     3     1    1
     3     1     5    1
     4     1     4    1
     5    16    17    2
     6    16    15    1
     7    17    18    1
     8     5     6    1
     9    21    20   ar
    10    15    14    1
    11     6     7    1
    12    18    20    1
    13    18    19    2
    14    20    22   ar
    15    14    19    1
    16    14    13    1
    17     7     8    1
    18     7     9    1
    19     8    13    1
    20    13    11    1
    21     9    11    1
    22     9    10    1
    23    11    12    1
