@<TRIPOS>MOLECULE
1l4h_NCN_A_1.pdb
 22 23 0 0 0
SMALL
GASTEIGER

@<TRIPOS>ATOM
      1  P         59.2780   39.3980    5.9510 P.3   991  NCN991      0.5327
      2  O1P       59.0890   38.1500    5.1290 O.3   991  NCN991     -0.1145
      3  O2P       59.5860   40.5470    5.0550 O.2   991  NCN991     -0.2224
      4  O3P       60.5070   39.1820    7.0020 O.3   991  NCN991     -0.1145
      5  O5'       57.9560   39.6970    6.7710 O.3   991  NCN991     -0.2675
      6  C5'       57.4670   38.6830    7.6700 C.3   991  NCN991      0.1859
      7  C4'       57.4050   39.2500    9.0580 C.3   991  NCN991      0.1801
      8  O4'       56.5470   40.4330    9.0570 O.3   991  NCN991     -0.3327
      9  C3'       56.8520   38.3010   10.0990 C.3   991  NCN991      0.2158
     10  O3'       57.5410   38.3470   11.3750 O.3   991  NCN991     -0.2175
     11  C2'       55.3470   38.7030   10.1620 C.3   991  NCN991      0.2309
     12  O2'       54.9520   38.6990   11.5650 O.3   991  NCN991     -0.2158
     13  C1'       55.2590   40.0940    9.4880 C.3   991  NCN991      0.2263
     14  N1        54.2700   40.2440    8.3320 N.pl3 991  NCN991     -0.2787
     15  C6        54.6490   40.8740    7.1000 C.3   991  NCN991      0.1195
     16  C5        53.6210   40.9470    6.1450 C.2   991  NCN991     -0.0044
     17  C4        52.2870   40.4760    6.2900 C.2   991  NCN991      0.0050
     18  C3        52.0420   39.8600    7.5950 C.2   991  NCN991      0.0940
     19  C2        53.0110   39.7480    8.5910 C.2   991  NCN991      0.0699
     20  C7        50.5820   39.4070    7.6090 C.2   991  NCN991      0.3890
     21  O7        49.7530   39.5230    6.7270 O.co2 991  NCN991     -0.2405
     22  O8        50.3390   38.8350    8.7890 O.co2 991  NCN991     -0.2405
@<TRIPOS>BOND
     1     3     1    2
     2     2     1    1
     3     1     5    1
     4     1     4    1
     5    16    17    2
     6    16    15    1
     7    17    18    1
     8    21    20   ar
     9     5     6    1
    10    15    14    1
    11    18    20    1
    12    18    19    2
    13    20    22   ar
    14     6     7    1
    15    14    19    1
    16    14    13    1
    17     8     7    1
    18     8    13    1
    19     7     9    1
    20    13    11    1
    21     9    11    1
    22     9    10    1
    23    11    12    1
