@<TRIPOS>MOLECULE
1l4k_NCN_A_1.pdb
 22 23 0 0 0
SMALL
GASTEIGER

@<TRIPOS>ATOM
      1  P         59.3870   39.3420    5.8940 P.3   991  NCN991      0.5327
      2  O1P       59.1570   38.1250    5.0600 O.3   991  NCN991     -0.1145
      3  O2P       59.6980   40.5230    5.0160 O.2   991  NCN991     -0.2224
      4  O3P       60.6410   39.1130    6.9200 O.3   991  NCN991     -0.1145
      5  O5'       58.0880   39.6530    6.7630 O.3   991  NCN991     -0.2675
      6  C5'       57.5900   38.6340    7.6690 C.3   991  NCN991      0.1859
      7  C4'       57.5520   39.1390    8.9770 C.3   991  NCN991      0.1801
      8  O4'       56.7230   40.3490    9.0420 O.3   991  NCN991     -0.3327
      9  C3'       56.9920   38.1900   10.0290 C.3   991  NCN991      0.2158
     10  O3'       57.6770   38.2520   11.3150 O.3   991  NCN991     -0.2175
     11  C2'       55.4830   38.6070   10.0820 C.3   991  NCN991      0.2309
     12  O2'       55.0180   38.5540   11.4620 O.3   991  NCN991     -0.2158
     13  C1'       55.4200   40.0210    9.4550 C.3   991  NCN991      0.2263
     14  N1        54.4330   40.2090    8.3100 N.pl3 991  NCN991     -0.2787
     15  C6        54.8060   40.8800    7.0890 C.3   991  NCN991      0.1195
     16  C5        53.7690   40.9700    6.1440 C.2   991  NCN991     -0.0044
     17  C4        52.4340   40.4820    6.2870 C.2   991  NCN991      0.0050
     18  C3        52.2020   39.8290    7.5770 C.2   991  NCN991      0.0940
     19  C2        53.1790   39.7000    8.5640 C.2   991  NCN991      0.0699
     20  C7        50.7480   39.3690    7.5850 C.2   991  NCN991      0.3890
     21  O7        49.9260   39.5040    6.7040 O.co2 991  NCN991     -0.2405
     22  O8        50.5020   38.7670    8.7570 O.co2 991  NCN991     -0.2405
@<TRIPOS>BOND
     1     3     1    2
     2     2     1    1
     3     1     5    1
     4     1     4    1
     5    16    17    2
     6    16    15    1
     7    17    18    1
     8    21    20   ar
     9     5     6    1
    10    15    14    1
    11    18    20    1
    12    18    19    2
    13    20    22   ar
    14     6     7    1
    15    14    19    1
    16    14    13    1
    17     7     8    1
    18     7     9    1
    19     8    13    1
    20    13    11    1
    21     9    11    1
    22     9    10    1
    23    11    12    1
