@<TRIPOS>MOLECULE
1l4l_NCN_A_1.pdb
 22 23 0 0 0
SMALL
GASTEIGER

@<TRIPOS>ATOM
      1  P         59.2990   39.3700    5.9060 P.3   991  NCN991      0.5327
      2  O1P       59.0940   38.1500    5.0780 O.3   991  NCN991     -0.1145
      3  O2P       59.5910   40.5480    5.0390 O.2   991  NCN991     -0.2224
      4  O3P       60.5320   39.1420    6.9360 O.3   991  NCN991     -0.1145
      5  O5'       57.9870   39.6570    6.7400 O.3   991  NCN991     -0.2675
      6  C5'       57.5040   38.6350    7.6250 C.3   991  NCN991      0.1859
      7  C4'       57.4280   39.2000    9.0000 C.3   991  NCN991      0.1801
      8  O4'       56.5810   40.3820    8.9780 O.3   991  NCN991     -0.3327
      9  C3'       56.8670   38.2550   10.0350 C.3   991  NCN991      0.2158
     10  O3'       57.5620   38.2840   11.3140 O.3   991  NCN991     -0.2175
     11  C2'       55.3680   38.6760   10.0900 C.3   991  NCN991      0.2309
     12  O2'       54.9560   38.6970   11.4870 O.3   991  NCN991     -0.2158
     13  C1'       55.2940   40.0580    9.4060 C.3   991  NCN991      0.2263
     14  N1        54.3030   40.2120    8.2640 N.pl3 991  NCN991     -0.2787
     15  C6        54.6720   40.8430    7.0240 C.3   991  NCN991      0.1195
     16  C5        53.6290   40.9250    6.0780 C.2   991  NCN991     -0.0044
     17  C4        52.2890   40.4620    6.2520 C.2   991  NCN991      0.0050
     18  C3        52.0600   39.8440    7.5690 C.2   991  NCN991      0.0940
     19  C2        53.0480   39.7270    8.5460 C.2   991  NCN991      0.0699
     20  C7        50.5940   39.4000    7.6230 C.2   991  NCN991      0.3890
     21  O7        49.7510   39.5210    6.7670 O.co2 991  NCN991     -0.2405
     22  O8        50.3620   38.8280    8.8150 O.co2 991  NCN991     -0.2405
@<TRIPOS>BOND
     1     3     1    2
     2     2     1    1
     3     1     5    1
     4     1     4    1
     5    16    17    2
     6    16    15    1
     7    17    18    1
     8     5     6    1
     9    21    20   ar
    10    15    14    1
    11    18    20    1
    12    18    19    2
    13    20    22   ar
    14     6     7    1
    15    14    19    1
    16    14    13    1
    17     8     7    1
    18     8    13    1
    19     7     9    1
    20    13    11    1
    21     9    11    1
    22     9    10    1
    23    11    12    1
