@<TRIPOS>MOLECULE
1l4m_NCN_A_1.pdb
 22 23 0 0 0
SMALL
GASTEIGER

@<TRIPOS>ATOM
      1  P         59.4300   39.2960    5.9010 P.3   991  NCN991      0.5327
      2  O1P       59.2700   38.0770    5.0650 O.3   991  NCN991     -0.1145
      3  O2P       59.7170   40.4710    5.0340 O.2   991  NCN991     -0.2224
      4  O3P       60.6480   39.1120    6.9360 O.3   991  NCN991     -0.1145
      5  O5'       58.0940   39.5740    6.7100 O.3   991  NCN991     -0.2675
      6  C5'       57.5980   38.5640    7.6070 C.3   991  NCN991      0.1859
      7  C4'       57.5520   39.1390    8.9910 C.3   991  NCN991      0.1801
      8  O4'       56.7150   40.3360    9.0030 O.3   991  NCN991     -0.3327
      9  C3'       56.9970   38.2110   10.0520 C.3   991  NCN991      0.2158
     10  O3'       57.6940   38.3020   11.3180 O.3   991  NCN991     -0.2175
     11  C2'       55.4910   38.6290   10.1090 C.3   991  NCN991      0.2309
     12  O2'       55.0480   38.6150   11.4950 O.3   991  NCN991     -0.2158
     13  C1'       55.4260   40.0190    9.4470 C.3   991  NCN991      0.2263
     14  N1        54.4330   40.1990    8.3320 N.pl3 991  NCN991     -0.2787
     15  C6        54.8010   40.8480    7.0980 C.3   991  NCN991      0.1195
     16  C5        53.7580   40.9490    6.1680 C.2   991  NCN991     -0.0044
     17  C4        52.4210   40.4720    6.3360 C.2   991  NCN991      0.0050
     18  C3        52.1930   39.8410    7.6410 C.2   991  NCN991      0.0940
     19  C2        53.1800   39.6980    8.6060 C.2   991  NCN991      0.0699
     20  C7        50.7340   39.3890    7.6710 C.2   991  NCN991      0.3890
     21  O7        49.8930   39.5270    6.8110 O.co2 991  NCN991     -0.2405
     22  O8        50.4990   38.7980    8.8440 O.co2 991  NCN991     -0.2405
@<TRIPOS>BOND
     1     3     1    2
     2     2     1    1
     3     1     5    1
     4     1     4    1
     5    16    17    2
     6    16    15    1
     7    17    18    1
     8     5     6    1
     9    21    20   ar
    10    15    14    1
    11     6     7    1
    12    18    20    1
    13    18    19    2
    14    20    22   ar
    15    14    19    1
    16    14    13    1
    17     7     8    1
    18     7     9    1
    19     8    13    1
    20    13    11    1
    21     9    11    1
    22     9    10    1
    23    11    12    1
