@<TRIPOS>MOLECULE
1l4u_ADP_A_1.pdb
 27 29 0 0 0
SMALL
GASTEIGER

@<TRIPOS>ATOM
      1  PB        42.6300    8.7350   13.9190 P.3   180  ADP180      0.5373
      2  O1B       41.5610    9.7790   13.8130 O.3   180  ADP180     -0.1143
      3  O2B       43.4310    8.4870   12.5420 O.2   180  ADP180     -0.2221
      4  O3B       43.6060    9.0770   14.9940 O.3   180  ADP180     -0.1143
      5  PA        42.1740    5.9240   13.6610 P.3   180  ADP180      0.2231
      6  O1A       43.6040    5.6090   13.8310 O.3   180  ADP180     -0.4370
      7  O2A       41.7610    5.8340   12.2530 O.2   180  ADP180     -0.5169
      8  O3A       41.9280    7.3620   14.1940 O.3   180  ADP180     -0.2261
      9  O5'       41.2340    5.0250   14.5980 O.3   180  ADP180     -0.3111
     10  C5'       41.4800    4.9090   16.0110 C.3   180  ADP180      0.1813
     11  C4'       40.9350    3.5140   16.4560 C.3   180  ADP180      0.1821
     12  O4'       39.5290    3.6010   16.5860 O.3   180  ADP180     -0.3135
     13  C3'       41.2160    2.3920   15.4400 C.3   180  ADP180      0.2184
     14  O3'       41.5660    1.1610   16.0980 O.3   180  ADP180     -0.2174
     15  C2'       39.9130    2.1980   14.6910 C.3   180  ADP180      0.2570
     16  O2'       39.7550    0.8440   14.2180 O.3   180  ADP180     -0.2130
     17  C1'       38.8790    2.6360   15.7290 C.3   180  ADP180      0.3186
     18  N9        37.6690    3.2660   15.0980 N.pl3 180  ADP180     -0.1439
     19  C8        37.7090    4.2600   14.1800 C.3   180  ADP180      0.3377
     20  N7        36.4860    4.4670   13.7080 N.2   180  ADP180     -0.2095
     21  C5        35.6580    3.6390   14.3070 C.2   180  ADP180      0.2526
     22  C6        34.2800    3.3980   14.2480 C.2   180  ADP180      0.4393
     23  N6        33.5020    4.1100   13.4190 N.pl3 180  ADP180      0.2180
     24  N1        33.7230    2.4270   15.0440 N.2   180  ADP180      0.0021
     25  C2        34.4800    1.6920   15.8970 C.3   180  ADP180      0.5254
     26  N3        35.8050    1.9210   15.9640 N.2   180  ADP180     -0.0055
     27  C4        36.4280    2.8630   15.2050 C.2   180  ADP180      0.3518
@<TRIPOS>BOND
     1     7     5    2
     2     3     1    2
     3    23    22    1
     4     5     6    1
     5     5     8    1
     6     5     9    1
     7    20    19    1
     8    20    21    2
     9     2     1    1
    10     1     8    1
    11     1     4    1
    12    19    18    1
    13    16    15    1
    14    22    21    1
    15    22    24    2
    16    21    27    1
    17     9    10    1
    18    15    13    1
    19    15    17    1
    20    24    25    1
    21    18    27    1
    22    18    17    1
    23    27    26    2
    24    13    14    1
    25    13    11    1
    26    17    12    1
    27    25    26    1
    28    10    11    1
    29    11    12    1
