@<TRIPOS>MOLECULE
1l4y_ADP_A_1.pdb
 27 29 0 0 0
SMALL
GASTEIGER

@<TRIPOS>ATOM
      1  PB        42.6130    8.6850   13.9320 P.3   180  ADP180      0.5373
      2  O1B       41.5530    9.7170   13.7480 O.3   180  ADP180     -0.1143
      3  O2B       43.4570    8.3770   12.5880 O.2   180  ADP180     -0.2221
      4  O3B       43.5570    9.0760   15.0140 O.3   180  ADP180     -0.1143
      5  PA        42.0860    5.8810   13.6810 P.3   180  ADP180      0.2231
      6  O1A       43.5000    5.5170   13.8070 O.3   180  ADP180     -0.4370
      7  O2A       41.6340    5.8300   12.2830 O.2   180  ADP180     -0.5169
      8  O3A       41.9050    7.3250   14.2460 O.3   180  ADP180     -0.2261
      9  O5'       41.1450    5.0030   14.6260 O.3   180  ADP180     -0.3111
     10  C5'       41.4260    4.8460   16.0340 C.3   180  ADP180      0.1813
     11  C4'       40.8370    3.4620   16.4630 C.3   180  ADP180      0.1821
     12  O4'       39.4230    3.5790   16.5580 O.3   180  ADP180     -0.3135
     13  C3'       41.1080    2.3370   15.4460 C.3   180  ADP180      0.2184
     14  O3'       41.3670    1.0850   16.1020 O.3   180  ADP180     -0.2174
     15  C2'       39.8300    2.2180   14.6490 C.3   180  ADP180      0.2570
     16  O2'       39.6520    0.8960   14.0960 O.3   180  ADP180     -0.2130
     17  C1'       38.7820    2.6270   15.6750 C.3   180  ADP180      0.3186
     18  N9        37.5800    3.2630   15.0340 N.pl3 180  ADP180     -0.1439
     19  C8        37.6310    4.2290   14.0940 C.3   180  ADP180      0.3377
     20  N7        36.4080    4.4450   13.6180 N.2   180  ADP180     -0.2095
     21  C5        35.5710    3.6530   14.2400 C.2   180  ADP180      0.2526
     22  C6        34.1920    3.4300   14.1900 C.2   180  ADP180      0.4393
     23  N6        33.4300    4.1290   13.3480 N.pl3 180  ADP180      0.2180
     24  N1        33.6180    2.4900   15.0150 N.2   180  ADP180      0.0021
     25  C2        34.3640    1.7650   15.8830 C.3   180  ADP180      0.5254
     26  N3        35.6950    1.9730   15.9420 N.2   180  ADP180     -0.0055
     27  C4        36.3290    2.8860   15.1570 C.2   180  ADP180      0.3518
@<TRIPOS>BOND
     1     7     5    2
     2     3     1    2
     3    23    22    1
     4    20    19    1
     5    20    21    2
     6     5     6    1
     7     5     8    1
     8     5     9    1
     9     2     1    1
    10     1     8    1
    11     1     4    1
    12    19    18    1
    13    16    15    1
    14    22    21    1
    15    22    24    2
    16    21    27    1
    17     9    10    1
    18    15    13    1
    19    15    17    1
    20    24    25    1
    21    18    27    1
    22    18    17    1
    23    27    26    2
    24    13    14    1
    25    13    11    1
    26    17    12    1
    27    25    26    1
    28    10    11    1
    29    11    12    1
