@<TRIPOS>MOLECULE
1l5g_III_C_1.pdb
 42 43 0 0 0
SMALL
GASTEIGER

@<TRIPOS>ATOM
      1  N         18.1970   44.7460   45.0460 N.2   5001  ARG5001    -0.1899
      2  CA        17.2920   45.3070   44.0620 C.3   5001  ARG5001     0.2192
      3  C         17.8230   44.6660   42.7760 C.1   5001  ARG5001     0.1502
      4  O         19.0410   44.6170   42.5610 O.2   5001  ARG5001    -0.2250
      5  CB        17.3570   46.8330   44.0180 C.3   5001  ARG5001     0.0460
      6  CG        16.6360   47.5140   45.1750 C.3   5001  ARG5001     0.0501
      7  CD        16.4090   49.0040   44.9140 C.3   5001  ARG5001     0.2205
      8  NE        15.4460   49.2450   43.8450 N.pl3 5001  ARG5001    -0.0865
      9  CZ        15.3020   50.4050   43.2130 C.cat 5001  ARG5001     0.5346
     10  NH1       16.0600   51.4440   43.5430 N.pl3 5001  ARG5001     0.1354
     11  NH2       14.4400   50.5110   42.2050 N.pl3 5001  ARG5001     0.1354
     12  N         16.9150   44.0840   41.9880 N.2   5002  GLY5002    -0.1863
     13  CA        17.2940   43.4020   40.7580 C.3   5002  GLY5002     0.2578
     14  C         17.7210   41.9840   41.0950 C.1   5002  GLY5002     0.1533
     15  O         17.0660   41.3150   41.8910 O.2   5002  GLY5002    -0.2249
     16  N         18.8170   41.5250   40.4990 N.2   5003  ASP5003    -0.1890
     17  CA        19.3410   40.1820   40.7690 C.3   5003  ASP5003     0.2303
     18  C         20.2730   40.2700   41.9910 C.1   5003  ASP5003     0.1501
     19  O         21.4690   39.9740   41.9020 O.2   5003  ASP5003    -0.2250
     20  CB        20.1110   39.6820   39.5440 C.3   5003  ASP5003     0.1562
     21  CG        20.5100   38.2190   39.6480 C.2   5003  ASP5003     0.3680
     22  OD1       19.7900   37.4530   40.3220 O.co2 5003  ASP5003    -0.2455
     23  OD2       21.5340   37.8350   39.0320 O.co2 5003  ASP5003    -0.2455
     24  N         19.6990   40.6780   43.1270 N.2   5004  PHE5004    -0.1970
     25  CA        20.4190   40.8760   44.3920 C.3   5004  PHE5004     0.1947
     26  C         19.4540   41.5260   45.3750 C.2   5004  PHE5004     0.2499
     27  O         18.3730   40.9880   45.6380 O.2   5004  PHE5004    -0.2727
     28  CB        20.9280   39.5500   44.9710 C.3   5004  PHE5004     0.0609
     29  CG        21.7240   39.6950   46.2680 C.ar  5004  PHE5004    -0.0197
     30  CD1       23.1170   39.7470   46.2470 C.ar  5004  PHE5004    -0.0042
     31  CD2       21.0780   39.7330   47.5070 C.ar  5004  PHE5004    -0.0042
     32  CE1       23.8490   39.8330   47.4320 C.ar  5004  PHE5004    -0.0003
     33  CE2       21.8030   39.8200   48.6940 C.ar  5004  PHE5004    -0.0003
     34  CZ        23.1920   39.8690   48.6530 C.ar  5004  PHE5004    -0.0000
     35  N         19.8190   42.7030   45.9150 N.am  5005  VAL5005    -0.2641
     36  CN        20.8370   43.4690   45.3440 C.3   5005  VAL5005     0.1159
     37  CA        18.8730   43.3130   46.8670 C.3   5005  VAL5005     0.1822
     38  CB        19.5870   44.3750   47.7620 C.3   5005  VAL5005     0.0343
     39  CG1       18.6310   44.8630   48.8550 C.3   5005  VAL5005     0.0029
     40  CG2       20.8450   43.7770   48.4160 C.3   5005  VAL5005     0.0029
     41  C         17.7740   43.9140   45.9930 C.1   5005  VAL5005     0.1450
     42  O         16.5800   43.6130   46.1590 O.2   5005  VAL5005    -0.2253
@<TRIPOS>BOND
     1    23    21   ar
     2    20    21    1
     3    20    17    1
     4    21    22   ar
     5    16    17    1
     6    16    14    2
     7    13    14    1
     8    13    12    1
     9    17    18    1
    10    14    15    2
    11    19    18    2
    12    12     3    2
    13    18    24    2
    14    11     9    1
    15     4     3    2
    16     3     2    1
    17    24    25    1
    18     9    10    1
    19     9     8    2
    20     8     7    1
    21     5     2    1
    22     5     6    1
    23     2     1    1
    24    25    28    1
    25    25    26    1
    26     7     6    1
    27    28    29    1
    28     1    41    2
    29    36    35    1
    30    26    27    2
    31    26    35   am
    32    35    37    1
    33    41    42    2
    34    41    37    1
    35    30    29   ar
    36    30    32   ar
    37    29    31   ar
    38    37    38    1
    39    32    34   ar
    40    31    33   ar
    41    38    40    1
    42    38    39    1
    43    34    33   ar
