@<TRIPOS>MOLECULE
1l5h_CLF_B_1.pdb
 15 35 0 0 0
SMALL
GASTEIGER

@<TRIPOS>ATOM
      1 FE1       110.9510  150.1810   77.1520 Fe    602  CLF602      0.0000
      2 FE2       113.1900  151.6120   76.5700 Fe    602  CLF602      0.0000
      3 FE3       111.7180  152.7670   78.7400 Fe    602  CLF602      0.0000
      4 FE4       110.8940  152.6910   76.3000 Fe    602  CLF602      0.0000
      5  S1       111.5800  150.8330   75.0770 S.3   602  CLF602      0.0000
      6  S2A      112.6180  150.6020   78.4360 S.3   602  CLF602      0.0000
      7  S4A      112.7440  153.8240   77.0540 S.3   602  CLF602      0.0000
      8  S3A      109.7390  151.8330   78.0770 S.3   602  CLF602      0.0000
      9 FE5       109.4240  151.3710   74.2840 Fe    602  CLF602      0.0000
     10 FE6       111.0550  149.4190   72.7990 Fe    602  CLF602      0.0000
     11 FE7       108.3140  148.9690   73.0450 Fe    602  CLF602      0.0000
     12 FE8       110.1240  148.9640   75.1030 Fe    602  CLF602      0.0000
     13  S2B      109.2980  150.7870   72.0520 S.3   602  CLF602      0.0000
     14  S3B      110.0290  147.4810   73.3480 S.3   602  CLF602      0.0000
     15  S4B      108.0110  149.8390   75.1420 S.3   602  CLF602      0.0000
@<TRIPOS>BOND
     1    13    10    1
     2    13    11    1
     3    13     9    1
     4    10    11    1
     5    10    14    1
     6    10     9    1
     7    10     5    1
     8    10    12    1
     9    11    14    1
    10    11     9    1
    11    11    15    1
    12    14    12    1
    13     9     5    1
    14     9    12    1
    15     9    15    1
    16     5    12    1
    17     5     4    1
    18     5     2    1
    19     5     1    1
    20    12    15    1
    21    12     1    1
    22     4     2    1
    23     4     7    1
    24     4     1    1
    25     4     8    1
    26     4     3    1
    27     2     7    1
    28     2     1    1
    29     2     6    1
    30     2     3    1
    31     7     3    1
    32     1     8    1
    33     1     6    1
    34     8     3    1
    35     6     3    1
