@<TRIPOS>MOLECULE
1l5k_1RB_A_1.pdb
 22 24 0 0 0
SMALL
GASTEIGER

@<TRIPOS>ATOM
      1  N3        56.3470   41.6110   14.0940 N.2   990  1RB990     -0.2549
      2  N1        56.6210   40.9060   11.9230 N.3   990  1RB990     -0.2199
      3  C2        55.8480   40.9340   13.0530 C.3   990  1RB990      0.2029
      4  C7A       57.7620   41.6690   12.3270 C.3   990  1RB990      0.1235
      5  C3A       57.5640   42.1050   13.6930 C.2   990  1RB990      0.0741
      6  C4        58.5380   42.8960   14.3690 C.2   990  1RB990      0.0160
      7  C5        59.7140   43.2590   13.6870 C.2   990  1RB990      0.0010
      8  C6        59.9330   42.8390   12.3240 C.2   990  1RB990     -0.0028
      9  C7        58.9680   42.0520   11.6430 C.2   990  1RB990     -0.0044
     10  P         59.2700   39.3150    6.0260 P.3   990  1RB990      0.5327
     11  O1P       59.0490   38.0660    5.2330 O.3   990  1RB990     -0.1145
     12  O2P       59.5480   40.4660    5.1150 O.2   990  1RB990     -0.2224
     13  O3P       60.4340   39.1250    6.9520 O.3   990  1RB990     -0.1145
     14  O5'       57.9560   39.6410    6.8980 O.3   990  1RB990     -0.2675
     15  C5'       57.4690   38.6910    7.8450 C.3   990  1RB990      0.1859
     16  C4'       57.9510   39.0950    9.2410 C.3   990  1RB990      0.1798
     17  O4'       57.4050   40.3970    9.6530 O.3   990  1RB990     -0.3354
     18  C3'       57.5250   38.1670   10.3650 C.3   990  1RB990      0.2155
     19  O3'       58.4020   38.2480   11.5100 O.3   990  1RB990     -0.2176
     20  C2'       56.1520   38.7170   10.6550 C.3   990  1RB990      0.2272
     21  O2'       55.7020   38.2250   11.9190 O.3   990  1RB990     -0.2161
     22  C1'       56.3340   40.2240   10.5840 C.3   990  1RB990      0.2115
@<TRIPOS>BOND
     1    12    10    2
     2    11    10    1
     3    10    14    1
     4    10    13    1
     5    14    15    1
     6    15    16    1
     7    16    17    1
     8    16    18    1
     9    17    22    1
    10    18    20    1
    11    18    19    1
    12    22    20    1
    13    22     2    1
    14    20    21    1
    15     9     8    2
    16     9     4    1
    17     2     4    1
    18     2     3    1
    19     8     7    1
    20     4     5    1
    21     3     1    1
    22     7     6    2
    23     5     1    2
    24     5     6    1
