@<TRIPOS>MOLECULE
1l5l_7RP_A_1.pdb
 22 24 0 0 0
SMALL
GASTEIGER

@<TRIPOS>ATOM
      1  C8        56.0250   40.8870   13.1500 C.3   990  7RP990      0.2144
      2  N9        56.5850   41.5450   14.1670 N.2   990  7RP990     -0.2041
      3  C4        57.7210   42.0890   13.6830 C.1   990  7RP990      0.0261
      4  C5        57.7930   41.7070   12.3350 C.3   990  7RP990      0.1881
      5  N7        56.7000   40.9360   11.9980 N.3   990  7RP990     -0.2107
      6  N3        58.6030   42.8500   14.3790 N.2   990  7RP990     -0.1953
      7  C2        59.6470   43.2440   13.5900 C.3   990  7RP990      0.2604
      8  N1        59.8430   42.9380   12.2590 N.2   990  7RP990     -0.2443
      9  C6        58.9460   42.1720   11.5840 C.2   990  7RP990      0.1003
     10  P         59.3380   39.3390    6.1320 P.3   990  7RP990      0.5327
     11  O1P       59.1450   38.1080    5.3160 O.3   990  7RP990     -0.1145
     12  O2P       59.5560   40.5290    5.2590 O.2   990  7RP990     -0.2224
     13  O3P       60.5100   39.1840    7.0400 O.3   990  7RP990     -0.1145
     14  O5'       58.0650   39.5990    7.0720 O.3   990  7RP990     -0.2675
     15  C5'       57.6000   38.6080    7.9690 C.3   990  7RP990      0.1859
     16  C4'       57.9090   39.0810    9.3700 C.3   990  7RP990      0.1798
     17  O4'       57.2670   40.3710    9.6110 O.3   990  7RP990     -0.3353
     18  C3'       57.4170   38.2000   10.4780 C.3   990  7RP990      0.2155
     19  O3'       58.2700   38.2610   11.6560 O.3   990  7RP990     -0.2176
     20  C2'       56.0480   38.7610   10.7200 C.3   990  7RP990      0.2272
     21  O2'       55.6270   38.2200   11.9710 O.3   990  7RP990     -0.2161
     22  C1'       56.3040   40.2810   10.6880 C.3   990  7RP990      0.2121
@<TRIPOS>BOND
     1    12    10    2
     2    11    10    1
     3    10    13    1
     4    10    14    1
     5    14    15    1
     6    15    16    1
     7    16    17    1
     8    16    18    1
     9    17    22    1
    10    18    20    1
    11    18    19    1
    12    22    20    1
    13    22     5    1
    14    20    21    1
    15     9     8    2
    16     9     4    1
    17     5     4    1
    18     5     1    1
    19     8     7    1
    20     4     3    1
    21     1     2    1
    22     7     6    1
    23     3     2    2
    24     3     6    2
