@<TRIPOS>MOLECULE
1l5m_7RA_A_1.pdb
 23 25 0 0 0
SMALL
GASTEIGER

@<TRIPOS>ATOM
      1  C4        57.4670   42.2190   13.6950 C.1   990  7RA990      0.1128
      2  C5        57.6370   41.7840   12.3690 C.2   990  7RA990      0.1472
      3  C6        58.7840   42.2420   11.6450 C.2   990  7RA990      0.1377
      4  N1        59.6460   43.0890   12.3010 N.2   990  7RA990     -0.1648
      5  C2        59.4320   43.4870   13.6030 C.1   990  7RA990      0.1957
      6  N3        58.3480   43.0580   14.3140 N.2   990  7RA990     -0.2795
      7  N9        56.3410   41.6650   14.1380 N.2   990  7RA990     -0.1856
      8  C8        55.8280   40.9360   13.1480 C.3   990  7RA990      0.2342
      9  N7        56.5900   40.9610   12.0320 N.pl3 990  7RA990     -0.2523
     10  N10       60.3380   44.3490   14.2150 N.pl3 990  7RA990     -0.0339
     11  P         59.4020   39.4460    6.1920 P.3   990  7RA990      0.5327
     12  O1P       59.1720   38.1860    5.4050 O.3   990  7RA990     -0.1145
     13  O2P       59.6340   40.6170    5.3180 O.2   990  7RA990     -0.2224
     14  O3P       60.5840   39.2580    7.0720 O.3   990  7RA990     -0.1145
     15  O5'       58.0720   39.7210    7.0580 O.3   990  7RA990     -0.2675
     16  C5'       57.5600   38.7240    7.9780 C.3   990  7RA990      0.1859
     17  C4'       57.9250   39.1200    9.3880 C.3   990  7RA990      0.1801
     18  O4'       57.3510   40.4210    9.7870 O.3   990  7RA990     -0.3326
     19  C3'       57.4630   38.1810   10.5040 C.3   990  7RA990      0.2158
     20  O3'       58.3000   38.2360   11.6690 O.3   990  7RA990     -0.2175
     21  C2'       56.0890   38.7450   10.7710 C.3   990  7RA990      0.2310
     22  O2'       55.5570   38.2820   12.0170 O.3   990  7RA990     -0.2158
     23  C1'       56.2870   40.2540   10.6940 C.3   990  7RA990      0.2280
@<TRIPOS>BOND
     1    13    11    2
     2    12    11    1
     3    11    15    1
     4    11    14    1
     5    15    16    1
     6    16    17    1
     7    17    18    1
     8    17    19    1
     9    18    23    1
    10    19    21    1
    11    19    20    1
    12    23    21    1
    13    23     9    1
    14    21    22    1
    15     3     4    1
    16     3     2    2
    17     9     2    1
    18     9     8    1
    19     4     5    2
    20     2     1    1
    21     8     7    1
    22     5    10    1
    23     5     6    2
    24     1     7    2
    25     1     6    2
