@<TRIPOS>MOLECULE
1l5o_NCN_A_1.pdb
 22 23 0 0 0
SMALL
GASTEIGER

@<TRIPOS>ATOM
      1  P         59.3980   39.3420    5.9130 P.3   991  NCN991      0.5327
      2  O1P       59.1560   38.1050    5.0900 O.3   991  NCN991     -0.1145
      3  O2P       59.6430   40.5320    5.0190 O.2   991  NCN991     -0.2224
      4  O3P       60.6680   39.1370    6.8930 O.3   991  NCN991     -0.1145
      5  O5'       58.0940   39.6460    6.7800 O.3   991  NCN991     -0.2675
      6  C5'       57.6050   38.6430    7.7030 C.3   991  NCN991      0.1859
      7  C4'       57.5510   39.1890    9.0460 C.3   991  NCN991      0.1801
      8  O4'       56.6800   40.3890    9.0730 O.3   991  NCN991     -0.3327
      9  C3'       56.9670   38.2160   10.0700 C.3   991  NCN991      0.2158
     10  O3'       57.5270   38.3180   11.4070 O.3   991  NCN991     -0.2175
     11  C2'       55.4420   38.5560    9.9950 C.3   991  NCN991      0.2309
     12  O2'       54.8180   38.3990   11.2870 O.3   991  NCN991     -0.2158
     13  C1'       55.3790   39.9970    9.4080 C.3   991  NCN991      0.2263
     14  N1        54.4220   40.1960    8.2610 N.pl3 991  NCN991     -0.2787
     15  C6        54.8100   40.8310    7.0260 C.3   991  NCN991      0.1195
     16  C5        53.7700   40.9300    6.0840 C.2   991  NCN991     -0.0044
     17  C4        52.4230   40.4780    6.2520 C.2   991  NCN991      0.0050
     18  C3        52.1840   39.8520    7.5560 C.2   991  NCN991      0.0940
     19  C2        53.1560   39.7260    8.5340 C.2   991  NCN991      0.0699
     20  C7        50.7060   39.4090    7.5910 C.2   991  NCN991      0.3890
     21  O7        49.8800   39.5300    6.7200 O.co2 991  NCN991     -0.2405
     22  O8        50.4670   38.8250    8.7810 O.co2 991  NCN991     -0.2405
@<TRIPOS>BOND
     1     3     1    2
     2     2     1    1
     3     1     5    1
     4     1     4    1
     5    16    17    2
     6    16    15    1
     7    17    18    1
     8    21    20   ar
     9     5     6    1
    10    15    14    1
    11    18    20    1
    12    18    19    2
    13    20    22   ar
    14     6     7    1
    15    14    19    1
    16    14    13    1
    17     7     8    1
    18     7     9    1
    19     8    13    1
    20    13    11    1
    21    11     9    1
    22    11    12    1
    23     9    10    1
