@<TRIPOS>MOLECULE
1l5q_700_A_1.pdb
 30 33 0 0 0
SMALL
GASTEIGER

@<TRIPOS>ATOM
      1  C10       66.5070  -74.4680   75.7370 C.3   862  700862      0.0574
      2  C11       65.5980  -75.0290   74.6060 C.ar  862  700862     -0.0200
      3  C12       65.3790  -76.4280   74.4560 C.ar  862  700862     -0.0042
      4  C13       64.5360  -76.9140   73.4310 C.ar  862  700862     -0.0003
      5  C14       63.9040  -76.0060   72.5490 C.ar  862  700862     -0.0000
      6  C15       64.1160  -74.6100   72.6910 C.ar  862  700862     -0.0003
      7  C16       64.9630  -74.1310   73.7170 C.ar  862  700862     -0.0042
      8  C17       65.7020  -73.9350   76.9810 C.3   862  700862      0.1759
      9  C18       64.8840  -75.1310   77.4770 C.2   862  700862      0.2459
     10  O2        65.4430  -75.9640   78.1560 O.2   862  700862     -0.2730
     11  N3        63.6120  -75.2640   77.0220 N.am  862  700862     -0.2769
     12  C19       62.6590  -74.3720   76.3310 C.3   862  700862      0.1064
     13  C20       61.5860  -75.4470   76.4820 C.3   862  700862      0.1428
     14  C21       60.1960  -75.1330   77.0210 C.2   862  700862      0.3677
     15  O3        59.6500  -74.1930   76.4540 O.co2 862  700862     -0.2455
     16  O4        59.7870  -75.8860   77.9060 O.co2 862  700862     -0.2455
     17  C22       62.6330  -76.2810   77.3440 C.3   862  700862      0.1064
     18  N1        66.6470  -73.4000   77.9880 N.am  862  700862     -0.1915
     19  C9        66.1910  -72.7800   79.1090 C.2   862  700862      0.2949
     20  C8        67.0980  -72.2270   80.1620 C.2   862  700862      0.1862
     21  C7        68.4600  -72.2160   80.2240 C.2   862  700862      0.0394
     22  C6        68.8500  -71.5590   81.5320 C.ar  862  700862      0.0331
     23  C1        67.6020  -71.2500   82.0830 C.ar  862  700862      0.1317
     24  C2        67.4830  -70.6080   83.3470 C.ar  862  700862      0.0329
     25  C3        68.6770  -70.2870   84.0560 C.ar  862  700862      0.0140
     26  C4        69.9510  -70.5990   83.5070 C.ar  862  700862      0.0578
     27 CL1        71.3390  -70.1960   84.3820 Cl    862  700862     -0.0822
     28  C5        70.0580  -71.2470   82.2100 C.ar  862  700862      0.0140
     29  N2        66.6190  -71.6630   81.2340 N.2   862  700862     -0.3972
     30  O1        64.9790  -72.6620   79.3060 O.2   862  700862     -0.2655
@<TRIPOS>BOND
     1     5     6   ar
     2     5     4   ar
     3     6     7   ar
     4     4     3   ar
     5     7     2   ar
     6     3     2   ar
     7     2     1    1
     8     1     8    1
     9    12    13    1
    10    12    11    1
    11    15    14   ar
    12    13    14    1
    13    13    17    1
    14     8     9    1
    15     8    18    1
    16    14    16   ar
    17    11    17    1
    18    11     9   am
    19     9    10    2
    20    18    19   am
    21    19    30    2
    22    19    20    1
    23    20    21    1
    24    20    29    2
    25    21    22    2
    26    29    23    2
    27    22    23   ar
    28    22    28   ar
    29    23    24   ar
    30    28    26   ar
    31    24    25   ar
    32    26    25   ar
    33    26    27    1
