@<TRIPOS>MOLECULE
1l5q_NBG_A_1.pdb
 15 15 0 0 0
SMALL
GASTEIGER

@<TRIPOS>ATOM
      1  C1        50.7090  -60.7820  105.9590 C.3   861  NBG861      0.2446
      2  C2        50.4690  -59.6900  107.0530 C.3   861  NBG861      0.2326
      3  C3        51.7230  -58.7140  107.2120 C.3   861  NBG861      0.2190
      4  C4        53.0800  -59.4930  107.2880 C.3   861  NBG861      0.2144
      5  C5        53.1770  -60.5140  106.1180 C.3   861  NBG861      0.1828
      6  C6        54.4570  -61.3670  106.1800 C.3   861  NBG861      0.2142
      7  C7        48.9440  -62.2640  105.0000 C.2   861  NBG861      0.2440
      8  C8        47.8620  -63.2950  105.2410 C.3   861  NBG861      0.0965
      9  N1        49.6830  -61.8430  106.0810 N.am  861  NBG861     -0.1751
     10  O3        51.6020  -57.8790  108.3750 O.3   861  NBG861     -0.2174
     11  O2        49.2510  -58.9650  106.7760 O.3   861  NBG861     -0.2157
     12  O4        54.2090  -58.5740  107.2520 O.3   861  NBG861     -0.2176
     13  O5        52.0160  -61.3980  106.1500 O.3   861  NBG861     -0.3315
     14  O6        54.5970  -62.0260  107.4510 O.3   861  NBG861     -0.2176
     15  O7        49.1160  -61.8440  103.8610 O.2   861  NBG861     -0.2733
@<TRIPOS>BOND
     1    15     7    2
     2     7     8    1
     3     7     9   am
     4     1     9    1
     5     1    13    1
     6     1     2    1
     7     5    13    1
     8     5     6    1
     9     5     4    1
    10     6    14    1
    11    11     2    1
    12     2     3    1
    13     3     4    1
    14     3    10    1
    15    12     4    1
