@<TRIPOS>MOLECULE
1l5q_PLP_A_1.pdb
 15 15 0 0 0
SMALL
GASTEIGER

@<TRIPOS>ATOM
      1  N1        53.4490  -55.1920   97.9680 N.ar  860  PLP860     -0.2452
      2  C2        54.7080  -55.0100   97.4250 C.ar  860  PLP860      0.0978
      3  C2A       54.8300  -54.9400   95.9050 C.3   860  PLP860      0.0555
      4  C3        55.8200  -54.9770   98.2610 C.ar  860  PLP860      0.2049
      5  O3        57.0860  -54.8520   97.7200 O.3   860  PLP860     -0.2857
      6  C4        55.6730  -55.1330   99.6600 C.ar  860  PLP860      0.0182
      7  C4A       56.8250  -55.1520  100.4930 C.3   860  PLP860      0.0342
      8  C5        54.3580  -55.3180  100.1700 C.ar  860  PLP860      0.0261
      9  C6        53.2940  -55.3440   99.3150 C.ar  860  PLP860      0.0965
     10  C5A       54.0310  -55.4680  101.7090 C.3   860  PLP860      0.1815
     11  O4P       53.8380  -54.1250  102.1790 O.3   860  PLP860     -0.2653
     12  P         53.1410  -53.7530  103.6280 P.3   860  PLP860      0.5329
     13  O1P       51.8180  -54.3780  103.5160 O.2   860  PLP860     -0.2224
     14  O2P       53.0850  -52.2930  103.6010 O.3   860  PLP860     -0.1145
     15  O3P       54.1330  -54.3910  104.5520 O.3   860  PLP860     -0.1145
@<TRIPOS>BOND
     1     3     2    1
     2     2     1   ar
     3     2     4   ar
     4     5     4    1
     5     1     9   ar
     6     4     6   ar
     7     9     8   ar
     8     6     8   ar
     9     6     7    1
    10     8    10    1
    11    10    11    1
    12    11    12    1
    13    13    12    2
    14    14    12    1
    15    12    15    1
