@<TRIPOS>MOLECULE
1l5q_CFF_A_1.pdb
 14 15 0 0 0
SMALL
GASTEIGER

@<TRIPOS>ATOM
      1  N1        38.6960  -58.4400  101.9380 N.am  863  CFF863     -0.1903
      2  C2        37.4250  -58.1340  102.7200 C.2   863  CFF863      0.4044
      3  C10       39.9420  -58.1140  102.6770 C.3   863  CFF863      0.1267
      4  C6        38.7410  -58.9840  100.6370 C.2   863  CFF863      0.2609
      5  N3        36.3240  -58.4340  102.0490 N.am  863  CFF863     -0.1218
      6  O11       37.5510  -57.6770  103.8030 O.2   863  CFF863     -0.2230
      7  C12       34.9970  -58.1780  102.7150 C.3   863  CFF863      0.2626
      8  C4        36.3100  -58.9870  100.7360 C.2   863  CFF863      0.3276
      9  C5        37.4630  -59.2600  100.0450 C.3   863  CFF863      0.2453
     10  N9        35.2490  -59.2960  100.0490 N.2   863  CFF863     -0.0479
     11  O13       39.8750  -59.2060  100.0650 O.2   863  CFF863     -0.2723
     12  N7        37.0530  -59.7940   98.8110 N.3   863  CFF863     -0.2098
     13  C8        35.7130  -59.7850   98.8880 C.3   863  CFF863      0.3428
     14  C14       37.8900  -60.2580   97.6980 C.3   863  CFF863      0.0945
@<TRIPOS>BOND
     1    14    12    1
     2    12    13    1
     3    12     9    1
     4    13    10    1
     5     9     4    1
     6     9     8    1
     7    10     8    2
     8    11     4    2
     9     4     1   am
    10     8     5    1
    11     1     3    1
    12     1     2   am
    13     5     7    1
    14     5     2   am
    15     2     6    2
