@<TRIPOS>MOLECULE
1l5r_NBG_A_1.pdb
 15 15 0 0 0
SMALL
GASTEIGER

@<TRIPOS>ATOM
      1  C1        50.2850  -60.5770  105.6010 C.3   861  NBG861      0.2446
      2  C2        50.1370  -59.4290  106.6370 C.3   861  NBG861      0.2326
      3  C3        51.4200  -58.5250  106.7270 C.3   861  NBG861      0.2190
      4  C4        52.7240  -59.3520  106.8200 C.3   861  NBG861      0.2144
      5  C5        52.7610  -60.3880  105.6490 C.3   861  NBG861      0.1828
      6  C6        53.9920  -61.3040  105.6950 C.3   861  NBG861      0.2142
      7  C7        48.5820  -62.1870  104.8800 C.2   861  NBG861      0.2440
      8  C8        47.5690  -63.2460  105.2960 C.3   861  NBG861      0.0965
      9  N1        49.2730  -61.5870  105.8750 N.am  861  NBG861     -0.1751
     10  O3        51.3270  -57.6350  107.8500 O.3   861  NBG861     -0.2174
     11  O2        48.9990  -58.6360  106.3410 O.3   861  NBG861     -0.2157
     12  O4        53.8590  -58.4690  106.7760 O.3   861  NBG861     -0.2176
     13  O5        51.5800  -61.2220  105.7170 O.3   861  NBG861     -0.3315
     14  O6        54.1810  -61.8290  107.0100 O.3   861  NBG861     -0.2176
     15  O7        48.7230  -61.9090  103.6750 O.2   861  NBG861     -0.2733
@<TRIPOS>BOND
     1    15     7    2
     2     7     8    1
     3     7     9   am
     4     1    13    1
     5     1     9    1
     6     1     2    1
     7     5     6    1
     8     5    13    1
     9     5     4    1
    10     6    14    1
    11    11     2    1
    12     2     3    1
    13     3     4    1
    14     3    10    1
    15    12     4    1
