@<TRIPOS>MOLECULE
1l5r_700_A_1.pdb
 30 33 0 0 0
SMALL
GASTEIGER

@<TRIPOS>ATOM
      1  C10       66.2610  -74.3440   75.5540 C.3   862  700862      0.0574
      2  C11       65.3740  -74.7780   74.3870 C.ar  862  700862     -0.0200
      3  C12       65.0090  -76.1510   74.1910 C.ar  862  700862     -0.0042
      4  C13       64.1670  -76.5260   73.0940 C.ar  862  700862     -0.0003
      5  C14       63.6920  -75.5330   72.2020 C.ar  862  700862     -0.0000
      6  C15       64.0500  -74.1560   72.3880 C.ar  862  700862     -0.0003
      7  C16       64.8840  -73.7820   73.4680 C.ar  862  700862     -0.0042
      8  C17       65.4370  -73.7600   76.7510 C.3   862  700862      0.1759
      9  C18       64.5710  -74.9160   77.2970 C.2   862  700862      0.2459
     10  O2        65.1000  -75.7350   78.0380 O.2   862  700862     -0.2730
     11  N3        63.2920  -75.0270   76.8430 N.am  862  700862     -0.2769
     12  C19       62.3810  -74.1410   76.0920 C.3   862  700862      0.1064
     13  C20       61.2530  -75.1610   76.3230 C.3   862  700862      0.1428
     14  C21       59.8980  -74.7120   76.8960 C.2   862  700862      0.3677
     15  O3        59.6360  -73.5050   76.7560 O.co2 862  700862     -0.2455
     16  O4        59.2300  -75.6150   77.3780 O.co2 862  700862     -0.2455
     17  C22       62.2660  -75.9860   77.2240 C.3   862  700862      0.1064
     18  N1        66.3510  -73.2140   77.7680 N.am  862  700862     -0.1915
     19  C9        65.8640  -72.5830   78.8690 C.2   862  700862      0.2949
     20  C8        66.7510  -72.0330   79.9290 C.2   862  700862      0.1862
     21  C7        68.1140  -72.0370   80.0110 C.2   862  700862      0.0394
     22  C6        68.4750  -71.3630   81.3230 C.ar  862  700862      0.0331
     23  C1        67.2150  -71.0380   81.8530 C.ar  862  700862      0.1317
     24  C2        67.0780  -70.3830   83.1030 C.ar  862  700862      0.0329
     25  C3        68.2630  -70.0600   83.8230 C.ar  862  700862      0.0140
     26  C4        69.5510  -70.3890   83.2810 C.ar  862  700862      0.0578
     27 CL1        70.9790  -69.9570   84.1710 Cl    862  700862     -0.0822
     28  C5        69.6700  -71.0500   82.0100 C.ar  862  700862      0.0140
     29  N2        66.2510  -71.4460   81.0020 N.2   862  700862     -0.3972
     30  O1        64.6480  -72.4550   79.0350 O.2   862  700862     -0.2655
@<TRIPOS>BOND
     1     5     6   ar
     2     5     4   ar
     3     6     7   ar
     4     4     3   ar
     5     7     2   ar
     6     3     2   ar
     7     2     1    1
     8     1     8    1
     9    12    13    1
    10    12    11    1
    11    13    14    1
    12    13    17    1
    13     8     9    1
    14     8    18    1
    15    15    14   ar
    16    11    17    1
    17    11     9   am
    18    14    16   ar
    19     9    10    2
    20    18    19   am
    21    19    30    2
    22    19    20    1
    23    20    21    1
    24    20    29    2
    25    21    22    2
    26    29    23    2
    27    22    23   ar
    28    22    28   ar
    29    23    24   ar
    30    28    26   ar
    31    24    25   ar
    32    26    25   ar
    33    26    27    1
