@<TRIPOS>MOLECULE
1l5r_RBF_A_1.pdb
 27 29 0 0 0
SMALL
GASTEIGER

@<TRIPOS>ATOM
      1  N1        36.1500  -58.7290   99.8420 N.2   859  RBF859     -0.2890
      2  C2        36.3280  -59.3000   98.5780 C.1   859  RBF859      0.3669
      3  O2        35.4650  -59.4820   97.7700 O.2   859  RBF859     -0.1744
      4  N3        37.6190  -59.6860   98.2520 N.2   859  RBF859     -0.2300
      5  C4        38.6810  -59.5260   99.1340 C.1   859  RBF859      0.2513
      6  O4        39.8390  -59.8560   98.8920 O.2   859  RBF859     -0.2057
      7  C4A       38.4490  -58.9190  100.5060 C.2   859  RBF859      0.2700
      8  N5        39.4540  -58.7990  101.3140 N.2   859  RBF859     -0.3878
      9  C5A       39.1960  -58.2390  102.5770 C.2   859  RBF859      0.1320
     10  C6        40.2820  -58.1150  103.4790 C.2   859  RBF859      0.0250
     11  C7        40.0800  -57.5650  104.7510 C.2   859  RBF859     -0.0238
     12  C7M       41.1860  -57.3970  105.8000 C.3   859  RBF859      0.0308
     13  C8        38.7280  -57.1150  105.1280 C.2   859  RBF859     -0.0280
     14  C8M       38.4780  -56.4970  106.5430 C.3   859  RBF859      0.0304
     15  C9        37.6550  -57.2180  104.2780 C.2   859  RBF859     -0.0041
     16  C9A       37.9050  -57.7940  102.9870 C.3   859  RBF859      0.1497
     17  N10       36.8840  -57.9670  102.0180 N.pl3 859  RBF859     -0.2691
     18  C10       37.1050  -58.5270  100.7840 C.2   859  RBF859      0.2416
     19  C1'       35.4500  -57.5220  102.3080 C.3   859  RBF859      0.1294
     20  C2'       34.7090  -58.6060  103.1460 C.3   859  RBF859      0.2044
     21  O2'       34.5180  -59.8210  102.3570 O.3   859  RBF859     -0.2185
     22  C3'       33.3120  -58.1390  103.5260 C.3   859  RBF859      0.2166
     23  O3'       32.6690  -57.9220  102.2940 O.3   859  RBF859     -0.2175
     24  C4'       33.3070  -56.9020  104.3570 C.3   859  RBF859      0.2175
     25  O4'       34.2490  -56.7170  105.4080 O.3   859  RBF859     -0.2175
     26  C5'       31.9130  -56.7320  105.0840 C.3   859  RBF859      0.2175
     27  O5'       31.9860  -55.3330  105.3570 O.3   859  RBF859     -0.2175
@<TRIPOS>BOND
     1     3     2    2
     2     4     2    2
     3     4     5    2
     4     2     1    2
     5     6     5    2
     6     5     7    1
     7     1    18    2
     8     7    18    1
     9     7     8    2
    10    18    17    1
    11     8     9    2
    12    17    19    1
    13    17    16    1
    14    23    22    1
    15    19    20    1
    16    21    20    1
    17     9    16    1
    18     9    10    1
    19    16    15    1
    20    20    22    1
    21    10    11    2
    22    22    24    1
    23    15    13    2
    24    24    26    1
    25    24    25    1
    26    11    13    1
    27    11    12    1
    28    26    27    1
    29    13    14    1
