@<TRIPOS>MOLECULE
1l5r_PLP_A_1.pdb
 15 15 0 0 0
SMALL
GASTEIGER

@<TRIPOS>ATOM
      1  N1        53.2220  -54.9650   97.5680 N.ar  860  PLP860     -0.2452
      2  C2        54.4540  -54.7530   96.9940 C.ar  860  PLP860      0.0978
      3  C2A       54.4920  -54.5750   95.4750 C.3   860  PLP860      0.0555
      4  C3        55.6020  -54.6990   97.8140 C.ar  860  PLP860      0.2049
      5  O3        56.8640  -54.3940   97.2890 O.3   860  PLP860     -0.2857
      6  C4        55.4680  -54.8810   99.2330 C.ar  860  PLP860      0.0182
      7  C4A       56.6300  -54.8840  100.0260 C.3   860  PLP860      0.0342
      8  C5        54.1930  -55.0820   99.7740 C.ar  860  PLP860      0.0261
      9  C6        53.1230  -55.1190   98.9370 C.ar  860  PLP860      0.0965
     10  C5A       53.8920  -55.1400  101.3390 C.3   860  PLP860      0.1815
     11  O4P       53.7720  -53.7300  101.8200 O.3   860  PLP860     -0.2653
     12  P         52.9600  -53.3160  103.1890 P.3   860  PLP860      0.5329
     13  O1P       51.5740  -53.8220  103.0730 O.2   860  PLP860     -0.2224
     14  O2P       53.0850  -51.8340  103.2130 O.3   860  PLP860     -0.1145
     15  O3P       53.7290  -54.0940  104.1590 O.3   860  PLP860     -0.1145
@<TRIPOS>BOND
     1     3     2    1
     2     2     1   ar
     3     2     4   ar
     4     5     4    1
     5     1     9   ar
     6     4     6   ar
     7     9     8   ar
     8     6     8   ar
     9     6     7    1
    10     8    10    1
    11    10    11    1
    12    11    12    1
    13    13    12    2
    14    12    14    1
    15    12    15    1
