@<TRIPOS>MOLECULE
1l5s_NBG_A_1.pdb
 15 15 0 0 0
SMALL
GASTEIGER

@<TRIPOS>ATOM
      1  C1        50.1390  -60.3260  105.8690 C.3   861  NBG861      0.2446
      2  C2        49.9390  -59.2070  106.9260 C.3   861  NBG861      0.2326
      3  C3        51.1840  -58.2490  107.0500 C.3   861  NBG861      0.2190
      4  C4        52.5050  -59.0550  107.1710 C.3   861  NBG861      0.2144
      5  C5        52.6200  -60.0730  105.9860 C.3   861  NBG861      0.1828
      6  C6        53.8770  -60.9430  106.0730 C.3   861  NBG861      0.2142
      7  C7        48.4410  -61.8970  105.0440 C.2   861  NBG861      0.2440
      8  C8        47.3650  -62.9070  105.3700 C.3   861  NBG861      0.0965
      9  N1        49.1330  -61.3580  106.0910 N.am  861  NBG861     -0.1751
     10  O3        51.0500  -57.3910  108.1940 O.3   861  NBG861     -0.2174
     11  O2        48.7590  -58.4710  106.6520 O.3   861  NBG861     -0.2157
     12  O4        53.6360  -58.1580  107.2270 O.3   861  NBG861     -0.2176
     13  O5        51.4520  -60.9530  106.0140 O.3   861  NBG861     -0.3315
     14  O6        53.9540  -61.5980  107.3530 O.3   861  NBG861     -0.2176
     15  O7        48.6430  -61.5930  103.8660 O.2   861  NBG861     -0.2733
@<TRIPOS>BOND
     1    15     7    2
     2     7     8    1
     3     7     9   am
     4     1    13    1
     5     1     9    1
     6     1     2    1
     7     5    13    1
     8     5     6    1
     9     5     4    1
    10     6    14    1
    11    11     2    1
    12     2     3    1
    13     3     4    1
    14     3    10    1
    15     4    12    1
