@<TRIPOS>MOLECULE
1l5s_URC_A_1.pdb
 12 13 0 0 0
SMALL
GASTEIGER

@<TRIPOS>ATOM
      1  N1        38.2170  -59.8000   98.3950 N.2   863  URC863     -0.2289
      2  C2        36.8790  -59.8580   98.2720 C.1   863  URC863      0.3754
      3  C6        38.8200  -59.2600   99.4670 C.1   863  URC863      0.2604
      4  N3        36.0750  -59.3720   99.2250 N.2   863  URC863     -0.2368
      5  O11       36.3880  -60.3650   97.2760 O.2   863  URC863     -0.1738
      6  C4        36.5840  -58.8190  100.3250 C.1   863  URC863      0.2099
      7  C5        37.9180  -58.7230  100.5210 C.2   863  URC863      0.3262
      8  N9        36.0360  -58.2870  101.3770 N.2   863  URC863     -0.2373
      9  O13       40.0320  -59.1930   99.6130 O.2   863  URC863     -0.2051
     10  N7        38.1010  -58.1470  101.6710 N.2   863  URC863     -0.2823
     11  C8        36.9450  -57.8660  102.2240 C.1   863  URC863      0.3665
     12  O24       36.7530  -57.3270  103.3000 O.2   863  URC863     -0.1745
@<TRIPOS>BOND
     1     5     2    2
     2     2     1    2
     3     2     4    2
     4     1     3    2
     5     4     6    2
     6     3     9    2
     7     3     7    1
     8     6     7    1
     9     6     8    2
    10     7    10    2
    11     8    11    2
    12    10    11    2
    13    11    12    2
