@<TRIPOS>MOLECULE
1l5s_700_A_1.pdb
 30 33 0 0 0
SMALL
GASTEIGER

@<TRIPOS>ATOM
      1  C10       66.1070  -74.1960   75.7710 C.3   862  700862      0.0574
      2  C11       65.1380  -74.7200   74.6680 C.ar  862  700862     -0.0200
      3  C12       64.8010  -76.1130   74.5570 C.ar  862  700862     -0.0042
      4  C13       63.8960  -76.5610   73.5600 C.ar  862  700862     -0.0003
      5  C14       63.3150  -75.6300   72.6630 C.ar  862  700862     -0.0000
      6  C15       63.6420  -74.2500   72.7630 C.ar  862  700862     -0.0003
      7  C16       64.5480  -73.7990   73.7610 C.ar  862  700862     -0.0042
      8  C17       65.3100  -73.5720   76.9900 C.3   862  700862      0.1759
      9  C18       64.4380  -74.7080   77.5300 C.2   862  700862      0.2459
     10  O2        64.9640  -75.5280   78.2290 O.2   862  700862     -0.2730
     11  N3        63.1480  -74.7940   77.0920 N.am  862  700862     -0.2769
     12  C19       62.2410  -73.8870   76.3710 C.3   862  700862      0.1064
     13  C20       61.1090  -74.8860   76.5720 C.3   862  700862      0.1428
     14  C21       59.7460  -74.4410   77.0990 C.2   862  700862      0.3677
     15  O3        59.2740  -73.4820   76.4770 O.co2 862  700862     -0.2455
     16  O4        59.2830  -75.1190   78.0240 O.co2 862  700862     -0.2455
     17  C22       62.1110  -75.7430   77.4670 C.3   862  700862      0.1064
     18  N1        66.2350  -73.0040   78.0260 N.am  862  700862     -0.1915
     19  C9        65.7540  -72.3910   79.1440 C.2   862  700862      0.2949
     20  C8        66.6340  -71.8340   80.1970 C.2   862  700862      0.1862
     21  C7        67.9760  -71.8050   80.2790 C.2   862  700862      0.0394
     22  C6        68.3140  -71.1610   81.5920 C.ar  862  700862      0.0331
     23  C1        67.0600  -70.8800   82.1200 C.ar  862  700862      0.1317
     24  C2        66.8960  -70.2650   83.3840 C.ar  862  700862      0.0329
     25  C3        68.0690  -69.9440   84.1070 C.ar  862  700862      0.0140
     26  C4        69.3570  -70.2320   83.5600 C.ar  862  700862      0.0578
     27 CL1        70.7550  -69.8330   84.4550 Cl    862  700862     -0.0822
     28  C5        69.4920  -70.8460   82.2780 C.ar  862  700862      0.0140
     29  N2        66.1230  -71.2880   81.2660 N.2   862  700862     -0.3972
     30  O1        64.5400  -72.2820   79.3450 O.2   862  700862     -0.2655
@<TRIPOS>BOND
     1     5     6   ar
     2     5     4   ar
     3     6     7   ar
     4     4     3   ar
     5     7     2   ar
     6     3     2   ar
     7     2     1    1
     8     1     8    1
     9    12    13    1
    10    12    11    1
    11    15    14   ar
    12    13    14    1
    13    13    17    1
    14     8     9    1
    15     8    18    1
    16    11    17    1
    17    11     9   am
    18    14    16   ar
    19     9    10    2
    20    18    19   am
    21    19    30    2
    22    19    20    1
    23    20    21    1
    24    20    29    2
    25    21    22    2
    26    29    23    2
    27    22    23   ar
    28    22    28   ar
    29    23    24   ar
    30    28    26   ar
    31    24    25   ar
    32    26    25   ar
    33    26    27    1
