@<TRIPOS>MOLECULE
1l5s_PLP_A_1.pdb
 15 15 0 0 0
SMALL
GASTEIGER

@<TRIPOS>ATOM
      1  N1        52.9990  -54.7520   97.9170 N.ar  860  PLP860     -0.2452
      2  C2        54.2430  -54.5320   97.3280 C.ar  860  PLP860      0.0978
      3  C2A       54.3380  -54.3670   95.7900 C.3   860  PLP860      0.0555
      4  C3        55.3760  -54.4600   98.1260 C.ar  860  PLP860      0.2049
      5  O3        56.6450  -54.3200   97.5190 O.3   860  PLP860     -0.2857
      6  C4        55.2510  -54.6090   99.5680 C.ar  860  PLP860      0.0182
      7  C4A       56.4290  -54.6190  100.3680 C.3   860  PLP860      0.0342
      8  C5        53.9720  -54.8180  100.1270 C.ar  860  PLP860      0.0261
      9  C6        52.8700  -54.8880   99.2860 C.ar  860  PLP860      0.0965
     10  C5A       53.7210  -54.9640  101.6740 C.3   860  PLP860      0.1815
     11  O4P       53.5870  -53.5970  102.1400 O.3   860  PLP860     -0.2653
     12  P         52.7710  -53.2050  103.5500 P.3   860  PLP860      0.5329
     13  O1P       51.4240  -53.7620  103.4510 O.2   860  PLP860     -0.2224
     14  O2P       52.7870  -51.6880  103.5100 O.3   860  PLP860     -0.1145
     15  O3P       53.5660  -53.8450  104.5940 O.3   860  PLP860     -0.1145
@<TRIPOS>BOND
     1     3     2    1
     2     2     1   ar
     3     2     4   ar
     4     5     4    1
     5     1     9   ar
     6     4     6   ar
     7     9     8   ar
     8     6     8   ar
     9     6     7    1
    10     8    10    1
    11    10    11    1
    12    11    12    1
    13    13    12    2
    14    14    12    1
    15    12    15    1
