@<TRIPOS>MOLECULE
1l6f_PP3_A_1.pdb
 21 21 0 0 0
SMALL
GASTEIGER

@<TRIPOS>ATOM
      1  N1        24.0310   10.7910   69.2500 N.2   390  PP3390     -0.2505
      2  C2        25.2090   11.4520   69.3080 C.2   390  PP3390      0.0679
      3  C2A       26.4270   10.6560   69.6560 C.3   390  PP3390      0.0499
      4  C3        25.3020   12.8320   69.0640 C.3   390  PP3390      0.1969
      5  O3        26.5000   13.4900   69.2950 O.3   390  PP3390     -0.2163
      6  C4        24.1810   13.5390   68.5660 C.3   390  PP3390      0.0989
      7  C4A       24.5810   14.8880   67.9560 C.2   390  PP3390      0.0741
      8  C5        22.8700   12.8660   68.5770 C.2   390  PP3390      0.0129
      9  C6        22.8850   11.4860   68.9170 C.2   390  PP3390      0.0925
     10  C5A       21.5340   13.4980   68.2290 C.3   390  PP3390      0.1780
     11  O4P       21.5640   14.0900   66.9470 O.3   390  PP3390     -0.2656
     12  P         20.2960   14.7800   66.3860 P.3   390  PP3390      0.5329
     13  O1P       19.1810   13.8110   66.2830 O.3   390  PP3390     -0.1145
     14  O2P       20.6310   15.3300   65.0290 O.2   390  PP3390     -0.2224
     15  O3P       19.8810   15.8830   67.3100 O.3   390  PP3390     -0.1145
     16  N         24.0550   16.1360   68.4510 N.2   390  PP3390     -0.2636
     17  CA        24.5560   17.3970   67.8470 C.3   390  PP3390      0.2054
     18  C         26.0820   17.6880   68.1210 C.2   390  PP3390      0.3866
     19  O         26.5200   18.8110   67.5230 O.co2 390  PP3390     -0.2435
     20  CB        23.8080   18.5970   68.5140 C.3   390  PP3390      0.0385
     21  OXT       26.8160   17.0330   68.8030 O.co2 390  PP3390     -0.2435
@<TRIPOS>BOND
     1    14    12    2
     2    13    12    1
     3    12    11    1
     4    12    15    1
     5    11    10    1
     6    19    18   ar
     7    17    18    1
     8    17    16    1
     9    17    20    1
    10     7    16    2
    11     7     6    1
    12    18    21   ar
    13    10     8    1
    14     6     8    1
    15     6     4    1
    16     8     9    2
    17     9     1    1
    18     4     5    1
    19     4     2    1
    20     1     2    2
    21     2     3    1
