@<TRIPOS>MOLECULE
1l6g_PDD_A_1.pdb
 21 21 0 0 0
SMALL
GASTEIGER

@<TRIPOS>ATOM
      1  N         24.6880   15.9230   69.1900 N.2   390  PDD390     -0.2593
      2  N1        23.9660   10.7140   69.2640 N.ar  390  PDD390     -0.2452
      3  C2        25.0930   11.4600   69.4010 C.ar  390  PDD390      0.0981
      4  C2A       26.3400   10.7270   69.7900 C.3   390  PDD390      0.0555
      5  C3        25.1000   12.8560   69.1920 C.ar  390  PDD390      0.2103
      6  O3A       26.2680   13.5640   69.3880 O.3   390  PDD390     -0.2853
      7  C4        23.8980   13.5100   68.7430 C.ar  390  PDD390      0.0587
      8  C4A       24.0400   14.9740   68.2870 C.2   390  PDD390      0.0967
      9  C5        22.6760   12.7250   68.6440 C.ar  390  PDD390      0.0316
     10  C5A       21.3340   13.2980   68.2460 C.3   390  PDD390      0.1819
     11  OP4       21.4540   13.9280   66.9780 O.3   390  PDD390     -0.2653
     12  P         20.2960   14.7690   66.4060 P.3   390  PDD390      0.5329
     13  OP1       19.0980   13.8950   66.2780 O.3   390  PDD390     -0.1145
     14  OP2       20.7230   15.3040   65.0680 O.2   390  PDD390     -0.2224
     15  OP3       19.9880   15.9150   67.2960 O.3   390  PDD390     -0.1145
     16  C6        22.7840   11.3380   68.9050 C.ar  390  PDD390      0.0968
     17  CA        24.8920   17.3500   68.8090 C.3   390  PDD390      0.2057
     18  CB        23.7660   17.9290   67.9280 C.3   390  PDD390      0.0385
     19  C         26.2580   17.5820   68.0970 C.2   390  PDD390      0.3866
     20  O         26.4220   18.8440   67.6640 O.co2 390  PDD390     -0.2435
     21  OXT       27.0970   16.7660   67.9480 O.co2 390  PDD390     -0.2435
@<TRIPOS>BOND
     1    14    12    2
     2    13    12    1
     3    12    11    1
     4    12    15    1
     5    11    10    1
     6    20    19   ar
     7    18    17    1
     8    21    19   ar
     9    19    17    1
    10    10     9    1
    11     8     7    1
    12     8     1    2
    13     9     7   ar
    14     9    16   ar
    15     7     5   ar
    16    17     1    1
    17    16     2   ar
    18     5     6    1
    19     5     3   ar
    20     2     3   ar
    21     3     4    1
