@<TRIPOS>MOLECULE
1l6l_BOG_1_1.pdb
 20 20 0 0 0
SMALL
GASTEIGER

@<TRIPOS>ATOM
      1  C1       102.4640   74.6940   90.5630 C.3   1705  BOG1705     0.2695
      2  O1       101.9230   73.4550   91.0130 O.3   1705  BOG1705    -0.3286
      3  C2       103.8450   74.9270   91.2220 C.3   1705  BOG1705     0.2406
      4  O2       103.7000   74.9340   92.6380 O.3   1705  BOG1705    -0.2149
      5  C3       104.4300   76.2650   90.7240 C.3   1705  BOG1705     0.2198
      6  O3       105.6990   76.4990   91.3200 O.3   1705  BOG1705    -0.2174
      7  C4       104.5630   76.1960   89.1970 C.3   1705  BOG1705     0.2144
      8  O4       105.1100   77.4140   88.6890 O.3   1705  BOG1705    -0.2176
      9  C5       103.1680   75.9390   88.5610 C.3   1705  BOG1705     0.1835
     10  O5       102.6200   74.6950   89.0970 O.3   1705  BOG1705    -0.3256
     11  C6       103.2850   75.8510   87.0330 C.3   1705  BOG1705     0.2142
     12  O6       103.9180   74.6390   86.6140 O.3   1705  BOG1705    -0.2176
     13  C1'      100.6480   73.1740   90.4490 C.3   1705  BOG1705     0.1449
     14  C2'      100.3410   71.7120   90.6330 C.3   1705  BOG1705     0.0322
     15  C3'       99.4020   71.2740   89.5400 C.3   1705  BOG1705     0.0026
     16  C4'       99.0320   69.8100   89.6360 C.3   1705  BOG1705     0.0001
     17  C5'       98.0820   69.4240   88.5120 C.3   1705  BOG1705     0.0000
     18  C6'       96.7720   68.9000   89.0740 C.3   1705  BOG1705     0.0000
     19  C7'       95.8070   68.5100   87.9930 C.3   1705  BOG1705     0.0000
     20  C8'       94.5250   67.9980   88.6080 C.3   1705  BOG1705     0.0000
@<TRIPOS>BOND
     1    12    11    1
     2    11     9    1
     3    19    20    1
     4    19    18    1
     5    17    18    1
     6    17    16    1
     7     9    10    1
     8     9     7    1
     9     8     7    1
    10    10     1    1
    11     7     5    1
    12    15    16    1
    13    15    14    1
    14    13    14    1
    15    13     2    1
    16     1     2    1
    17     1     3    1
    18     5     3    1
    19     5     6    1
    20     3     4    1
