@<TRIPOS>MOLECULE
1l6m_DBH_A_1.pdb
 11 11 0 0 0
SMALL
GASTEIGER

@<TRIPOS>ATOM
      1  O17       31.1090   76.4080   66.2180 O.co2 201  DBH201     -0.2404
      2  C21       32.0030   75.6200   65.5910 C.2   201  DBH201      0.3910
      3  O9        33.0180   75.2480   66.1960 O.co2 201  DBH201     -0.2404
      4  C18       31.6450   75.1920   64.1430 C.ar  201  DBH201      0.1218
      5  C15       32.4820   74.2040   63.4330 C.ar  201  DBH201      0.0100
      6  C12       32.1960   73.7700   62.1370 C.ar  201  DBH201      0.0037
      7  C3        30.5140   75.6890   63.4150 C.ar  201  DBH201      0.2405
      8  O3        29.6370   76.5890   63.8880 O.3   201  DBH201     -0.2829
      9  C6        30.2330   75.2120   62.0490 C.ar  201  DBH201      0.2345
     10  C9        31.0810   74.2540   61.4240 C.ar  201  DBH201      0.0454
     11  O6        29.1390   75.7420   61.4610 O.3   201  DBH201     -0.2831
@<TRIPOS>BOND
     1    10     9   ar
     2    10     6   ar
     3    11     9    1
     4     9     7   ar
     5     6     5   ar
     6     7     8    1
     7     7     4   ar
     8     5     4   ar
     9     4     2    1
    10     2     3   ar
    11     2     1   ar
