@<TRIPOS>MOLECULE
1l6m_DBS_A_1.pdb
 17 17 0 0 0
SMALL
GASTEIGER

@<TRIPOS>ATOM
      1  O4        26.9310   77.5550   61.1050 O.3   203  DBS203     -0.2831
      2  C4        27.0010   78.7700   60.5510 C.ar  203  DBS203      0.2344
      3  C7        26.1780   79.2950   59.5470 C.ar  203  DBS203      0.0454
      4  C1        28.1000   79.5840   61.0980 C.ar  203  DBS203      0.2386
      5  O1        28.8210   78.9880   62.0550 O.3   203  DBS203     -0.2830
      6  C16       28.2950   80.9130   60.6030 C.ar  203  DBS203      0.0971
      7  C13       27.4390   81.4000   59.5680 C.ar  203  DBS203      0.0080
      8  C10       26.3960   80.5940   59.0680 C.ar  203  DBS203      0.0036
      9  C19       29.3620   81.8270   61.1030 C.2   203  DBS203      0.2685
     10  O7        29.4440   82.9310   60.6130 O.2   203  DBS203     -0.2682
     11  N1        30.2150   81.4630   62.1070 N.am  203  DBS203     -0.1890
     12  C22       31.2620   82.3950   62.6190 C.3   203  DBS203      0.2307
     13  C28       30.6550   83.4670   63.5570 C.3   203  DBS203      0.2152
     14  O13       29.5800   83.0440   64.4500 O.3   203  DBS203     -0.2179
     15  C25       32.4810   81.6290   63.1830 C.2   203  DBS203      0.3869
     16  O10       33.4880   82.2240   63.5410 O.co2 203  DBS203     -0.2437
     17  O15       32.3290   80.2740   63.2200 O.co2 203  DBS203     -0.2437
@<TRIPOS>BOND
     1     8     3   ar
     2     8     7   ar
     3     3     2   ar
     4     7     6   ar
     5     2     4   ar
     6     2     1    1
     7     6     4   ar
     8     6     9    1
     9    10     9    2
    10     4     5    1
    11     9    11   am
    12    11    12    1
    13    12    15    1
    14    12    13    1
    15    15    17   ar
    16    15    16   ar
    17    13    14    1
