@<TRIPOS>MOLECULE
1l6s_DSB_A_1.pdb
 14 13 0 0 0
SMALL
GASTEIGER

@<TRIPOS>ATOM
      1  C1        21.1330   91.2050   49.0930 C.2   350  DSB350      0.3649
      2  O2        22.2470   90.9800   48.5420 O.co2 350  DSB350     -0.2457
      3  C2        20.8450   90.3720   50.3230 C.3   350  DSB350      0.1141
      4  C3        19.3590   90.3810   50.6570 C.3   350  DSB350      0.0118
      5  C5        19.3170   89.5610   53.0580 C.3   350  DSB350      0.0000
      6  O1        20.2590   92.0480   48.7160 O.co2 350  DSB350     -0.2457
      7  C6        19.1570   88.3590   53.9740 C.3   350  DSB350      0.0000
      8  C8        21.3060   87.0790   52.8760 C.3   350  DSB350      0.0118
      9  C9        22.1390   88.2820   53.2740 C.3   350  DSB350      0.1141
     10  C10       23.5780   87.8550   53.4840 C.2   350  DSB350      0.3649
     11  O11       23.8360   86.6240   53.4500 O.co2 350  DSB350     -0.2457
     12  O12       24.4110   88.7700   53.7030 O.co2 350  DSB350     -0.2457
     13  C7        19.9280   87.0940   53.5040 C.3   350  DSB350      0.0006
     14  C4        19.0060   89.2710   51.5990 C.3   350  DSB350      0.0006
@<TRIPOS>BOND
     1     2     1   ar
     2     6     1   ar
     3     1     3    1
     4     3     4    1
     5     4    14    1
     6    14     5    1
     7     8     9    1
     8     8    13    1
     9     5     7    1
    10     9    10    1
    11    11    10   ar
    12    10    12   ar
    13    13     7    1
