@<TRIPOS>MOLECULE
1l6x_GAL_A_1.pdb
 11 11 0 0 0
SMALL
GASTEIGER

@<TRIPOS>ATOM
      1  C1         6.8950   21.9540   37.4770 C.3     7  GAL7        0.1777
      2  C2         8.3080   22.5110   37.2920 C.3     7  GAL7        0.2141
      3  C3         8.9020   22.9410   38.6390 C.3     7  GAL7        0.2173
      4  C4         7.9490   23.8700   39.3960 C.3     7  GAL7        0.2142
      5  C5         6.5870   23.2190   39.5070 C.3     7  GAL7        0.1810
      6  C6         5.5900   24.1340   40.1650 C.3     7  GAL7        0.2141
      7  O2         9.1290   21.5120   36.7120 O.3     7  GAL7       -0.2176
      8  O3        10.1260   23.6120   38.4280 O.3     7  GAL7       -0.2175
      9  O4         7.8290   25.1180   38.7240 O.3     7  GAL7       -0.2176
     10  O5         6.0730   22.8920   38.1930 O.3     7  GAL7       -0.3481
     11  O6         4.3400   23.4830   40.2910 O.3     7  GAL7       -0.2176
@<TRIPOS>BOND
     1     7     2    1
     2     2     1    1
     3     2     3    1
     4     1    10    1
     5    10     5    1
     6     8     3    1
     7     3     4    1
     8     9     4    1
     9     4     5    1
    10     5     6    1
    11     6    11    1
