@<TRIPOS>MOLECULE
1l6x_BMA_A_1.pdb
 11 11 0 0 0
SMALL
GASTEIGER

@<TRIPOS>ATOM
      1  C1         1.5190   14.5850   28.6820 C.3     3  BMA3        0.1777
      2  C2         1.7330   14.7040   27.1640 C.3     3  BMA3        0.2141
      3  C3         2.7850   15.7560   26.8190 C.3     3  BMA3        0.2173
      4  C4         2.4950   17.0650   27.5450 C.3     3  BMA3        0.2142
      5  C5         2.3260   16.8150   29.0240 C.3     3  BMA3        0.1810
      6  C6         1.9670   18.0960   29.7440 C.3     3  BMA3        0.2141
      7  O2         0.5100   15.0820   26.5730 O.3     3  BMA3       -0.2176
      8  O3         2.7530   16.0050   25.3970 O.3     3  BMA3       -0.2175
      9  O4         3.5580   17.9810   27.3540 O.3     3  BMA3       -0.2176
     10  O5         1.2500   15.8810   29.2410 O.3     3  BMA3       -0.3481
     11  O6         1.7930   17.8010   31.1370 O.3     3  BMA3       -0.2176
@<TRIPOS>BOND
     1     8     3    1
     2     7     2    1
     3     3     2    1
     4     3     4    1
     5     2     1    1
     6     9     4    1
     7     4     5    1
     8     1    10    1
     9     5    10    1
    10     5     6    1
    11     6    11    1
