@<TRIPOS>MOLECULE
1l6y_4OX_A_1.pdb
 14 13 0 0 0
SMALL
GASTEIGER

@<TRIPOS>ATOM
      1  C7        22.9170   86.5260   54.0730 C.3   350  4OX350      0.0006
      2  C8        24.4170   86.2690   54.2110 C.3   350  4OX350      0.0118
      3  C9        25.2610   87.1490   53.2360 C.3   350  4OX350      0.1141
      4  C10       26.8220   87.0210   53.4680 C.2   350  4OX350      0.3649
      5  OT1       27.4980   86.1100   52.8380 O.co2 350  4OX350     -0.2457
      6  OT2       27.3540   87.8580   54.2740 O.co2 350  4OX350     -0.2457
      7  O1        21.8640   91.6230   48.9630 O.co2 350  4OX350     -0.2457
      8  C1        22.2960   90.4820   49.2360 C.2   350  4OX350      0.3649
      9  OH1       23.4240   90.0500   48.9030 O.co2 350  4OX350     -0.2457
     10  C2        21.3890   89.5150   49.9800 C.3   350  4OX350      0.1141
     11  C3        21.3710   89.7190   51.4920 C.3   350  4OX350      0.0118
     12  C4        20.8360   88.5110   52.2010 C.3   350  4OX350      0.0006
     13  C5        21.0610   88.3950   53.7240 C.3   350  4OX350      0.0000
     14  C6        22.5550   88.0680   54.0960 C.3   350  4OX350      0.0000
@<TRIPOS>BOND
     1     9     8   ar
     2     7     8   ar
     3     8    10    1
     4    10    11    1
     5    11    12    1
     6    12    13    1
     7     5     4   ar
     8     3     4    1
     9     3     2    1
    10     4     6   ar
    11    13    14    1
    12     1    14    1
    13     1     2    1
