@<TRIPOS>MOLECULE
1l7e_NAI_A_1.pdb
 44 48 0 0 0
SMALL
GASTEIGER

@<TRIPOS>ATOM
      1  PA        -6.1630  -29.8780    6.2860 P.3   701  NAI701      0.2189
      2  O1A       -5.1560  -29.8980    5.1750 O.2   701  NAI701     -0.5170
      3  O2A       -6.9310  -31.1710    6.6370 O.3   701  NAI701     -0.4371
      4  O5B       -7.1530  -28.7060    5.9760 O.3   701  NAI701     -0.3112
      5  C5B       -8.0120  -28.7270    4.7730 C.3   701  NAI701      0.1813
      6  C4B       -9.0560  -27.7200    4.9140 C.3   701  NAI701      0.1821
      7  O4B      -10.1790  -28.0220    4.0010 O.3   701  NAI701     -0.3135
      8  C3B       -9.7300  -27.5580    6.3440 C.3   701  NAI701      0.2184
      9  O3B       -9.8570  -26.1440    6.7110 O.3   701  NAI701     -0.2174
     10  C2B      -11.0380  -28.2460    6.2460 C.3   701  NAI701      0.2570
     11  O2B      -12.0060  -27.8710    7.1330 O.3   701  NAI701     -0.2130
     12  C1B      -11.3260  -28.0020    4.7320 C.3   701  NAI701      0.3186
     13  N9A      -12.2060  -28.9760    4.1760 N.pl3 701  NAI701     -0.1439
     14  C8A      -12.2510  -30.3520    4.2910 C.3   701  NAI701      0.3377
     15  N7A      -13.2300  -30.9300    3.6350 N.2   701  NAI701     -0.2095
     16  C5A      -13.9170  -29.9080    3.0210 C.2   701  NAI701      0.2526
     17  C6A      -15.1460  -29.9100    2.1250 C.2   701  NAI701      0.4393
     18  N6A      -15.8160  -30.9630    1.7540 N.pl3 701  NAI701      0.2180
     19  N1A      -15.5360  -28.5990    1.6950 N.2   701  NAI701      0.0021
     20  C2A      -14.9370  -27.4550    2.0060 C.3   701  NAI701      0.5254
     21  N3A      -13.7780  -27.4210    2.8510 N.2   701  NAI701     -0.0055
     22  C4A      -13.2970  -28.6950    3.3420 C.2   701  NAI701      0.3518
     23  O3        -5.5080  -29.3960    7.6240 O.3   701  NAI701     -0.2703
     24  PN        -4.8940  -28.0130    8.2170 P.3   701  NAI701      0.2189
     25  O1N       -5.0050  -26.9860    7.2350 O.2   701  NAI701     -0.5170
     26  O2N       -3.5560  -28.3860    8.7310 O.3   701  NAI701     -0.4371
     27  O5D       -5.8110  -27.7770    9.5120 O.3   701  NAI701     -0.3112
     28  C5D       -6.8440  -26.7660    9.6100 C.3   701  NAI701      0.1813
     29  C4D       -7.0110  -26.2290   10.9960 C.3   701  NAI701      0.1799
     30  O4D       -6.0050  -26.9460   11.8860 O.3   701  NAI701     -0.3327
     31  C3D       -6.6200  -24.7200   11.2890 C.3   701  NAI701      0.2158
     32  O3D       -7.4750  -24.3590   12.2950 O.3   701  NAI701     -0.2175
     33  C2D       -5.1430  -24.7760   11.7190 C.3   701  NAI701      0.2309
     34  O2D       -4.7190  -23.6460   12.3950 O.3   701  NAI701     -0.2158
     35  C1D       -5.1890  -26.0270   12.5540 C.3   701  NAI701      0.2263
     36  N1N       -3.8460  -26.6620   12.8270 N.pl3 701  NAI701     -0.2787
     37  C2N       -3.2740  -26.5180   14.1130 C.3   701  NAI701      0.1244
     38  C3N       -2.0470  -27.1240   14.2520 C.2   701  NAI701      0.0544
     39  C7N       -1.4870  -26.8890   15.7540 C.2   701  NAI701      0.2818
     40  O7N       -2.2810  -26.4620   16.6210 O.2   701  NAI701     -0.2670
     41  N7N       -0.1390  -27.1860   15.9930 N.am  701  NAI701     -0.0839
     42  C4N       -1.3370  -27.8570   13.2470 C.2   701  NAI701      0.0033
     43  C5N       -2.0370  -27.9340   11.9650 C.2   701  NAI701      0.0157
     44  C6N       -3.2830  -27.3400   11.7550 C.2   701  NAI701      0.0633
@<TRIPOS>BOND
     1    19    20    1
     2    19    17    2
     3    18    17    1
     4    20    21    1
     5    17    16    1
     6    21    22    2
     7    16    22    1
     8    16    15    2
     9    22    13    1
    10    15    14    1
    11     7    12    1
    12     7     6    1
    13    13    14    1
    14    13    12    1
    15    12    10    1
    16     5     6    1
    17     5     4    1
    18     6     8    1
    19     2     1    2
    20     4     1    1
    21    10     8    1
    22    10    11    1
    23     1     3    1
    24     1    23    1
    25     8     9    1
    26    25    24    2
    27    23    24    1
    28    24    26    1
    29    24    27    1
    30    27    28    1
    31    28    29    1
    32    29    31    1
    33    29    30    1
    34    31    33    1
    35    31    32    1
    36    33    34    1
    37    33    35    1
    38    44    43    2
    39    44    36    1
    40    30    35    1
    41    43    42    1
    42    35    36    1
    43    36    37    1
    44    42    38    2
    45    37    38    1
    46    38    39    1
    47    39    41   am
    48    39    40    2
