@<TRIPOS>MOLECULE
1l7f_BCZ_A_1.pdb
 23 23 0 0 0
SMALL
GASTEIGER

@<TRIPOS>ATOM
      1  C2        24.6460   16.5550   63.1530 C.3   801  BCZ801      0.1858
      2  N25       24.2740   15.9440   61.8770 N.pl3 801  BCZ801     -0.0901
      3  C26       23.8880   14.7170   61.8370 C.cat 801  BCZ801      0.5345
      4  N30       23.6880   13.8980   62.9170 N.pl3 801  BCZ801      0.1354
      5  N27       23.5920   14.1650   60.6120 N.pl3 801  BCZ801      0.1354
      6  C3        25.7230   17.6470   62.8880 C.3   801  BCZ801      0.0907
      7  C10       27.1700   17.1260   62.5750 C.3   801  BCZ801      0.1010
      8  C24       28.1920   18.3180   62.3820 C.3   801  BCZ801      0.0202
      9  C37       27.7850   19.2510   61.2010 C.3   801  BCZ801      0.0017
     10  C38       28.4340   20.6540   61.1620 C.3   801  BCZ801      0.0001
     11  C36       29.6240   17.7090   62.2030 C.3   801  BCZ801      0.0017
     12  C39       30.1080   16.8420   63.3870 C.3   801  BCZ801      0.0001
     13  N11       27.1560   16.2630   61.3860 N.am  801  BCZ801     -0.2070
     14  C13       27.2660   14.9130   61.5190 C.2   801  BCZ801      0.2418
     15  C15       27.1800   14.0660   60.2630 C.3   801  BCZ801      0.0964
     16  O14       27.4320   14.3150   62.5720 O.2   801  BCZ801     -0.2733
     17  C4        25.6780   18.5470   64.1730 C.3   801  BCZ801      0.1677
     18  O9        26.5860   17.9910   65.1660 O.3   801  BCZ801     -0.2224
     19  C5        24.2180   18.3970   64.7210 C.3   801  BCZ801      0.1373
     20  C6        23.4850   19.6920   64.8870 C.2   801  BCZ801      0.3669
     21  O8        22.2660   19.7760   65.0340 O.co2 801  BCZ801     -0.2456
     22  O7        24.2040   20.8120   64.7970 O.co2 801  BCZ801     -0.2456
     23  C1        23.5020   17.4190   63.7550 C.3   801  BCZ801      0.0572
@<TRIPOS>BOND
     1    15    14    1
     2     5     3    1
     3    10     9    1
     4     9     8    1
     5    13    14   am
     6    13     7    1
     7    14    16    2
     8     3     2    2
     9     3     4    1
    10     2     1    1
    11    11     8    1
    12    11    12    1
    13     8     7    1
    14     7     6    1
    15     6     1    1
    16     6    17    1
    17     1    23    1
    18    23    19    1
    19    17    19    1
    20    17    18    1
    21    19    20    1
    22    22    20   ar
    23    20    21   ar
