@<TRIPOS>MOLECULE
1l7g_BCZ_A_1.pdb
 23 23 0 0 0
SMALL
GASTEIGER

@<TRIPOS>ATOM
      1  C2        24.6610   16.5230   63.1240 C.3   801  BCZ801      0.1858
      2  N25       24.2790   15.9170   61.8500 N.pl3 801  BCZ801     -0.0901
      3  C26       23.8940   14.6810   61.8170 C.cat 801  BCZ801      0.5345
      4  N30       23.7620   13.8370   62.8880 N.pl3 801  BCZ801      0.1354
      5  N27       23.5760   14.1160   60.6050 N.pl3 801  BCZ801      0.1354
      6  C3        25.7480   17.6050   62.8720 C.3   801  BCZ801      0.0907
      7  C10       27.1770   17.1030   62.4880 C.3   801  BCZ801      0.1010
      8  C24       28.2290   18.2450   62.2590 C.3   801  BCZ801      0.0202
      9  C37       27.8190   19.2340   61.1380 C.3   801  BCZ801      0.0017
     10  C38       28.6020   20.5650   61.1110 C.3   801  BCZ801      0.0001
     11  C36       29.6690   17.6760   62.1100 C.3   801  BCZ801      0.0017
     12  C39       30.1790   16.9200   63.3630 C.3   801  BCZ801      0.0001
     13  N11       27.1330   16.2140   61.3230 N.am  801  BCZ801     -0.2070
     14  C13       27.2970   14.8730   61.4630 C.2   801  BCZ801      0.2418
     15  C15       27.2610   14.0370   60.1970 C.3   801  BCZ801      0.0964
     16  O14       27.4660   14.2960   62.5280 O.2   801  BCZ801     -0.2733
     17  C4        25.6800   18.5190   64.1370 C.3   801  BCZ801      0.1677
     18  O9        26.5620   17.9870   65.1590 O.3   801  BCZ801     -0.2224
     19  C5        24.2070   18.3970   64.6630 C.3   801  BCZ801      0.1373
     20  C6        23.4790   19.6990   64.7950 C.2   801  BCZ801      0.3669
     21  O8        22.2630   19.8150   64.9730 O.co2 801  BCZ801     -0.2456
     22  O7        24.2050   20.8060   64.6300 O.co2 801  BCZ801     -0.2456
     23  C1        23.4990   17.4020   63.6970 C.3   801  BCZ801      0.0572
@<TRIPOS>BOND
     1    15    14    1
     2     5     3    1
     3    10     9    1
     4     9     8    1
     5    13    14   am
     6    13     7    1
     7    14    16    2
     8     3     2    2
     9     3     4    1
    10     2     1    1
    11    11     8    1
    12    11    12    1
    13     8     7    1
    14     7     6    1
    15     6     1    1
    16     6    17    1
    17     1    23    1
    18    23    19    1
    19    17    19    1
    20    17    18    1
    21    22    20   ar
    22    19    20    1
    23    20    21   ar
