@<TRIPOS>MOLECULE
1l7h_BCZ_A_1.pdb
 23 23 0 0 0
SMALL
GASTEIGER

@<TRIPOS>ATOM
      1  C2        24.5660   16.4650   63.0980 C.3   801  BCZ801      0.1858
      2  N25       24.2040   15.8690   61.8020 N.pl3 801  BCZ801     -0.0901
      3  C26       23.8630   14.6190   61.7570 C.cat 801  BCZ801      0.5345
      4  N30       23.7440   13.7520   62.8110 N.pl3 801  BCZ801      0.1354
      5  N27       23.5700   14.0310   60.5420 N.pl3 801  BCZ801      0.1354
      6  C3        25.7030   17.5150   62.8840 C.3   801  BCZ801      0.0907
      7  C10       27.1210   16.9370   62.5860 C.3   801  BCZ801      0.1010
      8  C24       28.2200   18.0490   62.3540 C.3   801  BCZ801      0.0202
      9  C37       27.9200   18.9130   61.0800 C.3   801  BCZ801      0.0017
     10  C38       28.5380   20.3340   61.1490 C.3   801  BCZ801      0.0001
     11  C36       29.6040   17.3280   62.2520 C.3   801  BCZ801      0.0017
     12  C39       30.0930   16.6740   63.5620 C.3   801  BCZ801      0.0001
     13  N11       27.0750   16.0620   61.4050 N.am  801  BCZ801     -0.2070
     14  C13       27.2240   14.7200   61.5230 C.2   801  BCZ801      0.2418
     15  C15       27.2260   13.8900   60.2540 C.3   801  BCZ801      0.0964
     16  O14       27.3520   14.1320   62.5840 O.2   801  BCZ801     -0.2733
     17  C4        25.6460   18.4230   64.1590 C.3   801  BCZ801      0.1677
     18  O9        26.5360   17.9110   65.1800 O.3   801  BCZ801     -0.2224
     19  C5        24.1710   18.3150   64.6710 C.3   801  BCZ801      0.1373
     20  C6        23.4690   19.6230   64.8710 C.2   801  BCZ801      0.3669
     21  O8        22.2480   19.7660   64.9630 O.co2 801  BCZ801     -0.2456
     22  O7        24.2390   20.7070   64.9450 O.co2 801  BCZ801     -0.2456
     23  C1        23.4440   17.4230   63.6180 C.3   801  BCZ801      0.0572
@<TRIPOS>BOND
     1    15    14    1
     2     5     3    1
     3     9    10    1
     4     9     8    1
     5    13    14   am
     6    13     7    1
     7    14    16    2
     8     3     2    2
     9     3     4    1
    10     2     1    1
    11    11     8    1
    12    11    12    1
    13     8     7    1
    14     7     6    1
    15     6     1    1
    16     6    17    1
    17     1    23    1
    18    23    19    1
    19    17    19    1
    20    17    18    1
    21    19    20    1
    22    20    22   ar
    23    20    21   ar
