@<TRIPOS>MOLECULE
1l7k_GLA_A_1.pdb
 12 12 0 0 0
SMALL
GASTEIGER

@<TRIPOS>ATOM
      1  C1         7.7870   38.0130    9.1610 C.3   500  GLA500      0.3024
      2  C2         6.7630   37.6150    8.0890 C.3   500  GLA500      0.2434
      3  C3         5.4210   38.2970    8.3150 C.3   500  GLA500      0.2199
      4  C4         4.9190   37.8940    9.7130 C.3   500  GLA500      0.2144
      5  C5         6.0260   38.1670   10.7700 C.3   500  GLA500      0.1836
      6  C6         5.7230   37.6760   12.1730 C.3   500  GLA500      0.2142
      7  O1         7.9780   39.4290    9.1970 O.3   500  GLA500     -0.1869
      8  O2         7.1770   37.8640    6.7400 O.3   500  GLA500     -0.2148
      9  O3         4.4970   37.8610    7.2810 O.3   500  GLA500     -0.2174
     10  O4         4.4680   36.5380    9.7830 O.3   500  GLA500     -0.2176
     11  O5         7.2920   37.5640   10.4380 O.3   500  GLA500     -0.3236
     12  O6         4.5170   38.2650   12.6600 O.3   500  GLA500     -0.2176
@<TRIPOS>BOND
     1     8     2    1
     2     9     3    1
     3     2     3    1
     4     2     1    1
     5     3     4    1
     6     1     7    1
     7     1    11    1
     8     4    10    1
     9     4     5    1
    10    11     5    1
    11     5     6    1
    12     6    12    1
