@<TRIPOS>MOLECULE
1l7p_SEP_A_1.pdb
 11 10 0 0 0
SMALL
GASTEIGER

@<TRIPOS>ATOM
      1  N         51.4160   16.3560    9.2850 N.3   770  SEP770     -0.1181
      2  CA        52.2980   15.3650    9.8950 C.3   770  SEP770      0.2242
      3  CB        53.5850   15.2180    9.0660 C.3   770  SEP770      0.1842
      4  OG        53.3080   14.8270    7.7290 O.3   770  SEP770     -0.2681
      5  C         52.6520   15.7690   11.3290 C.2   770  SEP770      0.3844
      6  O         51.9720   16.6610   11.8690 O.co2 770  SEP770     -0.2440
      7  OXT       53.4000   15.0120   11.9790 O.co2 770  SEP770     -0.2440
      8  P         53.9070   15.4860    6.5290 P.3   770  SEP770      0.5327
      9  O1P       53.2130   16.7750    6.2710 O.3   770  SEP770     -0.1145
     10  O2P       53.7480   14.6000    5.3500 O.2   770  SEP770     -0.2224
     11  O3P       55.3540   15.7410    6.7680 O.3   770  SEP770     -0.1145
@<TRIPOS>BOND
     1    10     8    2
     2     9     8    1
     3     8    11    1
     4     8     4    1
     5     4     3    1
     6     3     2    1
     7     1     2    1
     8     2     5    1
     9     5     6   ar
    10     5     7   ar
