@<TRIPOS>MOLECULE
1l7v_V4O_C_1.pdb
 16 16 0 0 0
SMALL
GASTEIGER

@<TRIPOS>ATOM
      1  V1        87.2760   53.3470   59.6040 V     250  V4O250      0.0000
      2  O0        87.6650   54.8020   59.1280 O.3   250  V4O250      0.0000
      3  O1        88.5270   52.4290   59.1080 O.3   250  V4O250      0.0000
      4  V2        84.2430   51.9800   58.8960 V     250  V4O250      0.0000
      5  O2        82.9680   52.9850   58.6680 O.3   250  V4O250      0.0000
      6  O3        85.7490   52.7980   58.8420 O.3   250  V4O250      0.0000
      7  O4        84.1990   50.8780   57.7170 O.3   250  V4O250      0.0000
      8  V3        83.9430   51.1980   62.2810 V     250  V4O250      0.0000
      9  O5        82.6920   52.1170   62.7780 O.3   250  V4O250      0.0000
     10  O6        84.0710   51.2360   60.5330 O.3   250  V4O250      0.0000
     11  O7        83.5530   49.7430   62.7580 O.3   250  V4O250      0.0000
     12  V4        86.9740   52.5640   62.9890 V     250  V4O250      0.0000
     13  O8        85.4700   51.7470   63.0440 O.3   250  V4O250      0.0000
     14  O9        87.1470   53.3080   61.3540 O.3   250  V4O250      0.0000
     15  O10       87.0190   53.6670   64.1690 O.3   250  V4O250      0.0000
     16  O11       88.2500   51.5600   63.2160 O.3   250  V4O250      0.0000
@<TRIPOS>BOND
     1     7     4    1
     2     5     4    1
     3     6     4    1
     4     6     1    1
     5     4    10    1
     6     3     1    1
     7     2     1    1
     8     1    14    1
     9    10     8    1
    10    14    12    1
    11     8    11    1
    12     8     9    1
    13     8    13    1
    14    12    13    1
    15    12    16    1
    16    12    15    1
