@<TRIPOS>MOLECULE
1l7x_700_A_1.pdb
 30 33 0 0 0
SMALL
GASTEIGER

@<TRIPOS>ATOM
      1  C10       66.0570  -74.2040   75.4830 C.3   862  700862      0.0574
      2  C11       65.1170  -74.7250   74.3570 C.ar  862  700862     -0.0200
      3  C12       64.7590  -76.1050   74.2580 C.ar  862  700862     -0.0042
      4  C13       63.8760  -76.5610   73.2290 C.ar  862  700862     -0.0003
      5  C14       63.3450  -75.6360   72.2890 C.ar  862  700862     -0.0000
      6  C15       63.7040  -74.2530   72.3810 C.ar  862  700862     -0.0003
      7  C16       64.5780  -73.8060   73.4060 C.ar  862  700862     -0.0042
      8  C17       65.2740  -73.5800   76.7020 C.3   862  700862      0.1759
      9  C18       64.3920  -74.7030   77.2550 C.2   862  700862      0.2459
     10  O2        64.9210  -75.5370   77.9440 O.2   862  700862     -0.2730
     11  N3        63.0860  -74.7590   76.8630 N.am  862  700862     -0.2769
     12  C19       62.1660  -73.8330   76.1690 C.3   862  700862      0.1064
     13  C20       61.0100  -74.8190   76.4540 C.3   862  700862      0.1428
     14  C21       59.6980  -74.3360   77.1430 C.2   862  700862      0.3677
     15  O3        59.3760  -73.1570   76.9250 O.co2 862  700862     -0.2455
     16  O4        59.1210  -75.2070   77.8100 O.co2 862  700862     -0.2455
     17  C22       62.0520  -75.6870   77.2840 C.3   862  700862      0.1064
     18  N1        66.2180  -73.0350   77.7280 N.am  862  700862     -0.1915
     19  C9        65.7630  -72.4110   78.8660 C.2   862  700862      0.2949
     20  C8        66.6650  -71.8530   79.9130 C.2   862  700862      0.1862
     21  C7        68.0240  -71.8250   79.9780 C.2   862  700862      0.0394
     22  C6        68.3880  -71.1370   81.2720 C.ar  862  700862      0.0331
     23  C1        67.1330  -70.8440   81.8190 C.ar  862  700862      0.1317
     24  C2        66.9970  -70.1850   83.0700 C.ar  862  700862      0.0329
     25  C3        68.1880  -69.8330   83.7590 C.ar  862  700862      0.0140
     26  C4        69.4660  -70.1280   83.2040 C.ar  862  700862      0.0578
     27 CL1        70.8920  -69.6740   84.0940 Cl    862  700862     -0.0822
     28  C5        69.5870  -70.7870   81.9420 C.ar  862  700862      0.0140
     29  N2        66.1720  -71.2780   80.9880 N.2   862  700862     -0.3972
     30  O1        64.5580  -72.2800   79.0820 O.2   862  700862     -0.2655
@<TRIPOS>BOND
     1     5     6   ar
     2     5     4   ar
     3     6     7   ar
     4     4     3   ar
     5     7     2   ar
     6     3     2   ar
     7     2     1    1
     8     1     8    1
     9    12    13    1
    10    12    11    1
    11    13    14    1
    12    13    17    1
    13     8     9    1
    14     8    18    1
    15    11     9   am
    16    11    17    1
    17    15    14   ar
    18    14    16   ar
    19     9    10    2
    20    18    19   am
    21    19    30    2
    22    19    20    1
    23    20    21    1
    24    20    29    2
    25    21    22    2
    26    29    23    2
    27    22    23   ar
    28    22    28   ar
    29    23    24   ar
    30    28    26   ar
    31    24    25   ar
    32    26    25   ar
    33    26    27    1
