@<TRIPOS>MOLECULE
1l7x_NBG_A_1.pdb
 15 15 0 0 0
SMALL
GASTEIGER

@<TRIPOS>ATOM
      1  C1        50.2250  -60.4900  105.4510 C.3   861  NBG861      0.2446
      2  C2        49.9790  -59.3830  106.5150 C.3   861  NBG861      0.2326
      3  C3        51.2080  -58.3990  106.6600 C.3   861  NBG861      0.2190
      4  C4        52.5610  -59.1780  106.7740 C.3   861  NBG861      0.2144
      5  C5        52.6820  -60.2380  105.6280 C.3   861  NBG861      0.1828
      6  C6        53.9430  -61.1210  105.7460 C.3   861  NBG861      0.2142
      7  C7        48.4900  -62.0350  104.5970 C.2   861  NBG861      0.2440
      8  C8        47.4650  -63.0870  104.9300 C.3   861  NBG861      0.0965
      9  N1        49.2350  -61.5500  105.6290 N.am  861  NBG861     -0.1751
     10  O3        51.0330  -57.5350  107.8140 O.3   861  NBG861     -0.2174
     11  O2        48.7800  -58.6600  106.2240 O.3   861  NBG861     -0.2157
     12  O4        53.6660  -58.2690  106.7390 O.3   861  NBG861     -0.2176
     13  O5        51.5210  -61.0990  105.6490 O.3   861  NBG861     -0.3315
     14  O6        54.0070  -61.8270  106.9990 O.3   861  NBG861     -0.2176
     15  O7        48.6110  -61.6760  103.4300 O.2   861  NBG861     -0.2733
@<TRIPOS>BOND
     1    15     7    2
     2     7     8    1
     3     7     9   am
     4     1     9    1
     5     1    13    1
     6     1     2    1
     7     5    13    1
     8     5     6    1
     9     5     4    1
    10     6    14    1
    11    11     2    1
    12     2     3    1
    13     3     4    1
    14     3    10    1
    15    12     4    1
