@<TRIPOS>MOLECULE
1l7x_CFF_A_1.pdb
 14 15 0 0 0
SMALL
GASTEIGER

@<TRIPOS>ATOM
      1  N1        38.4150  -58.1290  101.3380 N.am  863  CFF863     -0.1903
      2  C2        37.1970  -57.8480  102.2260 C.2   863  CFF863      0.4044
      3  C10       39.7250  -57.7790  101.9580 C.3   863  CFF863      0.1267
      4  C6        38.3750  -58.6650  100.0580 C.2   863  CFF863      0.2609
      5  N3        36.0530  -58.1770  101.6350 N.am  863  CFF863     -0.1218
      6  O11       37.3970  -57.3820  103.3120 O.2   863  CFF863     -0.2230
      7  C12       34.7770  -57.9510  102.4020 C.3   863  CFF863      0.2626
      8  C4        35.9590  -58.7380  100.3080 C.2   863  CFF863      0.3276
      9  C5        37.0660  -58.9750   99.5480 C.3   863  CFF863      0.2453
     10  N9        34.8650  -59.0830   99.6810 N.2   863  CFF863     -0.0479
     11  O13       39.4730  -58.8510   99.4210 O.2   863  CFF863     -0.2723
     12  N7        36.5970  -59.5200   98.3420 N.3   863  CFF863     -0.2098
     13  C8        35.2690  -59.5550   98.4940 C.3   863  CFF863      0.3428
     14  C14       37.3910  -59.9520   97.1840 C.3   863  CFF863      0.0945
@<TRIPOS>BOND
     1    14    12    1
     2    12    13    1
     3    12     9    1
     4    13    10    1
     5    11     4    2
     6     9     4    1
     7     9     8    1
     8    10     8    2
     9     4     1   am
    10     8     5    1
    11     1     3    1
    12     1     2   am
    13     5     2   am
    14     5     7    1
    15     2     6    2
