@<TRIPOS>MOLECULE
1l7x_PLP_A_1.pdb
 15 15 0 0 0
SMALL
GASTEIGER

@<TRIPOS>ATOM
      1  N1        53.0850  -54.7780   97.6800 N.ar  860  PLP860     -0.2452
      2  C2        54.2920  -54.5440   97.0710 C.ar  860  PLP860      0.0978
      3  C2A       54.3380  -54.4050   95.5660 C.3   860  PLP860      0.0555
      4  C3        55.4440  -54.4610   97.8160 C.ar  860  PLP860      0.2049
      5  O3        56.6580  -54.2200   97.1660 O.3   860  PLP860     -0.2857
      6  C4        55.3730  -54.6190   99.2190 C.ar  860  PLP860      0.0182
      7  C4A       56.5610  -54.5680   99.9720 C.3   860  PLP860      0.0342
      8  C5        54.1040  -54.8590   99.8220 C.ar  860  PLP860      0.0261
      9  C6        52.9960  -54.9340   99.0270 C.ar  860  PLP860      0.0965
     10  C5A       53.8790  -55.0210  101.3520 C.3   860  PLP860      0.1815
     11  O4P       53.3490  -53.8030  101.9060 O.3   860  PLP860     -0.2653
     12  P         52.6470  -53.5290  103.3680 P.3   860  PLP860      0.5329
     13  O1P       51.2980  -54.0940  103.2670 O.2   860  PLP860     -0.2224
     14  O2P       52.6660  -52.0480  103.4290 O.3   860  PLP860     -0.1145
     15  O3P       53.5590  -54.1960  104.3140 O.3   860  PLP860     -0.1145
@<TRIPOS>BOND
     1     3     2    1
     2     2     1   ar
     3     2     4   ar
     4     5     4    1
     5     1     9   ar
     6     4     6   ar
     7     9     8   ar
     8     6     8   ar
     9     6     7    1
    10     8    10    1
    11    10    11    1
    12    11    12    1
    13    13    12    2
    14    12    14    1
    15    12    15    1
