@<TRIPOS>MOLECULE
1l7z_III_B_1.pdb
 36 35 0 0 0
SMALL
GASTEIGER

@<TRIPOS>ATOM
      1  N          2.5770   12.4710   74.9210 N.3   201  GLY201     -0.1210
      2  CA         1.6940   11.3970   75.3450 C.3   201  GLY201      0.1956
      3  C          0.2460   11.7660   75.6270 C.2   201  GLY201      0.2612
      4  O         -0.6590   11.3300   74.9140 O.2   201  GLY201     -0.2717
      5  N          0.0220   12.5700   76.6640 N.am  202  GLY202     -0.1942
      6  CA        -1.3350   12.9450   77.0230 C.3   202  GLY202      0.2014
      7  C         -1.7830   14.3700   76.7500 C.2   202  GLY202      0.2639
      8  O         -2.8800   14.5810   76.2280 O.2   202  GLY202     -0.2714
      9  N         -0.9560   15.3520   77.1000 N.am  203  LYS203     -0.1963
     10  CA        -1.3280   16.7470   76.8830 C.3   203  LYS203      0.1728
     11  C         -0.1460   17.7150   76.8230 C.2   203  LYS203      0.2616
     12  O          1.0120   17.3130   76.6800 O.2   203  LYS203     -0.2715
     13  CB        -2.2760   17.2170   77.9910 C.3   203  LYS203      0.0311
     14  CG        -1.5970   17.3570   79.3530 C.3   203  LYS203      0.0038
     15  CD        -2.3940   18.2430   80.3060 C.3   203  LYS203      0.0206
     16  CE        -3.6490   17.5560   80.8190 C.3   203  LYS203      0.1093
     17  NZ        -3.3250   16.4020   81.7050 N.3   203  LYS203     -0.1314
     18  N         -0.4750   19.0010   76.9390 N.am  204  LEU204     -0.1963
     19  CA         0.4890   20.0970   76.9250 C.3   204  LEU204      0.1728
     20  C         -0.0280   21.1940   77.8580 C.2   204  LEU204      0.2617
     21  O         -0.3530   20.9270   79.0140 O.2   204  LEU204     -0.2715
     22  CB         0.6450   20.6600   75.5090 C.3   204  LEU204      0.0311
     23  CG         1.2820   19.7630   74.4470 C.3   204  LEU204      0.0022
     24  CD1        1.2800   20.4830   73.1100 C.3   204  LEU204      0.0001
     25  CD2        2.7010   19.4120   74.8560 C.3   204  LEU204      0.0001
     26  N         -0.1170   22.4210   77.3470 N.am  205  SER205     -0.1936
     27  CA        -0.6020   23.5550   78.1340 C.3   205  SER205      0.2055
     28  C         -2.1170   23.7230   77.9950 C.2   205  SER205      0.2642
     29  O         -2.7800   22.9380   77.3150 O.2   205  SER205     -0.2714
     30  CB         0.1040   24.8420   77.6890 C.3   205  SER205      0.2130
     31  OG        -0.3590   25.9660   78.4200 O.3   205  SER205     -0.2179
     32  N         -2.6590   24.7480   78.6480 N.am  206  LYS206     -0.1977
     33  CA        -4.0910   25.0260   78.5930 C.3   206  LYS206      0.1597
     34  C         -4.4790   25.4990   77.1940 C.2   206  LYS206      0.2287
     35  O         -4.7640   26.7080   77.0380 O.2   206  LYS206     -0.2864
     36  CB        -4.4630   26.0850   79.6310 C.3   206  LYS206      0.0319
@<TRIPOS>BOND
     1    24    23    1
     2    23    25    1
     3    23    22    1
     4     4     3    2
     5     1     2    1
     6     2     3    1
     7    22    19    1
     8     3     5   am
     9     8     7    2
    10     5     6    1
    11    12    11    2
    12     7     6    1
    13     7     9   am
    14    11    10    1
    15    11    18   am
    16    10     9    1
    17    10    13    1
    18    19    18    1
    19    19    20    1
    20    35    34    2
    21    34    33    1
    22    29    28    2
    23    26    20   am
    24    26    27    1
    25    30    27    1
    26    30    31    1
    27    20    21    2
    28    13    14    1
    29    28    27    1
    30    28    32   am
    31    33    32    1
    32    33    36    1
    33    14    15    1
    34    15    16    1
    35    16    17    1
