@<TRIPOS>MOLECULE
1l8a_TDP_A_1.pdb
 26 27 0 0 0
SMALL
GASTEIGER

@<TRIPOS>ATOM
      1  N1'       26.8140  -36.4550    7.9810 N.2   887  TDP887     -0.1861
      2  C2'       27.4250  -37.3600    8.8250 C.1   887  TDP887      0.0663
      3  C2A       27.3850  -38.7960    8.4300 C.3   887  TDP887      0.1291
      4  N3'       28.0610  -36.9930    9.9380 N.2   887  TDP887     -0.3368
      5  C4'       28.1230  -35.6440   10.2660 C.2   887  TDP887      0.2292
      6  N4'       28.7790  -35.3450   11.3700 N.pl3 887  TDP887     -0.0925
      7  C5'       27.4840  -34.6360    9.3810 C.2   887  TDP887      0.0654
      8  C6'       26.8480  -35.1090    8.2650 C.2   887  TDP887      0.1115
      9  C35       27.5480  -33.1410    9.5980 C.3   887  TDP887      0.1237
     10  N3        26.7830  -32.6460   10.8080 N.pl3 887  TDP887     -0.2970
     11  C2        27.3780  -32.1680   11.8940 C.3   887  TDP887      0.1543
     12  S1        26.2940  -31.6220   13.0450 S.3   887  TDP887     -0.0951
     13  C5        24.9460  -32.0600   12.0460 C.2   887  TDP887      0.0164
     14  C4        25.3680  -32.5960   10.8620 C.2   887  TDP887      0.0279
     15  C4A       24.5130  -33.0640    9.7100 C.3   887  TDP887      0.0473
     16  C5A       23.5500  -31.9520   12.5500 C.3   887  TDP887      0.0661
     17  C5B       23.4140  -32.6610   13.8660 C.3   887  TDP887      0.1544
     18  O5G       22.0190  -32.7130   14.2040 O.3   887  TDP887     -0.3134
     19  P1        21.4670  -33.7180   15.3230 P.3   887  TDP887      0.2230
     20  O11       22.1880  -33.2180   16.6760 O.3   887  TDP887     -0.2261
     21  O12       20.0230  -33.4950   15.4250 O.3   887  TDP887     -0.4370
     22  O13       21.9470  -35.1030   15.0320 O.2   887  TDP887     -0.5169
     23  P2        22.2150  -31.8700   17.5550 P.3   887  TDP887      0.5373
     24  O21       22.2830  -32.3270   19.0440 O.3   887  TDP887     -0.1143
     25  O22       23.4630  -31.1440   17.2090 O.2   887  TDP887     -0.2221
     26  O23       20.9540  -31.1510   17.3240 O.3   887  TDP887     -0.1143
@<TRIPOS>BOND
     1     1     8    1
     2     1     2    2
     3     8     7    2
     4     3     2    1
     5     2     4    2
     6     7     9    1
     7     7     5    1
     8     9    10    1
     9    15    14    1
    10     4     5    2
    11     5     6    1
    12    10    14    1
    13    10    11    1
    14    14    13    2
    15    11    12    1
    16    13    16    1
    17    13    12    1
    18    16    17    1
    19    17    18    1
    20    18    19    1
    21    22    19    2
    22    19    21    1
    23    19    20    1
    24    20    23    1
    25    25    23    2
    26    26    23    1
    27    23    24    1
