@<TRIPOS>MOLECULE
1l8b_MGP_A_1.pdb
 33 35 0 0 0
SMALL
GASTEIGER

@<TRIPOS>ATOM
      1  PA         4.3380   11.6160   14.5370 P.3   1000  MGP1000     0.2189
      2  O1A        4.8790   11.5650   13.1430 O.2   1000  MGP1000    -0.5170
      3  O2A        4.6520   10.3140   15.1730 O.3   1000  MGP1000    -0.4371
      4  O3A        5.0720   12.8000   15.3760 O.3   1000  MGP1000    -0.2700
      5  O5'        2.6940   11.8040   14.5170 O.3   1000  MGP1000    -0.3112
      6  PB         4.7920   14.3820   15.2510 P.3   1000  MGP1000     0.2277
      7  O1B        5.0420   14.8820   13.8760 O.2   1000  MGP1000    -0.5168
      8  O2B        5.7220   15.0480   16.1890 O.3   1000  MGP1000    -0.4368
      9  O3B        3.4030   14.6910   15.6410 O.3   1000  MGP1000    -0.2258
     10  PC         2.4340   15.0700   16.8580 P.3   1000  MGP1000     0.5373
     11  O1C        1.0640   14.6170   16.4200 O.2   1000  MGP1000    -0.2221
     12  O2C        2.4600   16.5190   17.1820 O.3   1000  MGP1000    -0.1143
     13  O3C        2.9580   14.2410   17.9790 O.3   1000  MGP1000    -0.1143
     14  C5'        1.9910   12.4980   13.4960 C.3   1000  MGP1000     0.1813
     15  C4'        0.7800   11.8080   12.9320 C.3   1000  MGP1000     0.1799
     16  O4'        1.2290   10.6910   12.0800 O.3   1000  MGP1000    -0.3326
     17  C3'       -0.1140   11.0800   13.9000 C.3   1000  MGP1000     0.2158
     18  O3'       -1.0170   11.9950   14.5720 O.3   1000  MGP1000    -0.2175
     19  C2'       -0.9200   10.1670   12.9380 C.3   1000  MGP1000     0.2310
     20  O2'       -1.9590   10.8410   12.1640 O.3   1000  MGP1000    -0.2158
     21  C1'        0.2140    9.6490   12.0510 C.3   1000  MGP1000     0.2287
     22  N9         1.0060    8.4560   12.5810 N.pl3 1000  MGP1000    -0.2454
     23  C8         2.1430    8.3370   13.2910 C.3   1000  MGP1000     0.1735
     24  N7         2.3950    7.0770   13.4850 N.3   1000  MGP1000    -0.2343
     25  CM7        3.5410    6.5470   14.2140 C.3   1000  MGP1000     0.0924
     26  C5         1.3710    6.1980   12.8720 C.3   1000  MGP1000     0.2475
     27  C6         1.1410    4.9300   12.7650 C.1   1000  MGP1000     0.2145
     28  O6         1.9070    4.0150   13.2680 O.2   1000  MGP1000    -0.2115
     29  N1        -0.0460    4.6730   12.0320 N.2   1000  MGP1000    -0.2526
     30  C2        -0.8920    5.6390   11.4800 C.1   1000  MGP1000     0.2525
     31  N2        -1.9660    5.2630   10.8220 N.pl3 1000  MGP1000    -0.0226
     32  N3        -0.6400    6.9430   11.6010 N.2   1000  MGP1000    -0.3118
     33  C4         0.5220    7.2210   12.3160 C.2   1000  MGP1000     0.2086
@<TRIPOS>BOND
     1    31    30    1
     2    30    32    2
     3    30    29    2
     4    32    33    2
     5    29    27    2
     6    21    16    1
     7    21    22    1
     8    21    19    1
     9    16    15    1
    10    20    19    1
    11    33    22    1
    12    33    26    1
    13    22    23    1
    14    27    26    1
    15    27    28    2
    16    26    24    1
    17    15    14    1
    18    15    17    1
    19    19    17    1
    20     2     1    2
    21    23    24    1
    22    24    25    1
    23    14     5    1
    24     7     6    2
    25    17    18    1
    26     5     1    1
    27     1     3    1
    28     1     4    1
    29     6     4    1
    30     6     9    1
    31     6     8    1
    32     9    10    1
    33    11    10    2
    34    10    12    1
    35    10    13    1
