@<TRIPOS>MOLECULE
1l8g_DBD_A_1.pdb
 31 34 0 0 0
SMALL
GASTEIGER

@<TRIPOS>ATOM
      1  O1        13.8920   44.1980   17.3490 O.3   322  DBD322     -0.3471
      2  C2        13.8160   45.0440   18.4860 C.3   322  DBD322      0.1866
      3  C3        12.3870   45.3720   18.7680 C.ar  322  DBD322      0.0353
      4  C4        11.3530   45.0390   17.9810 C.ar  322  DBD322     -0.0071
      5  C5        11.5430   44.2110   16.7580 C.3   322  DBD322      0.0589
      6  C6        12.7840   43.3770   17.0760 C.3   322  DBD322      0.1474
      7  S7        11.9370   46.0750   20.2580 S.2   322  DBD322     -0.0724
      8  C8        10.2880   45.9120   19.7710 C.ar  322  DBD322      0.1091
      9  C9        10.0470   45.4020   18.5570 C.ar  322  DBD322      0.0976
     10  C10        8.6630   45.2970   17.9530 C.2   322  DBD322      0.3892
     11  O11        8.5370   45.2500   16.7650 O.co2 322  DBD322     -0.2405
     12  O12        7.5520   45.2430   18.6900 O.co2 322  DBD322     -0.2405
     13  N13        9.2060   46.3660   20.6110 N.am  322  DBD322     -0.1630
     14  C14        9.3180   47.0700   21.7370 C.2   322  DBD322      0.3496
     15  C15        7.9750   47.4890   22.3640 C.2   322  DBD322      0.4422
     16  O16        7.7770   48.5280   22.9140 O.co2 322  DBD322     -0.2353
     17  O17        7.0080   46.5590   22.4130 O.co2 322  DBD322     -0.2353
     18  O18       10.3750   47.3510   22.3230 O.2   322  DBD322     -0.2607
     19  C19       14.6380   46.2120   18.0600 C.3   322  DBD322      0.2415
     20  O20       15.8770   45.6790   17.6670 O.2   322  DBD322     -0.4563
     21  C21       16.7130   45.2310   18.6980 C.2   322  DBD322      0.2448
     22  C22       17.9490   44.5430   18.4230 C.ar  322  DBD322      0.0736
     23  C23       18.6350   44.3150   19.6090 C.ar  322  DBD322      0.1338
     24  S24       17.7800   44.7840   21.0230 S.O2  322  DBD322      0.1033
     25  N25       16.6010   45.2910   20.0500 N.2   322  DBD322     -0.0904
     26  C26       18.4620   44.2680   17.1770 C.ar  322  DBD322      0.0060
     27  C27       19.6700   43.5760   17.0860 C.ar  322  DBD322      0.0002
     28  C28       20.3960   43.3130   18.2530 C.ar  322  DBD322      0.0014
     29  C29       19.8710   43.6200   19.5010 C.ar  322  DBD322      0.0206
     30  O30       18.4200   45.8790   21.6250 O.2   322  DBD322     -0.1462
     31  O31       17.3760   43.6030   21.7820 O.2   322  DBD322     -0.1462
@<TRIPOS>BOND
     1     5     6    1
     2     5     4    1
     3    11    10   ar
     4     6     1    1
     5    27    26   ar
     6    27    28   ar
     7    26    22   ar
     8     1     2    1
     9    20    19    1
    10    20    21    1
    11    10     9    1
    12    10    12   ar
    13     4     9   ar
    14     4     3   ar
    15    19     2    1
    16    28    29   ar
    17    22    21    1
    18    22    23   ar
    19     2     3    1
    20     9     8   ar
    21    21    25    2
    22     3     7   ar
    23    29    23   ar
    24    23    24    1
    25     8     7   ar
    26     8    13    1
    27    25    24    1
    28    13    14   am
    29    24    30    2
    30    24    31    2
    31    14    18    2
    32    14    15    1
    33    15    17   ar
    34    15    16   ar
