@<TRIPOS>MOLECULE
1l8l_APO_A_1.pdb
 10 9 0 0 0
SMALL
GASTEIGER

@<TRIPOS>ATOM
      1  C1       -31.4180   -4.1680  -23.6490 C.3   800  APO800      0.2015
      2  N2       -30.1430   -3.5230  -23.2830 N.3   800  APO800     -0.1203
      3  C3       -31.7050   -5.4640  -22.8070 C.2   800  APO800      0.3823
      4  O4       -32.8320   -5.9290  -22.7010 O.co2 800  APO800     -0.2440
      5  O5       -30.5930   -6.0370  -22.2280 O.co2 800  APO800     -0.2440
      6  C6       -32.5250   -3.0420  -23.5880 C.3   800  APO800      0.0895
      7  P7       -32.6990   -2.1260  -25.1120 P.3   800  APO800      0.1192
      8  O8       -31.3220   -1.3060  -25.2800 O.3   800  APO800     -0.3571
      9  O9       -32.8680   -3.1300  -26.3780 O.2   800  APO800     -0.4600
     10  O10      -33.8550   -1.0010  -25.0500 O.3   800  APO800     -0.3571
@<TRIPOS>BOND
     1     9     7    2
     2     8     7    1
     3     7    10    1
     4     7     6    1
     5     1     6    1
     6     1     2    1
     7     1     3    1
     8     3     4   ar
     9     3     5   ar
