@<TRIPOS>MOLECULE
1l8n_XYP_A_2.pdb
 10 10 0 0 0
SMALL
GASTEIGER

@<TRIPOS>ATOM
      1  O4A       26.1070   34.3510  163.4840 O.2   703  XYP703     -0.2472
      2  C1B       25.3480   34.2710  162.2900 C.2   703  XYP703      0.3506
      3  C2B       25.5810   32.8840  161.6490 C.3   703  XYP703      0.2823
      4  C3B       25.1660   32.9180  160.1540 C.3   703  XYP703      0.2270
      5  C4B       23.6920   33.3680  160.0240 C.3   703  XYP703      0.2287
      6  C5B       23.5230   34.7470  160.7140 C.3   703  XYP703      0.2439
      7  O2B       26.9360   32.4700  161.7560 O.3   703  XYP703     -0.2082
      8  O3B       25.3210   31.5970  159.6750 O.3   703  XYP703     -0.2169
      9  O4B       23.3280   33.4740  158.6540 O.3   703  XYP703     -0.2163
     10  O5B       23.9570   34.6670  162.1140 O.3   703  XYP703     -0.4438
@<TRIPOS>BOND
     1     9     5    1
     2     8     4    1
     3     5     4    1
     4     5     6    1
     5     4     3    1
     6     6    10    1
     7     3     7    1
     8     3     2    1
     9    10     2    1
    10     2     1    2
