@<TRIPOS>MOLECULE
1l8n_GCW_A_1.pdb
 14 14 0 0 0
SMALL
GASTEIGER

@<TRIPOS>ATOM
      1  O1        22.6160   33.0890  152.4340 O.3   701  GCW701     -0.1869
      2  C1        22.7330   34.2000  153.3010 C.3   701  GCW701      0.3028
      3  C2        24.2080   34.1300  153.8210 C.3   701  GCW701      0.2434
      4  C3        24.6300   35.5010  154.4010 C.3   701  GCW701      0.2172
      5  C4        24.4020   36.6100  153.3470 C.3   701  GCW701      0.1864
      6  C5        22.8520   36.6010  153.0370 C.3   701  GCW701      0.2497
      7  C6        22.4840   37.6630  151.9660 C.2   701  GCW701      0.3940
      8  C7        25.7470   38.6760  153.0520 C.3   701  GCW701      0.1742
      9  O2        24.2180   33.1610  154.8740 O.3   701  GCW701     -0.2148
     10  O3        25.9800   35.3980  154.7660 O.3   701  GCW701     -0.2175
     11  O4        24.8090   37.8980  153.8550 O.3   701  GCW701     -0.3478
     12  O5        22.5930   35.3090  152.3790 O.3   701  GCW701     -0.3149
     13  O6A       22.4660   38.8600  152.3410 O.co2 701  GCW701     -0.2429
     14  O6B       22.1530   37.2140  150.8410 O.co2 701  GCW701     -0.2429
@<TRIPOS>BOND
     1    14     7   ar
     2     7    13   ar
     3     7     6    1
     4    12     6    1
     5    12     2    1
     6     1     2    1
     7     6     5    1
     8     8    11    1
     9     2     3    1
    10     5    11    1
    11     5     4    1
    12     3     4    1
    13     3     9    1
    14     4    10    1
