@<TRIPOS>MOLECULE
1l8q_ADP_A_1.pdb
 27 29 0 0 0
SMALL
GASTEIGER

@<TRIPOS>ATOM
      1  PB        38.6290   78.7300   17.1820 P.3   400  ADP400      0.5373
      2  O1B       39.3650   77.4230   16.8490 O.3   400  ADP400     -0.1143
      3  O2B       37.6300   78.6120   18.2960 O.3   400  ADP400     -0.1143
      4  O3B       38.1320   79.4600   15.9740 O.2   400  ADP400     -0.2221
      5  PA        41.2650   79.3060   17.6660 P.3   400  ADP400      0.2231
      6  O1A       41.6490   78.1740   18.6010 O.3   400  ADP400     -0.4370
      7  O2A       41.5320   78.9860   16.2050 O.2   400  ADP400     -0.5169
      8  O3A       39.7240   79.6780   17.8140 O.3   400  ADP400     -0.2261
      9  O5'       41.9960   80.6460   18.1180 O.3   400  ADP400     -0.3111
     10  C5'       41.8700   81.8310   17.3530 C.3   400  ADP400      0.1813
     11  C4'       43.0840   82.6630   17.6830 C.3   400  ADP400      0.1821
     12  O4'       42.9330   83.2720   18.9810 O.3   400  ADP400     -0.3135
     13  C3'       44.2960   81.7630   17.7810 C.3   400  ADP400      0.2184
     14  O3'       45.3900   82.5560   17.3430 O.3   400  ADP400     -0.2174
     15  C2'       44.4010   81.4910   19.2650 C.3   400  ADP400      0.2570
     16  O2'       45.6880   81.1370   19.7430 O.3   400  ADP400     -0.2130
     17  C1'       43.9310   82.7810   19.8790 C.3   400  ADP400      0.3186
     18  N9        43.3370   82.4470   21.1800 N.pl3 400  ADP400     -0.1439
     19  C8        42.1110   81.9140   21.3910 C.3   400  ADP400      0.3377
     20  N7        41.9000   81.7340   22.7300 N.2   400  ADP400     -0.2095
     21  C5        43.0030   82.1340   23.3720 C.2   400  ADP400      0.2526
     22  C6        43.4440   82.2100   24.7720 C.2   400  ADP400      0.4393
     23  N6        42.6500   81.8100   25.7780 N.pl3 400  ADP400      0.2180
     24  N1        44.6670   82.6920   25.0210 N.2   400  ADP400      0.0021
     25  C2        45.4850   83.1090   24.0330 C.3   400  ADP400      0.5254
     26  N3        45.1360   83.0680   22.7340 N.2   400  ADP400     -0.0055
     27  C4        43.9430   82.6000   22.3550 C.2   400  ADP400      0.3518
@<TRIPOS>BOND
     1     4     1    2
     2     7     5    2
     3     2     1    1
     4     1     8    1
     5     1     3    1
     6    14    13    1
     7    10    11    1
     8    10     9    1
     9     5     8    1
    10     5     9    1
    11     5     6    1
    12    11    13    1
    13    11    12    1
    14    13    15    1
    15    12    17    1
    16    15    16    1
    17    15    17    1
    18    17    18    1
    19    18    19    1
    20    18    27    1
    21    19    20    1
    22    27    26    2
    23    27    21    1
    24    20    21    2
    25    26    25    1
    26    21    22    1
    27    25    24    1
    28    22    24    2
    29    22    23    1
