@<TRIPOS>MOLECULE
1l8s_LPE_B_1.pdb
 34 33 0 0 0
SMALL
GASTEIGER

@<TRIPOS>ATOM
      1  C1        47.9610   32.8840  -16.0570 C.3   322  LPE322      0.1775
      2  O1        48.0630   31.4920  -16.2250 O.3   322  LPE322     -0.3510
      3  C2        46.6050   33.3590  -16.5470 C.3   322  LPE322      0.2112
      4  O2H       45.7650   32.2270  -16.8570 O.3   322  LPE322     -0.2177
      5  C3        45.9290   34.1730  -15.4730 C.3   322  LPE322      0.1844
      6  C11       49.0360   30.9340  -15.3800 C.3   322  LPE322      0.1423
      7  C12       48.4400   29.7050  -14.7100 C.3   322  LPE322      0.0321
      8  O3        45.0360   35.0810  -16.0680 O.3   322  LPE322     -0.3113
      9  P         43.5680   35.3520  -15.4840 P.3   322  LPE322      0.2140
     10  O31       42.8780   34.0210  -15.2790 O.2   322  LPE322     -0.5172
     11  O32       43.6790   36.3240  -14.3280 O.3   322  LPE322     -0.4373
     12  O33       42.8320   36.1060  -16.6900 O.3   322  LPE322     -0.3163
     13  C31       41.6650   36.8970  -16.4440 C.3   322  LPE322      0.1271
     14  C32       40.8350   36.8420  -17.7400 C.3   322  LPE322     -0.0402
     15  N         39.6630   37.7270  -17.5630 N.4   322  LPE322      0.3874
     16  C1N       39.6600   38.7710  -18.6120 C.3   322  LPE322     -0.0959
     17  C2N       38.4170   36.9350  -17.6650 C.3   322  LPE322     -0.0959
     18  C3N       39.7190   38.3740  -16.2340 C.3   322  LPE322     -0.0959
     19  C13       49.5680   28.7070  -14.4280 C.3   322  LPE322      0.0026
     20  C14       49.2110   27.9740  -13.1230 C.3   322  LPE322      0.0001
     21  C15       49.6340   26.4600  -13.3400 C.3   322  LPE322      0.0000
     22  C16       49.8770   25.8150  -11.9710 C.3   322  LPE322      0.0000
     23  C17       49.0520   24.5360  -11.8540 C.3   322  LPE322      0.0000
     24  C18       49.8180   23.5590  -10.9350 C.3   322  LPE322      0.0000
     25  C19       50.9100   22.8980  -11.7100 C.3   322  LPE322      0.0000
     26  C20       52.0080   23.9610  -11.9970 C.3   322  LPE322      0.0000
     27  C21       52.8900   23.3990  -13.1090 C.3   322  LPE322      0.0000
     28  C22       54.2580   24.0570  -13.0120 C.3   322  LPE322      0.0000
     29  C23       55.3370   22.9850  -13.1360 C.3   322  LPE322      0.0000
     30  C24       55.7990   22.9160  -14.5850 C.3   322  LPE322      0.0000
     31  C25       57.2780   22.5310  -14.6280 C.3   322  LPE322      0.0000
     32  C26       57.4500   21.3280  -15.5490 C.3   322  LPE322      0.0000
     33  C27       57.7000   20.0870  -14.7150 C.3   322  LPE322      0.0000
     34  C28       56.6400   19.0300  -14.9410 C.3   322  LPE322      0.0000
@<TRIPOS>BOND
     1    16    15    1
     2    14    15    1
     3    14    13    1
     4    17    15    1
     5    15    18    1
     6     4     3    1
     7    12    13    1
     8    12     9    1
     9     3     1    1
    10     3     5    1
    11     2     1    1
    12     2     6    1
    13     8     9    1
    14     8     5    1
    15    32    33    1
    16    32    31    1
    17     9    10    2
    18     9    11    1
    19     6     7    1
    20    34    33    1
    21     7    19    1
    22    31    30    1
    23    30    29    1
    24    19    20    1
    25    21    20    1
    26    21    22    1
    27    29    28    1
    28    27    28    1
    29    27    26    1
    30    26    25    1
    31    22    23    1
    32    23    24    1
    33    25    24    1
