@<TRIPOS>MOLECULE
1l8t_ADP_A_1.pdb
 27 29 0 0 0
SMALL
GASTEIGER

@<TRIPOS>ATOM
      1  PB        62.6220    8.2620 -272.7380 P.3   300  ADP300      0.5373
      2  O1B       62.1400    7.4130 -273.8300 O.2   300  ADP300     -0.2221
      3  O2B       61.7360    8.6370 -271.6360 O.3   300  ADP300     -0.1143
      4  O3B       63.1830    9.6160 -273.3590 O.3   300  ADP300     -0.1143
      5  PA        65.4010    7.5700 -272.5940 P.3   300  ADP300      0.2231
      6  O1A       65.7760    6.2210 -273.0870 O.3   300  ADP300     -0.4370
      7  O2A       65.5760    8.7600 -273.4440 O.2   300  ADP300     -0.5169
      8  O3A       63.8820    7.5090 -272.0860 O.3   300  ADP300     -0.2261
      9  O5'       66.1950    7.8250 -271.2250 O.3   300  ADP300     -0.3111
     10  C5'       65.9650    9.0120 -270.4670 C.3   300  ADP300      0.1813
     11  C4'       67.2930    9.6190 -270.0650 C.3   300  ADP300      0.1821
     12  O4'       68.0510    8.6730 -269.3140 O.3   300  ADP300     -0.3135
     13  C3'       68.2160    9.9520 -271.2490 C.3   300  ADP300      0.2184
     14  O3'       68.0650   11.3290 -271.6090 O.3   300  ADP300     -0.2174
     15  C2'       69.5910    9.7420 -270.6140 C.3   300  ADP300      0.2570
     16  O2'       69.9030   10.8670 -269.7940 O.3   300  ADP300     -0.2130
     17  C1'       69.4210    8.5470 -269.6980 C.3   300  ADP300      0.3186
     18  N9        69.7990    7.2460 -270.2910 N.pl3 300  ADP300     -0.1439
     19  C8        69.0000    6.2080 -270.7200 C.3   300  ADP300      0.3377
     20  N7        69.6560    5.1850 -271.1900 N.2   300  ADP300     -0.2095
     21  C5        70.9780    5.5700 -271.0640 C.2   300  ADP300      0.2526
     22  C6        72.2220    4.9300 -271.3750 C.2   300  ADP300      0.4393
     23  N6        72.2990    3.7130 -271.8970 N.pl3 300  ADP300      0.2180
     24  N1        73.3740    5.6180 -271.1140 N.2   300  ADP300      0.0021
     25  C2        73.3140    6.8550 -270.5800 C.3   300  ADP300      0.5254
     26  N3        72.2190    7.5500 -270.2450 N.2   300  ADP300     -0.0055
     27  C4        71.0730    6.8340 -270.5190 C.2   300  ADP300      0.3518
@<TRIPOS>BOND
     1     2     1    2
     2     7     5    2
     3     4     1    1
     4     6     5    1
     5     1     8    1
     6     1     3    1
     7     5     8    1
     8     5     9    1
     9    23    22    1
    10    14    13    1
    11    22    24    2
    12    22    21    1
    13    13    15    1
    14    13    11    1
    15     9    10    1
    16    20    21    2
    17    20    19    1
    18    24    25    1
    19    21    27    1
    20    19    18    1
    21    15    16    1
    22    15    17    1
    23    25    26    1
    24    27    18    1
    25    27    26    2
    26    10    11    1
    27    18    17    1
    28    11    12    1
    29    17    12    1
