@<TRIPOS>MOLECULE
1l8t_KAN_A_1.pdb
 33 35 0 0 0
SMALL
GASTEIGER

@<TRIPOS>ATOM
      1  C1        58.6460   14.7400 -275.6310 C.3     1  KAN1        0.2695
      2  C2        59.9820   14.0030 -275.5510 C.3     1  KAN1        0.2406
      3  C3        59.8200   12.5940 -276.0610 C.3     1  KAN1        0.2198
      4  C4        58.7330   11.8970 -275.2700 C.3     1  KAN1        0.2133
      5  C5        57.4350   12.6570 -275.4810 C.3     1  KAN1        0.1696
      6  C6        56.3120   11.9880 -274.6990 C.3     1  KAN1        0.1415
      7  C7        56.7390   18.2820 -278.9480 C.3     1  KAN1        0.1231
      8  C8        57.7910   18.5110 -277.8470 C.3     1  KAN1        0.1680
      9  C9        58.5250   17.1760 -277.5440 C.3     1  KAN1        0.2088
     10  C10       57.5300   16.0680 -277.1760 C.3     1  KAN1        0.1680
     11  C11       56.5610   15.8800 -278.3450 C.3     1  KAN1        0.1231
     12  C12       55.7740   17.1650 -278.5690 C.3     1  KAN1        0.0432
     13  C13       59.2200   20.2810 -277.2850 C.3     1  KAN1        0.2684
     14  C14       59.2680   21.7580 -277.6980 C.3     1  KAN1        0.2279
     15  C15       60.2550   21.9790 -278.8290 C.3     1  KAN1        0.1599
     16  C16       61.5990   21.3970 -278.4730 C.3     1  KAN1        0.2017
     17  C17       61.4130   19.9130 -278.1800 C.3     1  KAN1        0.1824
     18  C18       62.7450   19.2600 -277.8430 C.3     1  KAN1        0.2142
     19  N1        55.0390   12.6700 -274.9680 N.3     1  KAN1       -0.1286
     20  N2        55.6250   14.7800 -278.0530 N.3     1  KAN1       -0.1302
     21  N3        55.9800   19.5210 -279.1750 N.3     1  KAN1       -0.1302
     22  N4        60.3920   23.4200 -279.0700 N.3     1  KAN1       -0.1272
     23  O5        57.5800   14.0050 -274.9890 O.3     1  KAN1       -0.3268
     24  O6        60.9400   14.6740 -276.3690 O.3     1  KAN1       -0.2149
     25  O7        61.0380   11.9120 -275.8620 O.3     1  KAN1       -0.2174
     26  O8        58.5800   10.5780 -275.7820 O.3     1  KAN1       -0.2176
     27  O9        58.2210   14.8450 -276.9920 O.3     1  KAN1       -0.3269
     28  O10       59.4020   17.3740 -276.4380 O.3     1  KAN1       -0.2178
     29  O11       58.7320   19.4550 -278.3520 O.3     1  KAN1       -0.3269
     30  O12       60.5410   19.7560 -277.0450 O.3     1  KAN1       -0.3257
     31  O13       57.9880   22.1410 -278.1540 O.3     1  KAN1       -0.2161
     32  O14       62.4460   21.5590 -279.6000 O.3     1  KAN1       -0.2188
     33  O15       62.7200   17.9410 -278.3810 O.3     1  KAN1       -0.2176
@<TRIPOS>BOND
     1    32    16    1
     2    21     7    1
     3    22    15    1
     4     7    12    1
     5     7     8    1
     6    15    16    1
     7    15    14    1
     8    12    11    1
     9    16    17    1
    10    33    18    1
    11    29     8    1
    12    29    13    1
    13    11    20    1
    14    11    10    1
    15    17    18    1
    16    17    30    1
    17    31    14    1
    18     8     9    1
    19    14    13    1
    20     9    10    1
    21     9    28    1
    22    13    30    1
    23    10    27    1
    24    27     1    1
    25    24     2    1
    26     3    25    1
    27     3     2    1
    28     3     4    1
    29    26     4    1
    30     1     2    1
    31     1    23    1
    32     5     4    1
    33     5    23    1
    34     5     6    1
    35    19     6    1
