@<TRIPOS>MOLECULE
1l9b_U10_M_1.pdb
 37 37 0 0 0
SMALL
GASTEIGER

@<TRIPOS>ATOM
      1  C1       -85.0470  -56.0900   49.4090 C.2   1008  U101008     0.0198
      2  C2       -86.4290  -55.6670   49.1250 C.2   1008  U101008     0.2282
      3  C3       -87.5390  -56.6530   48.9790 C.2   1008  U101008     0.2140
      4  C4       -87.2090  -57.9950   49.1220 C.2   1008  U101008     0.2140
      5  C5       -85.8480  -58.4450   49.4070 C.2   1008  U101008     0.2285
      6  C6       -84.7250  -57.4510   49.5570 C.2   1008  U101008     0.0235
      7  C1M      -83.9800  -54.9930   49.5300 C.3   1008  U101008     0.0343
      8  C3M      -89.8460  -55.4340   49.3680 C.3   1008  U101008     0.2528
      9  C4M      -89.4950  -58.9200   49.6440 C.3   1008  U101008     0.2528
     10  C7       -83.3300  -58.0360   49.8550 C.3   1008  U101008     0.0548
     11  C8       -82.8550  -57.8480   51.2160 C.2   1008  U101008    -0.0298
     12  C9       -82.6680  -58.7790   52.2310 C.2   1008  U101008    -0.0475
     13  C10      -82.9480  -60.2910   52.0970 C.3   1008  U101008     0.0260
     14  C11      -82.1590  -58.3490   53.6250 C.3   1008  U101008     0.0264
     15  C12      -80.7950  -58.9460   53.9760 C.3   1008  U101008     0.0297
     16  C13      -79.7180  -58.4050   53.1180 C.2   1008  U101008    -0.0342
     17  C14      -78.7860  -57.4180   53.5090 C.2   1008  U101008    -0.0478
     18  C15      -78.8340  -56.8040   54.9420 C.3   1008  U101008     0.0260
     19  C16      -77.6720  -56.8520   52.6640 C.3   1008  U101008     0.0263
     20  C17      -76.2640  -57.3780   52.8810 C.3   1008  U101008     0.0297
     21  C18      -76.0260  -58.6090   52.1130 C.2   1008  U101008    -0.0342
     22  C19      -75.3710  -59.8000   52.4100 C.2   1008  U101008    -0.0478
     23  C20      -74.6860  -60.0950   53.7660 C.3   1008  U101008     0.0260
     24  C21      -75.2160  -60.9920   51.4690 C.3   1008  U101008     0.0263
     25  C22      -73.9770  -61.0170   50.6010 C.3   1008  U101008     0.0297
     26  C23      -73.9530  -62.2200   49.7500 C.2   1008  U101008    -0.0342
     27  C24      -73.4930  -62.3380   48.4240 C.2   1008  U101008    -0.0478
     28  C25      -72.9250  -61.1150   47.6680 C.3   1008  U101008     0.0260
     29  C26      -73.5070  -63.6440   47.6160 C.3   1008  U101008     0.0264
     30  C27      -72.1360  -64.3200   47.5060 C.3   1008  U101008     0.0300
     31  C28      -72.1670  -65.6890   47.9480 C.2   1008  U101008    -0.0304
     32  C29      -72.1720  -66.4880   49.0750 C.2   1008  U101008    -0.0303
     33  C30      -72.2160  -68.0350   49.0630 C.3   1008  U101008     0.0303
     34  O2       -86.7700  -54.4980   48.9840 O.2   1008  U101008    -0.2836
     35  O3       -88.8070  -56.0330   48.6970 O.2   1008  U101008    -0.4652
     36  O4       -88.2380  -59.0600   48.9840 O.2   1008  U101008    -0.4652
     37  O5       -85.5200  -59.6300   49.5360 O.2   1008  U101008    -0.2835
@<TRIPOS>BOND
     1    30    29    1
     2    30    31    1
     3    29    27    1
     4    28    27    1
     5    31    32    2
     6    27    26    2
     7    35     3    1
     8    35     8    1
     9     3     4    2
    10     3     2    1
    11    36     4    1
    12    36     9    1
    13    34     2    2
    14    33    32    1
    15     4     5    1
    16     2     1    1
    17     5    37    2
    18     5     6    1
    19     1     7    1
    20     1     6    2
    21     6    10    1
    22    26    25    1
    23    10    11    1
    24    25    24    1
    25    11    12    2
    26    24    22    1
    27    13    12    1
    28    21    22    2
    29    21    20    1
    30    12    14    1
    31    22    23    1
    32    19    20    1
    33    19    17    1
    34    16    17    2
    35    16    15    1
    36    17    18    1
    37    14    15    1
