@<TRIPOS>MOLECULE
1l9b_BCL_M_1.pdb
 50 56 0 0 0
SMALL
GASTEIGER

@<TRIPOS>ATOM
      1 MG        -73.8150  -33.5960   64.8400 Mg    1001  BCL1001     0.0000
      2  CHA      -73.3350  -32.7000   61.4700 C.2   1001  BCL1001     0.0000
      3  CHB      -76.7700  -32.0750   64.6770 C.2   1001  BCL1001     0.0000
      4  CHC      -74.3960  -34.8390   67.8100 C.2   1001  BCL1001     0.0000
      5  CHD      -70.8360  -35.4870   64.6170 C.2   1001  BCL1001     0.0000
      6  NA       -74.8450  -32.5050   63.3300 N.2   1001  BCL1001     0.0000
      7  C1A      -74.5070  -32.2260   61.9890 C.1   1001  BCL1001     0.0000
      8  C2A      -75.5830  -31.4800   61.2320 C.2   1001  BCL1001     0.0000
      9  C3A      -76.6640  -31.1890   62.3460 C.2   1001  BCL1001     0.0000
     10  C4A      -76.0530  -31.9500   63.4970 C.1   1001  BCL1001     0.0000
     11  CMA      -76.6880  -29.6880   62.5850 C.3   1001  BCL1001     0.0000
     12  CAA      -76.3510  -32.2580   60.0860 C.3   1001  BCL1001     0.0000
     13  CBA      -76.6270  -33.8060   60.2600 C.3   1001  BCL1001     0.0000
     14  CGA      -78.0610  -34.1880   59.8230 C.2   1001  BCL1001     0.0000
     15  O1A      -78.2990  -34.9710   58.9210 O.2   1001  BCL1001     0.0000
     16  O2A      -79.0700  -33.6070   60.4990 O.3   1001  BCL1001     0.0000
     17  NB       -75.3180  -33.4730   66.0700 N.2   1001  BCL1001     0.0000
     18  C1B      -76.4650  -32.7570   65.8600 C.2   1001  BCL1001     0.0000
     19  C2B      -77.3750  -32.8670   67.0560 C.2   1001  BCL1001     0.0000
     20  C3B      -76.7120  -33.6900   67.9440 C.2   1001  BCL1001     0.0000
     21  C4B      -75.3780  -34.0510   67.2870 C.2   1001  BCL1001     0.0000
     22  CMB      -78.7560  -32.2130   67.1850 C.3   1001  BCL1001     0.0000
     23  CAB      -77.1920  -34.1640   69.3070 C.2   1001  BCL1001     0.0000
     24  OBB      -78.1530  -33.6880   69.8000 O.2   1001  BCL1001     0.0000
     25  CBB      -76.5850  -35.2940   70.1940 C.3   1001  BCL1001     0.0000
     26  NC       -72.7990  -34.8810   65.9760 N.ar  1001  BCL1001     0.0000
     27  C1C      -73.1840  -35.2050   67.2540 C.ar  1001  BCL1001     0.0000
     28  C2C      -72.2670  -36.0680   68.0110 C.ar  1001  BCL1001     0.0000
     29  C3C      -71.1630  -36.2860   66.9110 C.ar  1001  BCL1001     0.0000
     30  C4C      -71.5840  -35.5140   65.7510 C.ar  1001  BCL1001     0.0000
     31  CMC      -71.6790  -35.3280   69.2250 C.3   1001  BCL1001     0.0000
     32  CAC      -71.1050  -37.7520   66.5300 C.3   1001  BCL1001     0.0000
     33  CBC      -70.6430  -38.3410   67.8920 C.3   1001  BCL1001     0.0000
     34  ND       -72.3350  -34.0590   63.3410 N.2   1001  BCL1001     0.0000
     35  C1D      -71.1690  -34.7960   63.4340 C.1   1001  BCL1001     0.0000
     36  C2D      -70.4680  -34.7110   62.2310 C.2   1001  BCL1001     0.0000
     37  C3D      -71.2930  -33.8910   61.4370 C.2   1001  BCL1001     0.0000
     38  C4D      -72.4170  -33.5160   62.1400 C.2   1001  BCL1001     0.0000
     39  CMD      -69.1070  -35.4120   61.9750 C.3   1001  BCL1001     0.0000
     40  CAD      -71.4240  -33.2850   60.1800 C.2   1001  BCL1001     0.0000
     41  OBD      -70.6690  -33.3360   59.2500 O.2   1001  BCL1001     0.0000
     42  CBD      -72.7570  -32.4760   60.0820 C.3   1001  BCL1001     0.0000
     43  CGD      -72.3290  -31.0340   59.8210 C.2   1001  BCL1001     0.0000
     44  O1D      -72.4020  -30.4210   58.7920 O.2   1001  BCL1001     0.0000
     45  O2D      -71.8470  -30.5060   60.9340 O.3   1001  BCL1001     0.0000
     46  CED      -71.3900  -29.1430   60.9070 C.3   1001  BCL1001     0.0000
     47  C1       -80.5030  -33.9250   60.1280 C.3   1001  BCL1001     0.0000
     48  C2       -81.4510  -33.1190   61.0630 C.2   1001  BCL1001     0.0000
     49  C3       -82.7870  -33.2450   61.0580 C.2   1001  BCL1001     0.0000
     50  C4       -83.5220  -34.2250   60.1010 C.3   1001  BCL1001     0.0000
@<TRIPOS>BOND
     1    44    43    2
     2    15    14    2
     3    41    40    2
     4    43    42    1
     5    43    45    1
     6    14    13    1
     7    14    16    1
     8    42    40    1
     9    42     2    1
    10    12    13    1
    11    12     8    1
    12    50    49    1
    13    47    16    1
    14    47    48    1
    15    40    37    1
    16    46    45    1
    17    49    48    2
    18     8     7    1
    19     8     9    2
    20    37    38    1
    21    37    36    2
    22     2     7    2
    23     2    38    1
    24    39    36    1
    25     7     6    2
    26    38    34    2
    27    36    35    1
    28     9    11    1
    29     9    10    1
    30     6    10    2
    31    34    35    2
    32    35     5    2
    33    10     3    2
    34     5    30    1
    35     3    18    1
    36     1    26    1
    37     1    17    1
    38    30    26   ar
    39    30    29   ar
    40    18    17    2
    41    18    19    1
    42    26    27   ar
    43    17    21    1
    44    32    29    1
    45    32    33    1
    46    29    28   ar
    47    19    22    1
    48    19    20    2
    49    27     4    1
    50    27    28   ar
    51    21     4    2
    52    21    20    1
    53    20    23    1
    54    28    31    1
    55    23    24    2
    56    23    25    1
