@<TRIPOS>MOLECULE
1l9b_HEM_C_1.pdb
 43 50 0 0 0
SMALL
GASTEIGER

@<TRIPOS>ATOM
      1  CHA      -46.0940  -30.7170   67.1870 C.2   1009  HEM1009     0.0000
      2  CHB      -46.5080  -32.6500   71.6270 C.2   1009  HEM1009     0.0000
      3  CHC      -50.3850  -35.1600   70.2300 C.2   1009  HEM1009     0.0000
      4  CHD      -49.9520  -33.3300   65.7780 C.2   1009  HEM1009     0.0000
      5  C1A      -45.8660  -31.0220   68.5360 C.2   1009  HEM1009     0.0000
      6  C2A      -44.7950  -30.4600   69.3150 C.2   1009  HEM1009     0.0000
      7  C3A      -44.8890  -30.9800   70.5600 C.2   1009  HEM1009     0.0000
      8  C4A      -46.0560  -31.8970   70.5450 C.2   1009  HEM1009     0.0000
      9  CMA      -44.0100  -30.7270   71.7770 C.3   1009  HEM1009     0.0000
     10  CAA      -43.7200  -29.4550   68.8460 C.3   1009  HEM1009     0.0000
     11  CBA      -42.5990  -30.2860   68.2080 C.3   1009  HEM1009     0.0000
     12  CGA      -41.4020  -29.5600   67.6490 C.2   1009  HEM1009     0.0000
     13  O1A      -41.2850  -28.3010   67.6910 O.co2 1009  HEM1009     0.0000
     14  O2A      -40.5230  -30.3230   67.1220 O.co2 1009  HEM1009     0.0000
     15  C1B      -47.5670  -33.4880   71.6500 C.ar  1009  HEM1009     0.0000
     16  C2B      -48.0000  -34.2470   72.7810 C.ar  1009  HEM1009     0.0000
     17  C3B      -49.0820  -34.9530   72.4230 C.ar  1009  HEM1009     0.0000
     18  C4B      -49.3470  -34.6300   70.9960 C.ar  1009  HEM1009     0.0000
     19  CMB      -47.2880  -34.2060   74.1330 C.3   1009  HEM1009     0.0000
     20  CAB      -49.9460  -35.9510   73.2650 C.3   1009  HEM1009     0.0000
     21  CBB      -50.5900  -35.3220   74.5710 C.3   1009  HEM1009     0.0000
     22  C1C      -50.6080  -34.8740   68.8840 C.2   1009  HEM1009     0.0000
     23  C2C      -51.6680  -35.4790   68.1210 C.2   1009  HEM1009     0.0000
     24  C3C      -51.5600  -34.9880   66.8550 C.2   1009  HEM1009     0.0000
     25  C4C      -50.4270  -34.0660   66.8650 C.2   1009  HEM1009     0.0000
     26  CMC      -52.6630  -36.4800   68.6800 C.3   1009  HEM1009     0.0000
     27  CAC      -52.4020  -35.2970   65.5890 C.3   1009  HEM1009     0.0000
     28  CBC      -53.9060  -34.9420   65.6700 C.3   1009  HEM1009     0.0000
     29  C1D      -48.8920  -32.4720   65.7710 C.ar  1009  HEM1009     0.0000
     30  C2D      -48.3870  -31.6640   64.6310 C.ar  1009  HEM1009     0.0000
     31  C3D      -47.3330  -30.9250   65.0060 C.ar  1009  HEM1009     0.0000
     32  C4D      -47.1140  -31.2670   66.4310 C.ar  1009  HEM1009     0.0000
     33  CMD      -49.0850  -31.7370   63.2190 C.3   1009  HEM1009     0.0000
     34  CAD      -46.5760  -29.9700   64.1570 C.3   1009  HEM1009     0.0000
     35  CBD      -47.3320  -28.5960   64.3870 C.3   1009  HEM1009     0.0000
     36  CGD      -46.9000  -27.3110   63.6880 C.2   1009  HEM1009     0.0000
     37  O1D      -45.9380  -27.2250   62.8920 O.co2 1009  HEM1009     0.0000
     38  O2D      -47.6230  -26.3180   63.9900 O.co2 1009  HEM1009     0.0000
     39  NA       -46.6430  -31.9010   69.2740 N.2   1009  HEM1009     0.0000
     40  NB       -48.3980  -33.7250   70.5290 N.ar  1009  HEM1009     0.0000
     41  NC       -49.8670  -34.0350   68.1290 N.2   1009  HEM1009     0.0000
     42  ND       -48.0540  -32.1700   66.8510 N.ar  1009  HEM1009     0.0000
     43 FE        -48.2450  -32.9510   68.6850 Fe    1009  HEM1009     0.0000
@<TRIPOS>BOND
     1    37    36   ar
     2    33    30    1
     3    36    38   ar
     4    36    35    1
     5    34    35    1
     6    34    31    1
     7    30    31   ar
     8    30    29   ar
     9    31    32   ar
    10    27    28    1
    11    27    24    1
    12    29     4    2
    13    29    42   ar
    14     4    25    1
    15    32    42   ar
    16    32     1    2
    17    42    43    1
    18    24    25    1
    19    24    23    2
    20    25    41    2
    21    14    12   ar
    22     1     5    1
    23    12    13   ar
    24    12    11    1
    25    23    26    1
    26    23    22    1
    27    41    43    1
    28    41    22    1
    29    11    10    1
    30     5    39    2
    31     5     6    1
    32    43    39    1
    33    43    40    1
    34    10     6    1
    35    22     3    2
    36    39     8    1
    37     6     7    2
    38     3    18    1
    39    40    18   ar
    40    40    15   ar
    41     8     7    1
    42     8     2    2
    43     7     9    1
    44    18    17   ar
    45     2    15    1
    46    15    16   ar
    47    17    16   ar
    48    17    20    1
    49    16    19    1
    50    20    21    1
