@<TRIPOS>MOLECULE
1l9h_RET_A_1.pdb
 20 20 0 0 0
SMALL
GASTEIGER

@<TRIPOS>ATOM
      1  C1        55.2760   13.6290   18.1210 C.3   1296  RET1296     0.0183
      2  C2        55.0460   15.0260   17.5950 C.3   1296  RET1296     0.0044
      3  C3        55.3460   15.1680   16.0570 C.3   1296  RET1296     0.0047
      4  C4        56.3590   14.1010   15.4190 C.3   1296  RET1296     0.0217
      5  C5        57.1700   13.2680   16.4580 C.2   1296  RET1296    -0.0479
      6  C6        56.6760   13.0740   17.7680 C.2   1296  RET1296    -0.0307
      7  C7        57.5750   12.3560   18.7540 C.2   1296  RET1296    -0.0052
      8  C8        57.7000   10.9800   18.6850 C.2   1296  RET1296    -0.0046
      9  C9        58.3740    9.9990   19.5680 C.2   1296  RET1296    -0.0219
     10  C10       58.8760    8.8850   18.9900 C.2   1296  RET1296    -0.0043
     11  C11       59.5860    7.7980   19.7120 C.2   1296  RET1296    -0.0007
     12  C12       59.8420    6.5130   19.3080 C.2   1296  RET1296    -0.0046
     13  C13       59.5940    5.6500   18.1320 C.2   1296  RET1296    -0.0261
     14  C14       60.2360    4.4580   18.1730 C.2   1296  RET1296    -0.0300
     15  C15       60.0280    3.3350   17.1990 C.3   1296  RET1296     0.0304
     16  C16       54.9780   13.4610   19.5920 C.3   1296  RET1296     0.0043
     17  C17       54.1810   12.7510   17.4810 C.3   1296  RET1296     0.0043
     18  C18       58.5340   12.8290   15.9080 C.3   1296  RET1296     0.0260
     19  C19       58.4330   10.3420   21.0240 C.3   1296  RET1296     0.0310
     20  C20       58.6860    6.0910   17.0130 C.3   1296  RET1296     0.0307
@<TRIPOS>BOND
     1     4     3    1
     2     4     5    1
     3    18     5    1
     4     3     2    1
     5     5     6    2
     6    20    13    1
     7    15    14    1
     8    17     1    1
     9     2     1    1
    10     6     1    1
    11     6     7    1
    12     1    16    1
    13    13    14    2
    14    13    12    1
    15     8     7    2
    16     8     9    1
    17    10     9    2
    18    10    11    1
    19    12    11    2
    20     9    19    1
