@<TRIPOS>MOLECULE
1l9j_U10_M_1.pdb
 37 37 0 0 0
SMALL
GASTEIGER

@<TRIPOS>ATOM
      1  C1       136.7150   55.5660  -39.8530 C.2   1008  U101008     0.0198
      2  C2       138.0440   55.1840  -39.3490 C.2   1008  U101008     0.2282
      3  C3       139.1960   54.9630  -40.2700 C.2   1008  U101008     0.2140
      4  C4       138.9550   55.1340  -41.5980 C.2   1008  U101008     0.2140
      5  C5       137.6470   55.5170  -42.1350 C.2   1008  U101008     0.2285
      6  C6       136.4830   55.7410  -41.2220 C.2   1008  U101008     0.0235
      7  C1M      135.6170   55.7600  -38.8210 C.3   1008  U101008     0.0343
      8  C3M      141.5630   55.1820  -39.1240 C.3   1008  U101008     0.2528
      9  C4M      140.9570   56.0060  -42.7360 C.3   1008  U101008     0.2528
     10  C7       135.1580   56.1370  -41.9060 C.3   1008  U101008     0.0548
     11  C8       134.7270   57.5140  -41.7240 C.2   1008  U101008    -0.0298
     12  C9       134.5840   58.5600  -42.6440 C.2   1008  U101008    -0.0475
     13  C10      134.8750   58.4660  -44.1500 C.3   1008  U101008     0.0260
     14  C11      134.1060   59.9600  -42.2030 C.3   1008  U101008     0.0264
     15  C12      132.7290   60.3190  -42.7740 C.3   1008  U101008     0.0297
     16  C13      131.6440   59.4780  -42.2060 C.2   1008  U101008    -0.0342
     17  C14      130.7890   59.8460  -41.1390 C.2   1008  U101008    -0.0478
     18  C15      130.9330   61.2330  -40.4440 C.3   1008  U101008     0.0260
     19  C16      129.6780   59.0070  -40.5550 C.3   1008  U101008     0.0263
     20  C17      128.2440   59.2870  -40.9840 C.3   1008  U101008     0.0297
     21  C18      127.9240   58.6060  -42.2420 C.2   1008  U101008    -0.0342
     22  C19      127.2710   58.9990  -43.4090 C.2   1008  U101008    -0.0478
     23  C20      126.6750   60.4080  -43.6500 C.3   1008  U101008     0.0260
     24  C21      127.0360   58.1090  -44.6280 C.3   1008  U101008     0.0263
     25  C22      126.0950   56.9420  -44.4390 C.3   1008  U101008     0.0297
     26  C23      125.9560   56.1590  -45.6790 C.2   1008  U101008    -0.0342
     27  C24      125.7010   54.7790  -45.7990 C.2   1008  U101008    -0.0478
     28  C25      125.5340   53.9040  -44.5390 C.3   1008  U101008     0.0260
     29  C26      125.5670   54.0310  -47.1340 C.3   1008  U101008     0.0264
     30  C27      124.1520   54.0470  -47.7140 C.3   1008  U101008     0.0300
     31  C28      124.1480   54.1040  -49.1530 C.2   1008  U101008    -0.0304
     32  C29      123.7480   54.8790  -50.2280 C.2   1008  U101008    -0.0303
     33  C30      123.9670   54.5210  -51.7230 C.3   1008  U101008     0.0303
     34  O2       138.3030   55.0200  -38.1670 O.2   1008  U101008    -0.2836
     35  O3       140.4190   54.5920  -39.6080 O.2   1008  U101008    -0.4652
     36  O4       140.0500   54.9270  -42.5510 O.2   1008  U101008    -0.4652
     37  O5       137.4060   55.6780  -43.3300 O.2   1008  U101008    -0.2835
@<TRIPOS>BOND
     1    33    32    1
     2    32    31    2
     3    31    30    1
     4    30    29    1
     5    29    27    1
     6    27    26    2
     7    27    28    1
     8    26    25    1
     9    24    25    1
    10    24    22    1
    11    13    12    1
    12    23    22    1
    13    22    21    2
    14    37     5    2
    15    15    16    1
    16    15    14    1
    17     9    36    1
    18    12    14    1
    19    12    11    2
    20    36     4    1
    21    21    20    1
    22    16    17    2
    23     5     4    1
    24     5     6    1
    25    10    11    1
    26    10     6    1
    27     4     3    2
    28     6     1    2
    29    17    19    1
    30    17    18    1
    31    20    19    1
    32     3    35    1
    33     3     2    1
    34     1     2    1
    35     1     7    1
    36    35     8    1
    37     2    34    2
