@<TRIPOS>MOLECULE
1l9j_BCL_M_1.pdb
 50 56 0 0 0
SMALL
GASTEIGER

@<TRIPOS>ATOM
      1 MG        125.3830   70.9870  -17.4810 Mg    1001  BCL1001     0.0000
      2  CHA      124.9670   67.5800  -16.6520 C.2   1001  BCL1001     0.0000
      3  CHB      128.3390   70.8100  -15.9680 C.2   1001  BCL1001     0.0000
      4  CHC      125.9300   74.0130  -18.6170 C.2   1001  BCL1001     0.0000
      5  CHD      122.3960   70.7650  -19.3320 C.2   1001  BCL1001     0.0000
      6  NA       126.4320   69.4650  -16.4310 N.2   1001  BCL1001     0.0000
      7  C1A      126.1200   68.1120  -16.1780 C.2   1001  BCL1001     0.0000
      8  C2A      127.2430   67.3400  -15.5510 C.2   1001  BCL1001     0.0000
      9  C3A      128.2780   68.4700  -15.1600 C.2   1001  BCL1001     0.0000
     10  C4A      127.6380   69.6340  -15.8740 C.1   1001  BCL1001     0.0000
     11  CMA      128.2480   68.6200  -13.6430 C.3   1001  BCL1001     0.0000
     12  CAA      128.0360   66.3900  -16.5300 C.3   1001  BCL1001     0.0000
     13  CBA      128.5250   67.0150  -17.9100 C.3   1001  BCL1001     0.0000
     14  CGA      129.7520   66.2840  -18.4480 C.2   1001  BCL1001     0.0000
     15  O1A      129.6900   65.1980  -18.9870 O.2   1001  BCL1001     0.0000
     16  O2A      130.9330   66.9040  -18.2950 O.3   1001  BCL1001     0.0000
     17  NB       126.8730   72.2220  -17.3160 N.ar  1001  BCL1001     0.0000
     18  C1B      128.0240   71.9960  -16.6080 C.ar  1001  BCL1001     0.0000
     19  C2B      128.9230   73.1840  -16.6740 C.ar  1001  BCL1001     0.0000
     20  C3B      128.2670   74.0950  -17.4500 C.ar  1001  BCL1001     0.0000
     21  C4B      126.9270   73.4610  -17.8480 C.ar  1001  BCL1001     0.0000
     22  CMB      130.2940   73.2870  -16.0160 C.3   1001  BCL1001     0.0000
     23  CAB      128.7600   75.4590  -17.8410 C.2   1001  BCL1001     0.0000
     24  OBB      129.4020   76.0930  -17.0830 O.2   1001  BCL1001     0.0000
     25  CBB      128.5480   76.1850  -19.2020 C.3   1001  BCL1001     0.0000
     26  NC       124.3420   72.1490  -18.7090 N.2   1001  BCL1001     0.0000
     27  C1C      124.7070   73.4460  -18.9930 C.2   1001  BCL1001     0.0000
     28  C2C      123.7580   74.2160  -19.8180 C.2   1001  BCL1001     0.0000
     29  C3C      122.6750   73.1040  -20.0730 C.2   1001  BCL1001     0.0000
     30  C4C      123.1210   71.9240  -19.3360 C.2   1001  BCL1001     0.0000
     31  CMC      123.1370   75.3650  -19.0070 C.3   1001  BCL1001     0.0000
     32  CAC      122.6410   72.7750  -21.5500 C.3   1001  BCL1001     0.0000
     33  CBC      122.1480   74.1440  -22.1490 C.3   1001  BCL1001     0.0000
     34  ND       123.9200   69.4700  -17.9560 N.2   1001  BCL1001     0.0000
     35  C1D      122.7550   69.5560  -18.6760 C.1   1001  BCL1001     0.0000
     36  C2D      122.0810   68.3190  -18.6170 C.2   1001  BCL1001     0.0000
     37  C3D      122.9290   67.5260  -17.8290 C.2   1001  BCL1001     0.0000
     38  C4D      124.0320   68.2510  -17.4440 C.1   1001  BCL1001     0.0000
     39  CMD      120.7280   68.0320  -19.3010 C.3   1001  BCL1001     0.0000
     40  CAD      123.1100   66.2460  -17.2620 C.2   1001  BCL1001     0.0000
     41  OBD      122.4060   65.2860  -17.3330 O.2   1001  BCL1001     0.0000
     42  CBD      124.4290   66.1680  -16.4530 C.3   1001  BCL1001     0.0000
     43  CGD      123.9640   65.8740  -15.0260 C.2   1001  BCL1001     0.0000
     44  O1D      124.0680   64.8540  -14.4040 O.2   1001  BCL1001     0.0000
     45  O2D      123.3940   66.9420  -14.5150 O.3   1001  BCL1001     0.0000
     46  CED      122.8850   66.8720  -13.1720 C.3   1001  BCL1001     0.0000
     47  C1       132.1770   66.2350  -18.8020 C.3   1001  BCL1001     0.0000
     48  C2       133.3810   67.1510  -18.4790 C.2   1001  BCL1001     0.0000
     49  C3       134.3900   66.7830  -17.6760 C.2   1001  BCL1001     0.0000
     50  C4       134.4290   65.3840  -17.0000 C.3   1001  BCL1001     0.0000
@<TRIPOS>BOND
     1    33    32    1
     2    32    29    1
     3    29    28    2
     4    29    30    1
     5    28    31    1
     6    28    27    1
     7    30     5    1
     8    30    26    2
     9     5    35    2
    10    39    36    1
    11    25    23    1
    12    27    26    1
    13    27     4    2
    14    15    14    2
    15    47    48    1
    16    47    16    1
    17    26     1    1
    18    35    36    1
    19    35    34    2
    20    36    37    2
    21     4    21    1
    22    48    49    2
    23    14    16    1
    24    14    13    1
    25    34    38    2
    26    13    12    1
    27    21    20   ar
    28    21    17   ar
    29    23    20    1
    30    23    24    2
    31    37    38    1
    32    37    40    1
    33    49    50    1
    34     1    17    1
    35    20    19   ar
    36    38     2    2
    37    41    40    2
    38    17    18   ar
    39    40    42    1
    40    19    18   ar
    41    19    22    1
    42     2    42    1
    43     2     7    1
    44    18     3    1
    45    12     8    1
    46    42    43    1
    47     6     7    2
    48     6    10    2
    49     7     8    1
    50     3    10    2
    51    10     9    1
    52     8     9    2
    53     9    11    1
    54    43    45    1
    55    43    44    2
    56    45    46    1
