@<TRIPOS>MOLECULE
1l9j_HEM_C_1.pdb
 43 50 0 0 0
SMALL
GASTEIGER

@<TRIPOS>ATOM
      1  CHA       97.8040   73.4770  -14.6020 C.2   1009  HEM1009     0.0000
      2  CHB       98.1520   77.9060  -16.5460 C.2   1009  HEM1009     0.0000
      3  CHC      102.0350   76.5450  -19.0170 C.2   1009  HEM1009     0.0000
      4  CHD      101.6590   72.1240  -17.1560 C.2   1009  HEM1009     0.0000
      5  C1A       97.5490   74.8120  -14.9200 C.2   1009  HEM1009     0.0000
      6  C2A       96.4460   75.5610  -14.3740 C.2   1009  HEM1009     0.0000
      7  C3A       96.5210   76.8030  -14.9030 C.2   1009  HEM1009     0.0000
      8  C4A       97.7070   76.8080  -15.7990 C.2   1009  HEM1009     0.0000
      9  CMA       95.6130   78.0050  -14.6750 C.3   1009  HEM1009     0.0000
     10  CAA       95.3640   75.0700  -13.3740 C.3   1009  HEM1009     0.0000
     11  CBA       94.1820   74.5090  -14.1770 C.3   1009  HEM1009     0.0000
     12  CGA       92.9810   73.9700  -13.3980 C.2   1009  HEM1009     0.0000
     13  O1A       92.9320   73.9760  -12.1480 O.co2 1009  HEM1009     0.0000
     14  O2A       92.0210   73.5140  -14.1080 O.co2 1009  HEM1009     0.0000
     15  C1B       99.2180   77.9490  -17.3690 C.ar  1009  HEM1009     0.0000
     16  C2B       99.6590   79.0780  -18.1230 C.ar  1009  HEM1009     0.0000
     17  C3B      100.7400   78.7110  -18.8090 C.ar  1009  HEM1009     0.0000
     18  C4B      100.9990   77.2990  -18.4900 C.ar  1009  HEM1009     0.0000
     19  CMB       98.9630   80.4360  -18.1040 C.3   1009  HEM1009     0.0000
     20  CAB      101.6210   79.5240  -19.7870 C.3   1009  HEM1009     0.0000
     21  CBB      102.3080   80.7810  -19.1320 C.3   1009  HEM1009     0.0000
     22  C1C      102.2710   75.2080  -18.7290 C.2   1009  HEM1009     0.0000
     23  C2C      103.3390   74.4550  -19.3240 C.2   1009  HEM1009     0.0000
     24  C3C      103.2400   73.2000  -18.8150 C.2   1009  HEM1009     0.0000
     25  C4C      102.1120   73.2060  -17.9020 C.2   1009  HEM1009     0.0000
     26  CMC      104.3390   75.0130  -20.3300 C.3   1009  HEM1009     0.0000
     27  CAC      104.0860   71.9440  -19.0870 C.3   1009  HEM1009     0.0000
     28  CBC      105.5880   72.0680  -18.7360 C.3   1009  HEM1009     0.0000
     29  C1D      100.6090   72.1060  -16.3050 C.ar  1009  HEM1009     0.0000
     30  C2D      100.1290   70.9610  -15.4890 C.ar  1009  HEM1009     0.0000
     31  C3D       99.0740   71.3240  -14.7670 C.ar  1009  HEM1009     0.0000
     32  C4D       98.8340   72.7450  -15.1280 C.ar  1009  HEM1009     0.0000
     33  CMD      100.8490   69.5670  -15.5410 C.3   1009  HEM1009     0.0000
     34  CAD       98.3220   70.4810  -13.8110 C.3   1009  HEM1009     0.0000
     35  CBD       99.0890   70.6740  -12.4450 C.3   1009  HEM1009     0.0000
     36  CGD       98.6080   69.9710  -11.2030 C.2   1009  HEM1009     0.0000
     37  O1D       97.6050   69.2270  -11.1870 O.co2 1009  HEM1009     0.0000
     38  O2D       99.3170   70.2060  -10.1690 O.co2 1009  HEM1009     0.0000
     39  NA        98.3100   75.5580  -15.7880 N.2   1009  HEM1009     0.0000
     40  NB       100.0540   76.8370  -17.5940 N.ar  1009  HEM1009     0.0000
     41  NC       101.5370   74.4540  -17.8870 N.2   1009  HEM1009     0.0000
     42  ND        99.7520   73.1730  -16.0190 N.ar  1009  HEM1009     0.0000
     43 FE         99.9090   75.0010  -16.8090 Fe    1009  HEM1009     0.0000
@<TRIPOS>BOND
     1    26    23    1
     2    20    21    1
     3    20    17    1
     4    23    24    2
     5    23    22    1
     6    27    24    1
     7    27    28    1
     8     3    22    2
     9     3    18    1
    10    24    25    1
    11    17    18   ar
    12    17    16   ar
    13    22    41    1
    14    18    40   ar
    15    16    19    1
    16    16    15   ar
    17    25    41    2
    18    25     4    1
    19    41    43    1
    20    40    15   ar
    21    40    43    1
    22    15     2    1
    23     4    29    2
    24    43    42    1
    25    43    39    1
    26     2     8    2
    27    29    42   ar
    28    29    30   ar
    29    42    32   ar
    30     8    39    1
    31     8     7    1
    32    39     5    2
    33    33    30    1
    34    30    31   ar
    35    32    31   ar
    36    32     1    2
    37     5     1    1
    38     5     6    1
    39     7     9    1
    40     7     6    2
    41    31    34    1
    42     6    10    1
    43    11    12    1
    44    11    10    1
    45    14    12   ar
    46    34    35    1
    47    12    13   ar
    48    35    36    1
    49    36    37   ar
    50    36    38   ar
