@<TRIPOS>MOLECULE
1l9k_SAH_A_1.pdb
 26 28 0 0 0
SMALL
GASTEIGER

@<TRIPOS>ATOM
      1  N         10.0710  -45.7600   -0.7990 N.3   887  SAH887     -0.1245
      2  CA        11.3300  -46.2260   -1.3700 C.3   887  SAH887      0.1844
      3  CB        12.5380  -46.2240   -0.3970 C.3   887  SAH887      0.0388
      4  CG        12.4280  -45.3970    0.7720 C.3   887  SAH887      0.0594
      5  SD        13.9270  -45.4120    1.8350 S.3   887  SAH887     -0.1376
      6  C         11.1660  -47.6210   -2.0290 C.3   887  SAH887      0.4429
      7  O         10.0050  -48.0780   -2.0030 O.2   887  SAH887     -0.2654
      8  OXT       11.6860  -47.6520   -3.1690 O.2   887  SAH887     -0.2654
      9  C5'       14.1770  -43.6110    1.8930 C.3   887  SAH887      0.0899
     10  C4'       15.3930  -43.0620    1.1420 C.3   887  SAH887      0.1630
     11  O4'       15.4680  -41.6260    1.2890 O.3   887  SAH887     -0.3153
     12  C3'       16.7310  -43.5840    1.6600 C.3   887  SAH887      0.2168
     13  O3'       17.2160  -44.5310    0.6940 O.3   887  SAH887     -0.2175
     14  C2'       17.6780  -42.3770    1.7650 C.3   887  SAH887      0.2569
     15  O2'       18.9640  -42.5060    1.1730 O.3   887  SAH887     -0.2130
     16  C1'       16.8100  -41.2370    1.2160 C.3   887  SAH887      0.3185
     17  N9        16.9750  -39.9320    1.8890 N.pl3 887  SAH887     -0.1439
     18  C8        17.0640  -39.6400    3.2400 C.3   887  SAH887      0.3377
     19  N7        17.1990  -38.3640    3.4960 N.2   887  SAH887     -0.2095
     20  C5        17.2000  -37.7660    2.2370 C.2   887  SAH887      0.2526
     21  C6        17.3030  -36.4160    1.8060 C.2   887  SAH887      0.4393
     22  N6        17.4360  -35.4020    2.6420 N.pl3 887  SAH887      0.2180
     23  N1        17.2660  -36.1560    0.4530 N.2   887  SAH887      0.0021
     24  C2        17.1300  -37.1950   -0.3640 C.3   887  SAH887      0.5254
     25  N3        17.0220  -38.5160   -0.0710 N.2   887  SAH887     -0.0055
     26  C4        17.0550  -38.7340    1.2330 C.2   887  SAH887      0.3518
@<TRIPOS>BOND
     1     8     6    1
     2     6     7    1
     3     6     2    1
     4     2     1    1
     5     2     3    1
     6     3     4    1
     7    24    25    1
     8    24    23    1
     9    25    26    2
    10    23    21    2
    11    13    12    1
    12     4     5    1
    13    10    11    1
    14    10    12    1
    15    10     9    1
    16    15    14    1
    17    16    11    1
    18    16    14    1
    19    16    17    1
    20    26    17    1
    21    26    20    1
    22    12    14    1
    23    21    20    1
    24    21    22    1
    25     5     9    1
    26    17    18    1
    27    20    19    2
    28    18    19    1
