@<TRIPOS>MOLECULE
1l9w_DHS_A_1.pdb
 11 11 0 0 0
SMALL
GASTEIGER

@<TRIPOS>ATOM
      1  C1        35.3830   81.5290    2.5330 C.3   301  DHS301      0.1061
      2  C3        35.5070   79.7390    1.0230 C.3   301  DHS301      0.0361
      3  C4        34.8910   78.6680    2.0290 C.3   301  DHS301      0.1821
      4  C5        34.0540   79.4180    3.1280 C.3   301  DHS301      0.1827
      5  C6        34.9530   80.5080    3.6290 C.3   301  DHS301      0.0468
      6  C7        35.1510   83.0030    3.0000 C.2   301  DHS301      0.3644
      7  C2        34.7810   81.0730    1.4320 C.3   301  DHS301      0.0140
      8  O2        33.6380   78.0660    1.5660 O.3   301  DHS301     -0.2204
      9  O3        33.2570   78.4720    3.8940 O.3   301  DHS301     -0.2204
     10  O4        36.0910   83.6920    3.4730 O.co2 301  DHS301     -0.2457
     11  O5        34.1000   83.2000    3.6590 O.co2 301  DHS301     -0.2457
@<TRIPOS>BOND
     1     2     7    1
     2     2     3    1
     3     7     1    1
     4     8     3    1
     5     3     4    1
     6     1     6    1
     7     1     5    1
     8     6    10   ar
     9     6    11   ar
    10     4     5    1
    11     4     9    1
