@<TRIPOS>MOLECULE
1la2_NAD_A_1.pdb
 44 48 0 0 0
SMALL
GASTEIGER

@<TRIPOS>ATOM
      1  PA        10.7830   55.7090    7.7470 P.3   900  NAD900      0.2189
      2  O1A       11.1610   54.7060    6.7180 O.2   900  NAD900     -0.5170
      3  O2A       10.1900   54.9490    8.8740 O.3   900  NAD900     -0.4371
      4  O5B        9.6590   56.7140    7.2170 O.3   900  NAD900     -0.3112
      5  C5B        9.8970   57.6130    6.1110 C.3   900  NAD900      0.1813
      6  C4B        8.5060   57.8410    5.5390 C.3   900  NAD900      0.1821
      7  O4B        8.5940   58.7470    4.3880 O.3   900  NAD900     -0.3135
      8  C3B        7.7820   56.5890    4.9990 C.3   900  NAD900      0.2184
      9  O3B        6.4210   56.5270    5.5320 O.3   900  NAD900     -0.2174
     10  C2B        7.9180   56.7870    3.4920 C.3   900  NAD900      0.2570
     11  O2B        6.9300   56.0490    2.7500 O.3   900  NAD900     -0.2130
     12  C1B        7.8220   58.3130    3.3350 C.3   900  NAD900      0.3186
     13  N9A        8.4490   58.8620    2.1290 N.pl3 900  NAD900     -0.1439
     14  C8A        9.4300   58.2940    1.3320 C.3   900  NAD900      0.3377
     15  N7A        9.7930   59.0570    0.2980 N.2   900  NAD900     -0.2095
     16  C5A        9.0010   60.1830    0.4520 C.2   900  NAD900      0.2526
     17  C6A        8.8760   61.4030   -0.3190 C.2   900  NAD900      0.4393
     18  N6A        9.5880   61.6780   -1.4090 N.pl3 900  NAD900      0.2180
     19  N1A        7.9570   62.3710    0.1120 N.2   900  NAD900      0.0021
     20  C2A        7.1950   62.1130    1.2560 C.3   900  NAD900      0.5254
     21  N3A        7.2490   61.0060    2.0210 N.2   900  NAD900     -0.0055
     22  C4A        8.1610   60.0780    1.5740 C.2   900  NAD900      0.3518
     23  O3        12.0770   56.5300    8.2290 O.3   900  NAD900     -0.2703
     24  PN        11.9900   57.5410    9.4950 P.3   900  NAD900      0.2189
     25  O1N       10.9240   58.5610    9.4880 O.2   900  NAD900     -0.5170
     26  O2N       12.3950   56.9630   10.8100 O.3   900  NAD900     -0.4371
     27  O5D       13.3130   58.4910    9.1490 O.3   900  NAD900     -0.3112
     28  C5D       13.6950   58.9360    7.7690 C.3   900  NAD900      0.1813
     29  C4D       14.9610   59.8160    7.7440 C.3   900  NAD900      0.1799
     30  O4D       15.3270   60.2600    9.0820 O.3   900  NAD900     -0.3327
     31  C3D       16.2530   59.1760    7.1690 C.3   900  NAD900      0.2158
     32  O3D       16.9120   60.1220    6.2910 O.3   900  NAD900     -0.2175
     33  C2D       17.0860   58.8560    8.3870 C.3   900  NAD900      0.2309
     34  O2D       18.5020   58.7610    8.1100 O.3   900  NAD900     -0.2158
     35  C1D       16.7130   59.9630    9.3340 C.3   900  NAD900      0.2263
     36  N1N       16.9270   59.5900   10.7400 N.pl3 900  NAD900     -0.2787
     37  C2N       16.0120   58.7090   11.4360 C.3   900  NAD900      0.1244
     38  C3N       16.2270   58.3350   12.8490 C.2   900  NAD900      0.0544
     39  C7N       15.2110   57.4150   13.4670 C.2   900  NAD900      0.2818
     40  O7N       15.4540   57.1440   14.6570 O.2   900  NAD900     -0.2670
     41  N7N       14.1200   56.9080   12.8190 N.am  900  NAD900     -0.0839
     42  C4N       17.4360   58.8980   13.5570 C.2   900  NAD900      0.0033
     43  C5N       18.3550   59.8230   12.7480 C.2   900  NAD900      0.0157
     44  C6N       18.0780   60.1080   11.4620 C.2   900  NAD900      0.0633
@<TRIPOS>BOND
     1    18    17    1
     2    17    19    2
     3    17    16    1
     4    19    20    1
     5    15    16    2
     6    15    14    1
     7    16    22    1
     8    20    21    1
     9    14    13    1
    10    22    21    2
    11    22    13    1
    12    13    12    1
    13    11    10    1
    14    12    10    1
    15    12     7    1
    16    10     8    1
    17     7     6    1
    18     8     9    1
    19     8     6    1
    20     6     5    1
    21     5     4    1
    22    32    31    1
    23     2     1    2
    24    31    29    1
    25    31    33    1
    26     4     1    1
    27    29    28    1
    28    29    30    1
    29     1    23    1
    30     1     3    1
    31    28    27    1
    32    34    33    1
    33    23    24    1
    34    33    35    1
    35    30    35    1
    36    27    24    1
    37    35    36    1
    38    25    24    2
    39    24    26    1
    40    36    37    1
    41    36    44    1
    42    37    38    1
    43    44    43    2
    44    43    42    1
    45    41    39   am
    46    38    39    1
    47    38    42    2
    48    39    40    2
