@<TRIPOS>MOLECULE
1la6_HEM_A_1.pdb
 43 50 0 0 0
SMALL
GASTEIGER

@<TRIPOS>ATOM
      1 FE         10.0630   -9.8550   15.3790 Fe    143  HEM143      0.0000
      2  CHA       10.7160  -10.8750   18.5630 C.2   143  HEM143      0.0000
      3  CHB       11.5630  -12.6830   14.1450 C.2   143  HEM143      0.0000
      4  CHC        9.4420   -8.8540   12.1630 C.2   143  HEM143      0.0000
      5  CHD        8.8580   -6.8960   16.5350 C.2   143  HEM143      0.0000
      6  NA        10.9160  -11.4340   16.1710 N.ar  143  HEM143      0.0000
      7  C1A       11.1000  -11.7130   17.5160 C.ar  143  HEM143      0.0000
      8  C2A       11.8230  -12.9380   17.6390 C.ar  143  HEM143      0.0000
      9  C3A       12.0550  -13.4490   16.4550 C.ar  143  HEM143      0.0000
     10  C4A       11.4990  -12.5210   15.5220 C.ar  143  HEM143      0.0000
     11  CMA       12.8800  -14.6910   16.1680 C.3   143  HEM143      0.0000
     12  CAA       12.4420  -13.4870   18.8580 C.3   143  HEM143      0.0000
     13  CBA       11.3770  -14.2620   19.5840 C.3   143  HEM143      0.0000
     14  CGA       11.9310  -15.0500   20.7590 C.2   143  HEM143      0.0000
     15  O1A       11.2000  -15.9390   21.2590 O.co2 143  HEM143      0.0000
     16  O2A       13.0920  -14.7840   21.1740 O.co2 143  HEM143      0.0000
     17  NB        10.3760  -10.6110   13.5550 N.2   143  HEM143      0.0000
     18  C1B       11.0350  -11.7920   13.2350 C.2   143  HEM143      0.0000
     19  C2B       11.1400  -11.9720   11.8230 C.2   143  HEM143      0.0000
     20  C3B       10.5620  -10.9140   11.2000 C.2   143  HEM143      0.0000
     21  C4B       10.0420  -10.0770   12.3160 C.2   143  HEM143      0.0000
     22  CMB       11.8420  -13.1280   11.1230 C.3   143  HEM143      0.0000
     23  CAB       10.8240  -10.6770    9.8440 C.3   143  HEM143      0.0000
     24  CBB        9.9630  -10.0800    8.8400 C.3   143  HEM143      0.0000
     25  NC         9.2810   -8.2530   14.5200 N.ar  143  HEM143      0.0000
     26  C1C        9.1510   -7.9580   13.1570 C.ar  143  HEM143      0.0000
     27  C2C        8.6880   -6.5710   12.9320 C.ar  143  HEM143      0.0000
     28  C3C        8.4660   -6.0410   14.1830 C.ar  143  HEM143      0.0000
     29  C4C        8.8310   -7.0890   15.1490 C.ar  143  HEM143      0.0000
     30  CMC        8.5650   -5.8450   11.5980 C.3   143  HEM143      0.0000
     31  CAC        8.0580   -4.7500   14.5800 C.3   143  HEM143      0.0000
     32  CBC        8.1860   -3.4330   13.9130 C.3   143  HEM143      0.0000
     33  ND         9.7850   -9.0680   17.1640 N.2   143  HEM143      0.0000
     34  C1D        9.3160   -7.8000   17.4700 C.2   143  HEM143      0.0000
     35  C2D        9.3570   -7.5210   18.8740 C.2   143  HEM143      0.0000
     36  C3D        9.8610   -8.6530   19.4480 C.2   143  HEM143      0.0000
     37  C4D       10.1160   -9.6200   18.3920 C.2   143  HEM143      0.0000
     38  CMD        8.8970   -6.2290   19.5540 C.3   143  HEM143      0.0000
     39  CAD       10.2350   -8.8520   20.9010 C.3   143  HEM143      0.0000
     40  CBD       11.4630   -8.0090   21.2220 C.3   143  HEM143      0.0000
     41  CGD       11.9730   -8.2190   22.6380 C.2   143  HEM143      0.0000
     42  O1D       13.1300   -8.6620   22.7890 O.co2 143  HEM143      0.0000
     43  O2D       11.2250   -7.9400   23.5990 O.co2 143  HEM143      0.0000
@<TRIPOS>BOND
     1    24    23    1
     2    23    20    1
     3    22    19    1
     4    20    19    2
     5    20    21    1
     6    30    27    1
     7    19    18    1
     8     4    21    2
     9     4    26    1
    10    21    17    1
    11    27    26   ar
    12    27    28   ar
    13    26    25   ar
    14    18    17    2
    15    18     3    1
    16    17     1    1
    17    32    31    1
    18     3    10    2
    19    28    31    1
    20    28    29   ar
    21    25    29   ar
    22    25     1    1
    23    29     5    1
    24     1     6    1
    25     1    33    1
    26    10     6   ar
    27    10     9   ar
    28    11     9    1
    29     6     7   ar
    30     9     8   ar
    31     5    34    2
    32    33    34    1
    33    33    37    2
    34    34    35    1
    35     7     8   ar
    36     7     2    2
    37     8    12    1
    38    37     2    1
    39    37    36    1
    40    12    13    1
    41    35    36    2
    42    35    38    1
    43    36    39    1
    44    13    14    1
    45    14    16   ar
    46    14    15   ar
    47    39    40    1
    48    40    41    1
    49    41    42   ar
    50    41    43   ar
