@<TRIPOS>MOLECULE
1laf_ARG_E_1.pdb
 12 11 0 0 0
SMALL
GASTEIGER

@<TRIPOS>ATOM
      1  N         18.7560   58.1550   45.9180 N.3   240  ARG240     -0.1208
      2  CA        18.9000   57.4290   47.1380 C.3   240  ARG240      0.1944
      3  C         18.2750   58.3260   48.2220 C.2   240  ARG240      0.3819
      4  O         18.1210   57.8770   49.3480 O.co2 240  ARG240     -0.2441
      5  CB        20.3840   57.1610   47.3900 C.3   240  ARG240      0.0343
      6  CG        21.2940   58.3560   47.1410 C.3   240  ARG240      0.0490
      7  CD        22.6150   58.0920   47.7820 C.3   240  ARG240      0.2205
      8  NE        23.5380   59.1580   47.4680 N.pl3 240  ARG240     -0.0865
      9  CZ        24.7770   59.1570   47.9720 C.cat 240  ARG240      0.5346
     10  NH1       25.1580   58.2250   48.8030 N.pl3 240  ARG240      0.1354
     11  NH2       25.6620   60.1130   47.6930 N.pl3 240  ARG240      0.1354
     12  OXT       17.9170   59.4770   47.9200 O.co2 240  ARG240     -0.2441
@<TRIPOS>BOND
     1     1     2    1
     2     2     5    1
     3     2     3    1
     4     6     5    1
     5     6     7    1
     6     8     7    1
     7     8     9    2
     8    11     9    1
     9    12     3   ar
    10     9    10    1
    11     3     4   ar
