@<TRIPOS>MOLECULE
1lag_HIS_E_1.pdb
 11 11 0 0 0
SMALL
GASTEIGER

@<TRIPOS>ATOM
      1  N         31.5380   30.2340   68.1190 N.3   240  HIS240     -0.1204
      2  CA        31.5780   28.9070   67.6330 C.3   240  HIS240      0.1999
      3  C         31.2400   28.0640   68.8700 C.2   240  HIS240      0.3822
      4  O         31.0770   28.5930   69.9840 O.co2 240  HIS240     -0.2440
      5  CB        32.9630   28.5560   67.0580 C.3   240  HIS240      0.0740
      6  CG        34.2460   28.4870   67.8950 C.2   240  HIS240      0.0651
      7  ND1       35.3590   27.8660   67.5430 N.2   240  HIS240     -0.2310
      8  CD2       34.5110   29.0340   69.1130 C.3   240  HIS240      0.1683
      9  CE1       36.2640   28.0220   68.4640 C.2   240  HIS240      0.1939
     10  NE2       35.7400   28.7090   69.4140 N.2   240  HIS240     -0.2440
     11  OXT       31.1330   26.8670   68.6900 O.co2 240  HIS240     -0.2440
@<TRIPOS>BOND
     1     5     2    1
     2     5     6    1
     3     7     6    2
     4     7     9    1
     5     2     1    1
     6     2     3    1
     7     6     8    1
     8     9    10    2
     9    11     3   ar
    10     3     4   ar
    11     8    10    1
