@<TRIPOS>MOLECULE
1lax_GLC_A_1.pdb
 11 11 0 0 0
SMALL
GASTEIGER

@<TRIPOS>ATOM
      1  C1        -9.1540   44.6670   -0.7280 C.3   401  GLC401      0.1777
      2  C2        -7.7380   44.9310   -1.2940 C.3   401  GLC401      0.2141
      3  C3        -7.6280   46.3600   -1.8220 C.3   401  GLC401      0.2173
      4  C4        -8.7110   46.6390   -2.8480 C.3   401  GLC401      0.2142
      5  C5       -10.0580   46.2210   -2.2790 C.3   401  GLC401      0.1810
      6  C6       -11.1040   46.3460   -3.3890 C.3   401  GLC401      0.2141
      7  O2        -6.7630   44.7410   -0.2740 O.3   401  GLC401     -0.2176
      8  O3        -6.3980   46.6210   -2.4720 O.3   401  GLC401     -0.2175
      9  O4        -8.7520   48.0420   -3.1400 O.3   401  GLC401     -0.2176
     10  O5       -10.0650   44.8780   -1.8160 O.3   401  GLC401     -0.3481
     11  O6       -12.4300   46.3820   -2.8720 O.3   401  GLC401     -0.2176
@<TRIPOS>BOND
     1     6    11    1
     2     6     5    1
     3     9     4    1
     4     4     5    1
     5     4     3    1
     6     8     3    1
     7     5    10    1
     8     3     2    1
     9    10     1    1
    10     2     1    1
    11     2     7    1
