@<TRIPOS>MOLECULE
1lb2_CMP_A_1.pdb
 22 25 0 0 0
SMALL
GASTEIGER

@<TRIPOS>ATOM
      1  P          0.5160   89.2790   11.2110 P.3   679  CMP679      0.2141
      2  O1P        1.7480   89.8500   10.5570 O.2   679  CMP679     -0.5172
      3  O2P        0.6260   88.0010   11.9900 O.3   679  CMP679     -0.4373
      4  O5'       -0.0970   90.3750   12.2200 O.3   679  CMP679     -0.3114
      5  C5'       -0.9270   91.4330   11.7470 C.3   679  CMP679      0.1812
      6  C4'       -1.9420   90.8590   10.8220 C.3   679  CMP679      0.1793
      7  O4'       -2.7680   91.8780   10.2140 O.3   679  CMP679     -0.3136
      8  C3'       -1.2820   90.2460    9.6130 C.3   679  CMP679      0.1884
      9  O3'       -0.6160   89.0970   10.0730 O.3   679  CMP679     -0.3111
     10  C2'       -2.4850   90.0690    8.6970 C.3   679  CMP679      0.2541
     11  O2'       -3.3550   89.0220    9.1180 O.3   679  CMP679     -0.2131
     12  C1'       -3.1800   91.4220    8.9210 C.3   679  CMP679      0.3185
     13  N9        -2.7150   92.3880    7.9340 N.pl3 679  CMP679     -0.1439
     14  C8        -1.4980   93.0500    7.9160 C.3   679  CMP679      0.3377
     15  N7        -1.3280   93.8210    6.8580 N.2   679  CMP679     -0.2095
     16  C5        -2.5120   93.6670    6.1420 C.2   679  CMP679      0.2526
     17  C6        -2.9530   94.2150    4.9210 C.2   679  CMP679      0.4393
     18  N6        -2.1980   95.0330    4.1620 N.pl3 679  CMP679      0.2180
     19  N1        -4.2060   93.8800    4.4950 N.2   679  CMP679      0.0021
     20  C2        -4.9430   93.0330    5.2550 C.3   679  CMP679      0.5254
     21  N3        -4.6240   92.4390    6.4130 N.2   679  CMP679     -0.0055
     22  C4        -3.3860   92.8010    6.8040 C.2   679  CMP679      0.3518
@<TRIPOS>BOND
     1    18    17    1
     2    19    17    2
     3    19    20    1
     4    17    16    1
     5    20    21    1
     6    16    22    1
     7    16    15    2
     8    21    22    2
     9    22    13    1
    10    15    14    1
    11    14    13    1
    12    13    12    1
    13    10    12    1
    14    10    11    1
    15    10     8    1
    16    12     7    1
    17     8     9    1
    18     8     6    1
    19     9     1    1
    20     7     6    1
    21     2     1    2
    22     6     5    1
    23     1     3    1
    24     1     4    1
    25     5     4    1
