@<TRIPOS>MOLECULE
1lb8_AMQ_A_1.pdb
 13 13 0 0 0
SMALL
GASTEIGER

@<TRIPOS>ATOM
      1  N         19.8080   53.7660   19.3050 N.3   427  AMQ427     -0.1204
      2  CA        18.3060   53.6330   19.2850 C.3   427  AMQ427      0.1995
      3  C         17.7730   53.4900   17.8260 C.2   427  AMQ427      0.3822
      4  OT1       18.6190   53.3690   16.9110 O.co2 427  AMQ427     -0.2440
      5  OT2       16.5320   53.4620   17.6620 O.co2 427  AMQ427     -0.2440
      6  CB        17.6590   54.8500   19.9820 C.3   427  AMQ427      0.0718
      7  CG        17.9240   54.9340   21.4660 C.2   427  AMQ427      0.0985
      8  CD1       17.2080   54.2940   22.5190 C.1   427  AMQ427      0.1879
      9  CD2       18.9380   55.5100   22.1590 C.2   427  AMQ427      0.1611
     10  CE2       20.0890   56.3860   21.7800 C.3   427  AMQ427      0.0758
     11  OE1       16.0680   53.6980   22.1760 O.2   427  AMQ427     -0.2193
     12  NE1       17.6680   54.3940   23.7410 N.2   427  AMQ427     -0.0008
     13  OE2       18.8370   55.2150   23.5090 O.2   427  AMQ427     -0.3482
@<TRIPOS>BOND
     1     4     3   ar
     2     5     3   ar
     3     3     2    1
     4     2     1    1
     5     2     6    1
     6     6     7    1
     7     7     9    2
     8     7     8    1
     9    10     9    1
    10     9    13    1
    11    11     8    2
    12     8    12    2
    13    13    12    1
