@<TRIPOS>MOLECULE
1lb9_DNQ_A_1.pdb
 18 19 0 0 0
SMALL
GASTEIGER

@<TRIPOS>ATOM
      1  O1        -1.9520   48.0050    6.0120 O.2   368  DNQ368     -0.1961
      2  O2         0.0820   49.5470    5.0050 O.2   368  DNQ368     -0.1961
      3  C1        -1.3520   48.7690    6.7440 C.1   368  DNQ368      0.3027
      4  C2        -0.2410   49.6630    6.1680 C.1   368  DNQ368      0.3027
      5  N1        -1.7730   49.0650    8.0170 N.2   368  DNQ368     -0.3206
      6  N2         0.2250   50.6700    6.9780 N.2   368  DNQ368     -0.3206
      7  C3        -1.2660   50.1070    8.8070 C.ar  368  DNQ368      0.1772
      8  C4        -0.2360   50.9330    8.2720 C.ar  368  DNQ368      0.1772
      9  C5        -1.7200   50.3000   10.1320 C.ar  368  DNQ368      0.0615
     10  C6         0.3430   51.9540    9.0600 C.ar  368  DNQ368      0.0615
     11  C7        -1.1410   51.3160   10.9090 C.ar  368  DNQ368      0.1679
     12  C8        -0.1160   52.1390   10.3770 C.ar  368  DNQ368      0.1679
     13  N3        -1.6800   51.5420   12.2700 N.pl3 368  DNQ368      0.0594
     14  N4         0.5220   53.1880   11.2000 N.pl3 368  DNQ368      0.0594
     15  O3        -2.0430   52.6780   12.5330 O.2   368  DNQ368     -0.1260
     16  O4         0.8970   52.8530   12.3120 O.2   368  DNQ368     -0.1260
     17  O5        -2.0650   50.5530   12.8780 O.2   368  DNQ368     -0.1260
     18  O6         0.9440   54.1710   10.6110 O.2   368  DNQ368     -0.1260
@<TRIPOS>BOND
     1     2     4    2
     2     1     3    2
     3     4     3    1
     4     4     6    2
     5     3     5    2
     6     6     8    2
     7     5     7    2
     8     8     7   ar
     9     8    10   ar
    10     7     9   ar
    11    10    12   ar
    12     9    11   ar
    13    12    11   ar
    14    12    14    1
    15    18    14    2
    16    11    13    1
    17    14    16    2
    18    13    15    2
    19    13    17    2
