@<TRIPOS>MOLECULE
1lbb_KAI_A_1.pdb
 15 15 0 0 0
SMALL
GASTEIGER

@<TRIPOS>ATOM
      1  N          7.5670  -30.2220   14.7280 N.3   999  KAI999     -0.2080
      2  CD         8.6920  -29.6620   13.8910 C.3   999  KAI999      0.0933
      3  CD1       11.3840  -28.4470   13.5730 C.2   999  KAI999     -0.0091
      4  CD2       11.2070  -26.8600   15.4190 C.3   999  KAI999      0.0264
      5  CA         7.6870  -29.7690   16.0780 C.3   999  KAI999      0.1766
      6  CB         9.0980  -29.2680   16.3170 C.3   999  KAI999      0.0434
      7  CB1       10.2090  -30.3990   16.5790 C.3   999  KAI999      0.1164
      8  CG         9.3980  -28.6890   14.9500 C.3   999  KAI999      0.0382
      9  CG1       10.3600  -30.7570   18.0790 C.2   999  KAI999      0.3649
     10  CG2       10.7470  -27.9870   14.5840 C.2   999  KAI999     -0.0428
     11  C          6.5640  -28.7550   16.4560 C.2   999  KAI999      0.3803
     12  O          5.7100  -28.5410   15.5680 O.co2 999  KAI999     -0.2441
     13  OD1       11.2440  -31.6010   18.3410 O.co2 999  KAI999     -0.2457
     14  OD2        9.6190  -30.1980   18.9170 O.co2 999  KAI999     -0.2457
     15  OXT        6.6250  -28.2650   17.6060 O.co2 999  KAI999     -0.2441
@<TRIPOS>BOND
     1     3    10    2
     2     2     1    1
     3     2     8    1
     4    10     8    1
     5    10     4    1
     6     1     5    1
     7     8     6    1
     8    12    11   ar
     9     5     6    1
    10     5    11    1
    11     6     7    1
    12    11    15   ar
    13     7     9    1
    14     9    13   ar
    15     9    14   ar
