@<TRIPOS>MOLECULE
1lbc_GLU_A_1.pdb
 10 9 0 0 0
SMALL
GASTEIGER

@<TRIPOS>ATOM
      1  N         75.6520   26.7370   43.1230 N.3   326  GLU326     -0.1208
      2  CA        76.6480   25.6570   43.3860 C.3   326  GLU326      0.1949
      3  C         76.7570   25.3570   44.8770 C.2   326  GLU326      0.3819
      4  O         77.5980   24.5140   45.2480 O.co2 326  GLU326     -0.2441
      5  CB        78.0180   26.0600   42.8250 C.3   326  GLU326      0.0424
      6  CG        78.1190   25.9530   41.3060 C.3   326  GLU326      0.1161
      7  CD        78.2480   24.5150   40.8210 C.2   326  GLU326      0.3649
      8  OE1       78.1670   24.2890   39.5940 O.co2 326  GLU326     -0.2457
      9  OE2       78.4460   23.6120   41.6590 O.co2 326  GLU326     -0.2457
     10  OXT       75.9880   25.9620   45.6580 O.co2 326  GLU326     -0.2441
@<TRIPOS>BOND
     1     8     7   ar
     2     7     6    1
     3     7     9   ar
     4     6     5    1
     5     5     2    1
     6     1     2    1
     7     2     3    1
     8     3     4   ar
     9     3    10   ar
