@<TRIPOS>MOLECULE
1lbc_CYZ_A_1.pdb
 24 27 0 0 0
SMALL
GASTEIGER

@<TRIPOS>ATOM
      1  C1        59.2160   30.7060   45.2120 C.3   330  CYZ330      0.0409
      2  C2        59.0220   29.3480   45.9840 C.3   330  CYZ330      0.0033
      3  C3        58.0520   28.4700   45.1400 C.3   330  CYZ330      0.0001
      4  C4        56.8360   29.0510   45.3290 C.3   330  CYZ330      0.0000
      5  C5        57.1460   30.2230   46.2660 C.3   330  CYZ330      0.0001
      6  C6        57.8220   31.3440   45.3940 C.3   330  CYZ330      0.0034
      7  C7        58.2390   29.7170   47.2350 C.3   330  CYZ330      0.0001
      8  C8        59.7120   30.5440   43.8580 C.3   330  CYZ330      0.1988
      9  N1        60.9010   29.9520   43.6090 N.3   330  CYZ330     -0.0544
     10  S1        61.5460   29.3090   42.1930 S.O2  330  CYZ330      0.0797
     11  C9        61.5390   30.8910   41.4180 C.2   330  CYZ330      0.1384
     12  C10       60.6270   31.9680   42.0330 C.2   330  CYZ330      0.0792
     13  N2        59.8600   31.7150   43.1300 N.2   330  CYZ330     -0.2554
     14  C11       62.4240   31.1180   40.1930 C.2   330  CYZ330      0.0417
     15  C12       62.4030   32.5000   39.5330 C.2   330  CYZ330      0.1333
     16  C13       61.4950   33.6010   40.1290 C.2   330  CYZ330      0.0601
     17  C14       60.6100   33.3560   41.3680 C.3   330  CYZ330      0.0860
     18 CL         61.4260   35.1630   39.4320 Cl    330  CYZ330     -0.0851
     19  S2        63.4600   32.7190   38.1080 S.O2  330  CYZ330      0.0941
     20  O1        60.5710   28.4380   41.4960 O.2   330  CYZ330     -0.1515
     21  O2        62.8900   28.7080   42.2540 O.2   330  CYZ330     -0.1515
     22  O3        64.5060   31.6850   38.2190 O.2   330  CYZ330     -0.1503
     23  O4        64.0510   34.0670   38.1970 O.2   330  CYZ330     -0.1503
     24  N3        62.3420   32.2460   36.9240 N.3   330  CYZ330      0.0392
@<TRIPOS>BOND
     1    24    19    1
     2    19    23    2
     3    19    22    2
     4    19    15    1
     5    18    16    1
     6    15    16    2
     7    15    14    1
     8    16    17    1
     9    14    11    2
    10    17    12    1
    11    11    12    1
    12    11    10    1
    13    20    10    2
    14    12    13    2
    15    10    21    2
    16    10     9    1
    17    13     8    1
    18     9     8    1
    19     8     1    1
    20     3     4    1
    21     3     2    1
    22     1     6    1
    23     1     2    1
    24     4     5    1
    25     6     5    1
    26     2     7    1
    27     5     7    1
