@<TRIPOS>MOLECULE
1lbf_137_A_1.pdb
 23 23 0 0 0
SMALL
GASTEIGER

@<TRIPOS>ATOM
      1  P         -6.3130  -23.0150   28.0760 P.3   300  137300      0.5327
      2  O1P       -5.0920  -22.9280   27.2610 O.2   300  137300     -0.2224
      3  O2P       -7.5040  -22.4980   27.3370 O.3   300  137300     -0.1145
      4  O3P       -6.4450  -24.3750   28.5520 O.3   300  137300     -0.1145
      5  O5'       -6.1980  -22.2390   29.3450 O.3   300  137300     -0.2674
      6  C5'       -5.1760  -21.9580   30.0560 C.3   300  137300      0.1892
      7  C4'       -5.4090  -21.2230   31.3900 C.3   300  137300      0.2147
      8  O4'       -5.4830  -19.8010   31.1350 O.3   300  137300     -0.2176
      9  C3'       -6.7310  -21.6960   32.0510 C.3   300  137300      0.2165
     10  O3'       -6.4440  -22.9900   32.5680 O.3   300  137300     -0.2175
     11  C2'       -7.1600  -20.8460   33.2850 C.3   300  137300      0.2062
     12  O2'       -6.1590  -20.4380   34.1710 O.3   300  137300     -0.2184
     13  C1'       -8.3100  -21.3940   34.0870 C.3   300  137300      0.1477
     14  NH        -9.2920  -21.9510   33.1990 N.pl3 300  137300     -0.2346
     15  C1       -11.5690  -22.8590   32.9600 C.ar  300  137300      0.0946
     16  C2       -10.6200  -22.0160   33.6290 C.ar  300  137300      0.0717
     17  C3       -11.0030  -21.1760   34.7100 C.ar  300  137300      0.0163
     18  C4       -12.3340  -21.1740   35.1210 C.ar  300  137300      0.0013
     19  C5       -13.2870  -21.9950   34.4610 C.ar  300  137300      0.0003
     20  C6       -12.9070  -22.8240   33.4000 C.ar  300  137300      0.0079
     21  C7       -11.2310  -23.8430   31.9140 C.2   300  137300      0.3890
     22  O71      -10.1010  -23.9610   31.4600 O.co2 300  137300     -0.2405
     23  O72      -12.1160  -24.5870   31.4970 O.co2 300  137300     -0.2405
@<TRIPOS>BOND
     1     2     1    2
     2     3     1    1
     3     1     4    1
     4     1     5    1
     5     5     6    1
     6     6     7    1
     7     8     7    1
     8     7     9    1
     9    22    21   ar
    10    23    21   ar
    11    21    15    1
    12     9    10    1
    13     9    11    1
    14    15    20   ar
    15    15    16   ar
    16    14    16    1
    17    14    13    1
    18    11    13    1
    19    11    12    1
    20    20    19   ar
    21    16    17   ar
    22    19    18   ar
    23    17    18   ar
