@<TRIPOS>MOLECULE
1lbh_IPT_A_1.pdb
 15 15 0 0 0
SMALL
GASTEIGER

@<TRIPOS>ATOM
      1  C1        35.0860    6.6980  -10.4410 C.3   400  IPT400      0.1955
      2  C2        33.6210    6.2960  -10.1010 C.3   400  IPT400      0.2219
      3  O2        32.7440    7.3290   -9.5890 O.3   400  IPT400     -0.2167
      4  C3        33.7840    5.3730   -9.0070 C.3   400  IPT400      0.2181
      5  O3        32.4810    4.9410   -9.1040 O.3   400  IPT400     -0.2175
      6  C4        34.9310    4.2880   -9.1600 C.3   400  IPT400      0.2143
      7  O4        34.8390    3.8290  -10.4680 O.3   400  IPT400     -0.2176
      8  C5        36.2490    4.8120   -9.1060 C.3   400  IPT400      0.1820
      9  O5        36.1930    5.6540  -10.2860 O.3   400  IPT400     -0.3398
     10  C6        37.2690    3.6740   -9.1910 C.3   400  IPT400      0.2142
     11  O6        36.9710    2.5780   -9.9760 O.3   400  IPT400     -0.2176
     12  S1        35.0130    7.5760  -11.5960 S.3   400  IPT400     -0.1102
     13  C1'       35.6080    7.1470  -12.8630 C.3   400  IPT400      0.0500
     14  C2'       35.4640    5.6230  -13.3750 C.3   400  IPT400      0.0117
     15  C3'       37.1380    7.5760  -13.1490 C.3   400  IPT400      0.0117
@<TRIPOS>BOND
     1    14    13    1
     2    15    13    1
     3    13    12    1
     4    12     1    1
     5     7     6    1
     6     1     9    1
     7     1     2    1
     8     9     8    1
     9     2     3    1
    10     2     4    1
    11    11    10    1
    12    10     8    1
    13     6     8    1
    14     6     4    1
    15     5     4    1
