@<TRIPOS>MOLECULE
1lbk_GSH_A_1.pdb
 20 19 0 0 0
SMALL
GASTEIGER

@<TRIPOS>ATOM
      1  N1        -6.8490   38.2910    0.3870 N.3   504  GSH504     -0.1208
      2  CA1       -8.0430   38.3050    1.2700 C.3   504  GSH504      0.1948
      3  C1        -7.7990   39.2480    2.4540 C.2   504  GSH504      0.3819
      4  O11       -8.7810   39.8270    2.9640 O.co2 504  GSH504     -0.2441
      5  O12       -6.6310   39.3990    2.8670 O.co2 504  GSH504     -0.2441
      6  CB1       -8.3310   36.8890    1.7670 C.3   504  GSH504      0.0402
      7  CG1       -9.7570   36.7070    2.2960 C.3   504  GSH504      0.0889
      8  CD1      -10.0690   35.2950    2.7750 C.2   504  GSH504      0.2418
      9  OE1       -9.2230   34.3810    2.7290 O.2   504  GSH504     -0.2733
     10  N2       -11.3110   35.1220    3.2290 N.am  504  GSH504     -0.1968
     11  CA2      -11.8180   33.8410    3.7180 C.3   504  GSH504      0.1843
     12  C2       -13.2670   33.6670    3.2600 C.2   504  GSH504      0.2627
     13  O2       -13.9830   34.6570    3.0530 O.2   504  GSH504     -0.2714
     14  CB2      -11.7670   33.7810    5.2550 C.3   504  GSH504      0.0997
     15  SG2      -11.8080   32.0640    5.8940 S.3   504  GSH504     -0.0797
     16  N3       -13.6770   32.4040    3.1070 N.am  504  GSH504     -0.1917
     17  CA3      -15.0330   32.0860    2.6770 C.3   504  GSH504      0.2285
     18  C3       -15.1820   31.6890    1.2290 C.2   504  GSH504      0.3865
     19  O31      -16.2710   31.1930    0.8650 O.co2 504  GSH504     -0.2437
     20  O32      -14.2140   31.8740    0.4580 O.co2 504  GSH504     -0.2437
@<TRIPOS>BOND
     1     1     2    1
     2    20    18   ar
     3    19    18   ar
     4    18    17    1
     5     2     6    1
     6     2     3    1
     7     6     7    1
     8     7     8    1
     9     3     5   ar
    10     3     4   ar
    11    17    16    1
    12     9     8    2
    13     8    10   am
    14    13    12    2
    15    16    12   am
    16    10    11    1
    17    12    11    1
    18    11    14    1
    19    14    15    1
