@<TRIPOS>MOLECULE
1lbl_137_A_1.pdb
 23 23 0 0 0
SMALL
GASTEIGER

@<TRIPOS>ATOM
      1  P         -6.4270  -23.1310   28.3300 P.3   300  137300      0.5327
      2  O1P       -5.1270  -23.0730   27.6770 O.3   300  137300     -0.1145
      3  O2P       -7.5380  -22.6780   27.5300 O.2   300  137300     -0.2224
      4  O3P       -6.5250  -24.4860   28.7650 O.3   300  137300     -0.1145
      5  O5'       -6.3860  -22.1930   29.4510 O.3   300  137300     -0.2674
      6  C5'       -5.1320  -22.0430   30.1820 C.3   300  137300      0.1896
      7  C4'       -5.2260  -21.2370   31.5070 C.3   300  137300      0.2197
      8  O4'       -5.1610  -19.8030   31.2320 O.3   300  137300     -0.2172
      9  C3'       -6.4520  -21.6790   32.3950 C.3   300  137300      0.2471
     10  O3'       -6.1290  -22.7530   33.3150 O.3   300  137300     -0.2118
     11  C2'       -7.0390  -20.5030   33.2060 C.2   300  137300      0.2248
     12  O2'       -6.3500  -19.5240   33.5730 O.2   300  137300     -0.2869
     13  C1'       -8.4840  -20.6000   33.5160 C.2   300  137300      0.1389
     14  NH        -9.0030  -21.8270   33.6940 N.2   300  137300     -0.2405
     15  C1       -10.9840  -23.1680   33.0420 C.ar  300  137300      0.0973
     16  C2       -10.4380  -22.1190   33.8440 C.ar  300  137300      0.0878
     17  C3       -11.2740  -21.3710   34.6710 C.ar  300  137300      0.0193
     18  C4       -12.6500  -21.6740   34.6710 C.ar  300  137300      0.0015
     19  C5       -13.1890  -22.6950   33.8710 C.ar  300  137300      0.0003
     20  C6       -12.3760  -23.4590   33.0420 C.ar  300  137300      0.0081
     21  C7       -10.0560  -23.9890   32.2360 C.2   300  137300      0.3892
     22  O71       -8.8140  -23.8260   32.2970 O.co2 300  137300     -0.2405
     23  O72      -10.5950  -24.8480   31.5390 O.co2 300  137300     -0.2405
@<TRIPOS>BOND
     1     3     1    2
     2     2     1    1
     3     1     4    1
     4     1     5    1
     5     5     6    1
     6     6     7    1
     7     8     7    1
     8     7     9    1
     9    23    21   ar
    10    21    22   ar
    11    21    15    1
    12     9    11    1
    13     9    10    1
    14    15    20   ar
    15    15    16   ar
    16    20    19   ar
    17    11    13    1
    18    11    12    2
    19    13    14    2
    20    14    16    1
    21    16    17   ar
    22    19    18   ar
    23    17    18   ar
