@<TRIPOS>MOLECULE
1lbm_137_A_1.pdb
 23 23 0 0 0
SMALL
GASTEIGER

@<TRIPOS>ATOM
      1  P         11.7260   26.1070   63.9220 P.3   400  137400      0.5327
      2  O1P       11.0190   25.1140   64.7810 O.3   400  137400     -0.1145
      3  O2P       12.8710   26.8370   64.5720 O.3   400  137400     -0.1145
      4  O3P       12.1600   25.5610   62.5890 O.2   400  137400     -0.2224
      5  O5'       10.4750   27.0600   63.6440 O.3   400  137400     -0.2674
      6  C5'       10.7310   28.4270   63.6180 C.3   400  137400      0.1892
      7  C4'        9.4690   29.2340   63.3300 C.3   400  137400      0.2147
      8  O4'        9.1200   29.8220   64.5590 O.3   400  137400     -0.2176
      9  C3'        9.9610   30.1800   62.2590 C.3   400  137400      0.2165
     10  O3'       10.2420   29.2090   61.2680 O.3   400  137400     -0.2175
     11  C2'        9.1870   31.2770   61.5430 C.3   400  137400      0.2062
     12  O2'        8.0050   31.6650   62.2140 O.3   400  137400     -0.2184
     13  C1'       10.1810   32.4260   61.3470 C.3   400  137400      0.1477
     14  NH        11.3900   32.4140   61.9240 N.pl3 400  137400     -0.2346
     15  C1        13.2110   33.7070   63.1460 C.ar  400  137400      0.0946
     16  C2        11.8100   33.4660   62.6910 C.ar  400  137400      0.0717
     17  C3        10.8920   34.4050   63.0960 C.ar  400  137400      0.0163
     18  C4        11.2890   35.4920   63.8740 C.ar  400  137400      0.0013
     19  C5        12.6030   35.6850   64.2850 C.ar  400  137400      0.0003
     20  C6        13.5750   34.7890   63.9210 C.ar  400  137400      0.0079
     21  C7        14.3020   32.7980   62.8040 C.2   400  137400      0.3890
     22  O71       15.4310   33.0460   63.2060 O.co2 400  137400     -0.2405
     23  O72       14.0360   31.8140   62.1360 O.co2 400  137400     -0.2405
@<TRIPOS>BOND
     1    10     9    1
     2    13    11    1
     3    13    14    1
     4    11    12    1
     5    11     9    1
     6    14    16    1
     7    23    21   ar
     8     9     7    1
     9     4     1    2
    10    16    17   ar
    11    16    15   ar
    12    21    15    1
    13    21    22   ar
    14    17    18   ar
    15    15    20   ar
    16     7     6    1
    17     7     8    1
    18     6     5    1
    19     5     1    1
    20    18    19   ar
    21    20    19   ar
    22     1     3    1
    23     1     2    1
