@<TRIPOS>MOLECULE
1lbs_HEE_A_1.pdb
 11 10 0 0 0
SMALL
GASTEIGER

@<TRIPOS>ATOM
      1  C1        55.5320    1.5520   34.5230 C.3   900  HEE900      0.0809
      2  C2        54.3550    2.4590   34.3900 C.3   900  HEE900      0.0095
      3  C3        53.9830    2.6000   32.9380 C.3   900  HEE900      0.0005
      4  C4        53.1750    3.8540   32.6520 C.3   900  HEE900      0.0000
      5  C5        53.2990    4.2600   31.1980 C.3   900  HEE900      0.0000
      6  C6        52.8810    5.6820   31.0160 C.3   900  HEE900      0.0000
      7  P         56.5550    1.7700   35.8480 P.3   900  HEE900      0.2200
      8  O1P       55.7280    1.8770   37.1150 O.3   900  HEE900     -0.1774
      9  O2P       57.4490    3.0040   35.7100 O.3   900  HEE900     -0.3173
     10  C1'       58.6970    3.3520   36.2900 C.3   900  HEE900      0.1487
     11  C2'       58.9270    4.8380   36.1340 C.3   900  HEE900      0.0351
@<TRIPOS>BOND
     1     6     5    1
     2     5     4    1
     3     4     3    1
     4     3     2    1
     5     2     1    1
     6     1     7    1
     7     9     7    1
     8     9    10    1
     9     7     8    1
    10    11    10    1
