@<TRIPOS>MOLECULE
1lbt_T80_A_1.pdb
 36 35 0 0 0
SMALL
GASTEIGER

@<TRIPOS>ATOM
      1  C1       -11.0760   34.9410   30.5810 C.3   900  T80900      0.1742
      2  O2       -11.2590   34.7310   31.8790 O.3   900  T80900     -0.3484
      3  C3       -10.1440   34.9710   32.6110 C.3   900  T80900      0.1742
      4  C4        -9.2260   33.6790   32.6830 C.3   900  T80900      0.1742
      5  O5        -7.9310   34.0100   32.4560 O.3   900  T80900     -0.3484
      6  C6        -7.1290   32.9420   32.4000 C.3   900  T80900      0.1742
      7  C7        -6.4660   32.8610   31.0000 C.3   900  T80900      0.1742
      8  O8        -5.3530   32.1530   31.0730 O.3   900  T80900     -0.3484
      9  C9        -5.2630   31.2600   30.1100 C.3   900  T80900      0.1742
     10  C10       -4.2800   31.7660   29.0390 C.3   900  T80900      0.1742
     11  O11       -3.5160   30.7780   28.6150 O.3   900  T80900     -0.3484
     12  C12       -4.0430   30.1440   27.5820 C.3   900  T80900      0.1742
     13  C13       -3.0920   30.2200   26.3890 C.3   900  T80900      0.1743
     14  O14       -3.3870   29.2700   25.5360 O.3   900  T80900     -0.3471
     15  C15       -2.3940   29.0500   24.7050 C.3   900  T80900      0.1895
     16  C16       -2.9360   28.5010   23.3790 C.3   900  T80900      0.2403
     17  O17       -2.9600   27.2560   23.2020 O.3   900  T80900     -0.4457
     18  C18       -4.1510   26.8120   23.0860 C.2   900  T80900      0.3170
     19  O19       -4.4950   26.5490   21.8340 O.2   900  T80900     -0.2501
     20  C20       -5.0160   26.6020   24.3770 C.3   900  T80900      0.1096
     21  C21       -5.8110   25.2600   24.3230 C.3   900  T80900      0.0116
     22  C22       -6.8620   25.1760   25.4900 C.3   900  T80900      0.0006
     23  C23       -7.8720   26.3200   25.4210 C.3   900  T80900      0.0000
     24  C24       -7.5680   27.3490   26.4960 C.3   900  T80900      0.0000
     25  C25       -7.9880   26.8220   27.8530 C.3   900  T80900      0.0000
     26  C26       -7.7000   27.8620   28.9260 C.3   900  T80900      0.0000
     27  C27       -7.3440   27.1900   30.2440 C.3   900  T80900      0.0000
     28  C28       -6.5360   28.1650   31.1060 C.3   900  T80900      0.0000
     29  C29       -6.7610   27.8880   32.6010 C.3   900  T80900      0.0000
     30  C30       -5.7280   26.8580   33.1110 C.3   900  T80900      0.0000
     31  C31       -5.1860   27.2780   34.5020 C.3   900  T80900      0.0000
     32  C32       -3.7510   27.8480   34.3840 C.3   900  T80900      0.0000
     33  C33       -3.7930   29.3660   34.1280 C.3   900  T80900      0.0000
     34  C34       -2.5070   29.8170   33.4180 C.3   900  T80900      0.0000
     35  C35       -2.7400   31.1470   32.6620 C.3   900  T80900      0.0000
     36  C36       -1.5300   32.1000   32.8460 C.3   900  T80900      0.0000
@<TRIPOS>BOND
     1    19    18    2
     2    18    17    1
     3    18    20    1
     4    17    16    1
     5    16    15    1
     6    21    20    1
     7    21    22    1
     8    15    14    1
     9    23    22    1
    10    23    24    1
    11    14    13    1
    12    13    12    1
    13    24    25    1
    14    12    11    1
    15    25    26    1
    16    11    10    1
    17    26    27    1
    18    10     9    1
    19     9     8    1
    20    27    28    1
    21     1     2    1
    22     7     8    1
    23     7     6    1
    24    28    29    1
    25     2     3    1
    26     6     5    1
    27     5     4    1
    28    29    30    1
    29     3     4    1
    30    35    36    1
    31    35    34    1
    32    30    31    1
    33    34    33    1
    34    33    32    1
    35    32    31    1
