@<TRIPOS>MOLECULE
1lbx_IPD_A_1.pdb
 16 16 0 0 0
SMALL
GASTEIGER

@<TRIPOS>ATOM
      1  C1        -5.5090    9.1390   27.3480 C.3   295  IPD295      0.1919
      2  C2        -4.3850    8.0880   26.9920 C.3   295  IPD295      0.2148
      3  C3        -2.9800    8.7040   27.2590 C.3   295  IPD295      0.2174
      4  C4        -2.8240    9.2390   28.6770 C.3   295  IPD295      0.2175
      5  C5        -3.9300   10.2570   29.0280 C.3   295  IPD295      0.2174
      6  C6        -5.3310    9.6450   28.8270 C.3   295  IPD295      0.2148
      7  P1        -7.9480    9.1110   26.1890 P.3   295  IPD295      0.5327
      8  O1        -6.8520    8.4950   27.1700 O.3   295  IPD295     -0.2673
      9  O2        -4.5310    6.8170   27.6730 O.3   295  IPD295     -0.2176
     10  O3        -1.9880    7.7050   27.0420 O.3   295  IPD295     -0.2175
     11  O4        -1.5400    9.8640   28.7860 O.3   295  IPD295     -0.2175
     12  O5        -3.7890   10.6970   30.3830 O.3   295  IPD295     -0.2175
     13  O6        -6.3270   10.6480   29.1580 O.3   295  IPD295     -0.2176
     14  O7        -9.2270    8.3550   26.2670 O.3   295  IPD295     -0.1145
     15  O8        -8.1390   10.6010   26.5270 O.3   295  IPD295     -0.1145
     16  O9        -7.3660    9.0710   24.8020 O.2   295  IPD295     -0.2224
@<TRIPOS>BOND
     1    16     7    2
     2     7    14    1
     3     7    15    1
     4     7     8    1
     5     2     3    1
     6     2     1    1
     7     2     9    1
     8    10     3    1
     9     8     1    1
    10     3     4    1
    11     1     6    1
    12     4    11    1
    13     4     5    1
    14     6     5    1
    15     6    13    1
    16     5    12    1
