@<TRIPOS>MOLECULE
1lby_F6P_A_1.pdb
 16 16 0 0 0
SMALL
GASTEIGER

@<TRIPOS>ATOM
      1  O1        -2.8560   40.6350    0.4700 O.3   295  F6P295     -0.2148
      2  C1        -3.0400   39.5950   -0.4910 C.3   295  F6P295      0.2434
      3  C2        -2.8050   38.2260    0.0560 C.3   295  F6P295      0.2807
      4  O2        -1.8480   38.3880    1.0330 O.3   295  F6P295     -0.1896
      5  C3        -2.3410   37.0650   -0.8590 C.3   295  F6P295      0.2409
      6  O3        -0.9400   36.8940   -0.7840 O.3   295  F6P295     -0.2149
      7  C4        -3.0740   35.8960   -0.2920 C.3   295  F6P295      0.2167
      8  O4        -2.8630   34.9200   -1.2680 O.3   295  F6P295     -0.2175
      9  C5        -4.3860   36.6380   -0.0960 C.3   295  F6P295      0.1808
     10  O5        -3.9460   37.7670    0.6780 O.3   295  F6P295     -0.3254
     11  C6        -5.4510   35.8240    0.6000 C.3   295  F6P295      0.1859
     12  O6        -6.6490   36.6050    0.7100 O.3   295  F6P295     -0.2675
     13  P         -6.6050   37.9580    1.4970 P.3   295  F6P295      0.5327
     14  O1P       -6.0080   38.9750    0.4810 O.2   295  F6P295     -0.2224
     15  O2P       -5.5660   37.7040    2.6260 O.3   295  F6P295     -0.1145
     16  O3P       -7.9340   38.3950    2.0400 O.3   295  F6P295     -0.1145
@<TRIPOS>BOND
     1     8     7    1
     2     5     6    1
     3     5     7    1
     4     5     3    1
     5     2     3    1
     6     2     1    1
     7     7     9    1
     8     9    11    1
     9     9    10    1
    10     3    10    1
    11     3     4    1
    12    14    13    2
    13    11    12    1
    14    12    13    1
    15    13    16    1
    16    13    15    1
