@<TRIPOS>MOLECULE
1lbz_FBP_A_1.pdb
 20 20 0 0 0
SMALL
GASTEIGER

@<TRIPOS>ATOM
      1  P1         0.6420   38.8980    5.2030 P.3   295  FBP295      0.5328
      2  O1P        1.7890   39.7030    4.5860 O.2   295  FBP295     -0.2224
      3  O2P        0.0860   39.6360    6.4170 O.3   295  FBP295     -0.1145
      4  O3P        1.2060   37.6110    5.5240 O.3   295  FBP295     -0.1145
      5  O1        -0.4280   38.8710    4.1230 O.3   295  FBP295     -0.2648
      6  C1        -1.6760   38.1770    4.2750 C.3   295  FBP295      0.2152
      7  C2        -2.0000   37.1900    3.2130 C.3   295  FBP295      0.2780
      8  O2        -0.8640   36.4400    2.9750 O.3   295  FBP295     -0.1897
      9  C3        -2.4970   37.7040    1.8350 C.3   295  FBP295      0.2408
     10  O3        -1.4520   37.5830    0.8780 O.3   295  FBP295     -0.2149
     11  C4        -3.6740   36.8530    1.5360 C.3   295  FBP295      0.2167
     12  O4        -4.3440   37.6200    0.5730 O.3   295  FBP295     -0.2175
     13  C5        -4.1590   36.6580    2.9620 C.3   295  FBP295      0.1808
     14  O5        -2.9510   36.2940    3.6470 O.3   295  FBP295     -0.3255
     15  C6        -5.2160   35.5770    3.1120 C.3   295  FBP295      0.1859
     16  O6        -6.1680   35.9730    4.0890 O.3   295  FBP295     -0.2675
     17  P2        -6.2490   35.3590    5.5270 P.3   295  FBP295      0.5327
     18  O4P       -6.7060   36.5640    6.3960 O.3   295  FBP295     -0.1145
     19  O5P       -4.7940   34.9980    5.9210 O.3   295  FBP295     -0.1145
     20  O6P       -7.1830   34.1860    5.6230 O.2   295  FBP295     -0.2224
@<TRIPOS>BOND
     1    12    11    1
     2    10     9    1
     3    11     9    1
     4    11    13    1
     5     9     7    1
     6    13    15    1
     7    13    14    1
     8     8     7    1
     9    15    16    1
    10     7    14    1
    11     7     6    1
    12    16    17    1
    13     5     6    1
    14     5     1    1
    15     2     1    2
    16     1     4    1
    17     1     3    1
    18    17    20    2
    19    17    19    1
    20    17    18    1
