@<TRIPOS>MOLECULE
1lc3_NAD_A_1.pdb
 44 48 0 0 0
SMALL
GASTEIGER

@<TRIPOS>ATOM
      1  PA        32.6370   16.8400   62.2080 P.3   900  NAD900      0.2189
      2  O1A       32.9070   15.4820   61.6540 O.2   900  NAD900     -0.5170
      3  O2A       33.1550   16.9980   63.6430 O.3   900  NAD900     -0.4371
      4  O5B       31.1380   17.1680   62.1270 O.3   900  NAD900     -0.3112
      5  C5B       30.0770   16.4620   62.8960 C.3   900  NAD900      0.1813
      6  C4B       28.7210   16.8630   62.4580 C.3   900  NAD900      0.1821
      7  O4B       28.5980   18.3260   62.3520 O.3   900  NAD900     -0.3135
      8  C3B       28.1990   16.3360   61.0570 C.3   900  NAD900      0.2184
      9  O3B       26.7980   15.8990   61.1930 O.3   900  NAD900     -0.2174
     10  C2B       28.3650   17.4800   60.1060 C.3   900  NAD900      0.2570
     11  O2B       27.6420   17.4480   58.9360 O.3   900  NAD900     -0.2130
     12  C1B       28.0750   18.6380   61.1180 C.3   900  NAD900      0.3186
     13  N9A       28.6670   19.8900   60.7570 N.pl3 900  NAD900     -0.1439
     14  C8A       29.9840   20.2490   60.5500 C.3   900  NAD900      0.3377
     15  N7A       30.1770   21.5080   60.2260 N.2   900  NAD900     -0.2095
     16  C5A       28.9280   22.0780   60.2000 C.2   900  NAD900      0.2526
     17  C6A       28.4760   23.5040   59.8950 C.2   900  NAD900      0.4393
     18  N6A       29.2590   24.5080   59.5820 N.pl3 900  NAD900      0.2180
     19  N1A       27.0600   23.6690   59.9830 N.2   900  NAD900      0.0021
     20  C2A       26.1730   22.7230   60.2910 C.3   900  NAD900      0.5254
     21  N3A       26.5700   21.3770   60.5820 N.2   900  NAD900     -0.0055
     22  C4A       27.9800   21.0950   60.5240 C.2   900  NAD900      0.3518
     23  O3        33.4580   17.7760   61.2570 O.3   900  NAD900     -0.2703
     24  PN        33.2590   18.2940   59.7270 P.3   900  NAD900      0.2189
     25  O1N       31.9850   17.9460   59.1640 O.3   900  NAD900     -0.4371
     26  O2N       34.4490   17.6510   59.1480 O.2   900  NAD900     -0.5170
     27  O5D       33.6370   19.7990   59.5330 O.3   900  NAD900     -0.3112
     28  C5D       34.4550   20.5700   60.3770 C.3   900  NAD900      0.1813
     29  C4D       34.8570   21.8210   59.7060 C.3   900  NAD900      0.1799
     30  O4D       34.4680   21.7330   58.2140 O.3   900  NAD900     -0.3327
     31  C3D       34.0010   23.0550   60.1500 C.3   900  NAD900      0.2158
     32  O3D       34.8290   24.1120   60.0940 O.3   900  NAD900     -0.2175
     33  C2D       32.8160   23.0800   59.1480 C.3   900  NAD900      0.2309
     34  O2D       32.1490   24.2820   59.1310 O.3   900  NAD900     -0.2158
     35  C1D       33.5650   22.7470   57.8820 C.3   900  NAD900      0.2263
     36  N1N       32.7410   22.2660   56.7030 N.pl3 900  NAD900     -0.2787
     37  C2N       32.1650   20.9590   56.6720 C.3   900  NAD900      0.1244
     38  C3N       31.4560   20.7000   55.5130 C.2   900  NAD900      0.0544
     39  C7N       30.8270   19.2130   55.5320 C.2   900  NAD900      0.2818
     40  O7N       30.1600   18.8600   54.5330 O.2   900  NAD900     -0.2670
     41  N7N       31.0630   18.4090   56.6560 N.am  900  NAD900     -0.0839
     42  C4N       31.2710   21.5910   54.4140 C.2   900  NAD900      0.0033
     43  C5N       31.9100   22.8800   54.5830 C.2   900  NAD900      0.0157
     44  C6N       32.6390   23.2190   55.7150 C.2   900  NAD900      0.0633
@<TRIPOS>BOND
     1    42    43    1
     2    42    38    2
     3    40    39    2
     4    43    44    2
     5    38    39    1
     6    38    37    1
     7    39    41   am
     8    44    36    1
     9    37    36    1
    10    36    35    1
    11    35    30    1
    12    35    33    1
    13    30    29    1
    14    11    10    1
    15    34    33    1
    16    33    31    1
    17    26    24    2
    18    25    24    1
    19    27    24    1
    20    27    28    1
    21    18    17    1
    22    29    31    1
    23    29    28    1
    24    24    23    1
    25    17    19    2
    26    17    16    1
    27    19    20    1
    28    32    31    1
    29    10     8    1
    30    10    12    1
    31    16    15    2
    32    16    22    1
    33    15    14    1
    34    20    21    1
    35    22    21    2
    36    22    13    1
    37    14    13    1
    38    13    12    1
    39     8     9    1
    40     8     6    1
    41    12     7    1
    42    23     1    1
    43     2     1    2
    44     4     1    1
    45     4     5    1
    46     1     3    1
    47     7     6    1
    48     6     5    1
