@<TRIPOS>MOLECULE
1lc7_TPO_A_1.pdb
 12 11 0 0 0
SMALL
GASTEIGER

@<TRIPOS>ATOM
      1  N         26.1790   28.3590   14.7710 N.3   990  TPO990     -0.1182
      2  CA        26.7250   27.0370   15.0820 C.3   990  TPO990      0.2217
      3  CB        27.9520   27.2750   16.0010 C.3   990  TPO990      0.1548
      4  CG2       29.1520   26.4660   15.5420 C.3   990  TPO990      0.0348
      5  OG1       28.3420   28.6180   15.9530 O.3   990  TPO990     -0.2707
      6  P         28.0330   29.5020   17.2830 P.3   990  TPO990      0.5326
      7  O1P       28.6980   30.9210   17.0330 O.2   990  TPO990     -0.2224
      8  O2P       28.6670   28.7220   18.5180 O.3   990  TPO990     -0.1145
      9  O3P       26.4710   29.6000   17.3430 O.3   990  TPO990     -0.1145
     10  C         25.7420   26.1980   15.8620 C.2   990  TPO990      0.3843
     11  O         26.0240   24.9670   16.0610 O.co2 990  TPO990     -0.2440
     12  OXT       24.6620   26.7070   16.3410 O.co2 990  TPO990     -0.2440
@<TRIPOS>BOND
     1     1     2    1
     2     2    10    1
     3     2     3    1
     4     4     3    1
     5    10    11   ar
     6    10    12   ar
     7     5     3    1
     8     5     6    1
     9     7     6    2
    10     6     9    1
    11     6     8    1
