@<TRIPOS>MOLECULE
1lc8_33P_A_1.pdb
 24 24 0 0 0
SMALL
GASTEIGER

@<TRIPOS>ATOM
      1  N1        22.9920   21.1140   47.0670 N.ar  800  33P800     -0.2452
      2  C2        23.0120   21.4240   45.7460 C.ar  800  33P800      0.0981
      3  C2A       22.0050   20.8780   44.8480 C.3   800  33P800      0.0555
      4  C3        24.0830   22.2850   45.3190 C.ar  800  33P800      0.2103
      5  O3        24.1640   22.6140   44.0720 O.3   800  33P800     -0.2853
      6  C4        25.0340   22.7610   46.3320 C.ar  800  33P800      0.0587
      7  C4A       26.0950   23.6280   45.8450 C.2   800  33P800      0.0962
      8  C5        24.9340   22.3910   47.6630 C.ar  800  33P800      0.0316
      9  C6        23.8580   21.5400   48.0540 C.ar  800  33P800      0.0968
     10  C5A       25.8200   22.7950   48.7730 C.3   800  33P800      0.1819
     11  O4A       25.5900   24.1940   49.0520 O.3   800  33P800     -0.2653
     12  PA        26.2750   25.0150   50.2350 P.3   800  33P800      0.5329
     13  O1A       25.1370   25.4090   51.2280 O.3   800  33P800     -0.1145
     14  O2A       26.9870   26.3140   49.7080 O.2   800  33P800     -0.2224
     15  O3A       27.2580   24.0650   50.9600 O.3   800  33P800     -0.1145
     16  PB        28.1140   22.5230   41.3060 P.3   800  33P800      0.5326
     17  O1B       28.5390   21.0520   41.3400 O.3   800  33P800     -0.1145
     18  O2B       28.8310   23.2820   40.1730 O.2   800  33P800     -0.2224
     19  O3B       26.5940   22.6090   41.1000 O.3   800  33P800     -0.1145
     20  N7        26.7040   23.8450   44.7410 N.2   800  33P800     -0.2662
     21  C8        27.7480   24.7510   44.3420 C.3   800  33P800      0.1555
     22  C9        28.1170   24.5470   42.8820 C.3   800  33P800      0.1505
     23  O4B       28.4810   23.1650   42.7120 O.3   800  33P800     -0.2707
     24  C10       29.2880   25.4490   42.5870 C.3   800  33P800      0.0348
@<TRIPOS>BOND
     1    18    16    2
     2    19    16    1
     3    16    17    1
     4    16    23    1
     5    24    22    1
     6    23    22    1
     7    22    21    1
     8     5     4    1
     9    21    20    1
    10    20     7    2
    11     3     2    1
    12     4     2   ar
    13     4     6   ar
    14     2     1   ar
    15     7     6    1
    16     6     8   ar
    17     1     9   ar
    18     8     9   ar
    19     8    10    1
    20    10    11    1
    21    11    12    1
    22    14    12    2
    23    12    15    1
    24    12    13    1
