@<TRIPOS>MOLECULE
1lca_UMP_A_1.pdb
 21 22 0 0 0
SMALL
GASTEIGER

@<TRIPOS>ATOM
      1  N1        14.7680   46.6870  -52.1880 N.ar  317  UMP317     -0.2571
      2  C2        14.2710   45.5490  -51.4980 C.ar  317  UMP317      0.3322
      3  N3        13.8720   45.8060  -50.1610 N.ar  317  UMP317     -0.2743
      4  C4        13.9560   47.0440  -49.4650 C.ar  317  UMP317      0.2626
      5  C5        14.4730   48.1260  -50.2950 C.ar  317  UMP317      0.0795
      6  C6        14.8610   47.8790  -51.6220 C.ar  317  UMP317      0.0868
      7  O2        14.2480   44.3840  -51.9410 O.2   317  UMP317     -0.2464
      8  O4        13.7480   47.1390  -48.2320 O.2   317  UMP317     -0.2670
      9  C1'       15.2730   46.6530  -53.5960 C.3   317  UMP317      0.2107
     10  C2'       14.9390   45.6160  -54.6880 C.3   317  UMP317      0.0895
     11  C3'       15.7020   46.0820  -55.9270 C.3   317  UMP317      0.1859
     12  C4'       16.0640   47.5670  -55.5950 C.3   317  UMP317      0.1776
     13  O3'       16.8860   45.2700  -56.0530 O.3   317  UMP317     -0.2203
     14  O4'       16.2220   47.6330  -54.1690 O.3   317  UMP317     -0.3326
     15  C5'       14.9970   48.5750  -55.9000 C.3   317  UMP317      0.1858
     16  O5'       14.7590   48.4750  -57.3090 O.3   317  UMP317     -0.2675
     17  P         15.7480   49.1620  -58.2910 P.3   317  UMP317      0.5327
     18  OP1       16.0050   50.5150  -57.7250 O.3   317  UMP317     -0.1145
     19  OP2       17.0070   48.4000  -58.5430 O.3   317  UMP317     -0.1145
     20  OP3       14.9940   49.2470  -59.5850 O.2   317  UMP317     -0.2224
     21  HN3       13.4770   45.0610  -49.6530 H     317  UMP317      0.1734
@<TRIPOS>BOND
     1    20    17    2
     2    19    17    1
     3    17    18    1
     4    17    16    1
     5    16    15    1
     6    13    11    1
     7    11    12    1
     8    11    10    1
     9    15    12    1
    10    12    14    1
    11    10     9    1
    12    14     9    1
    13     9     1    1
    14     1     6   ar
    15     1     2   ar
    16     7     2    2
    17     6     5   ar
    18     2     3   ar
    19     5     4   ar
    20     3    21    1
    21     3     4   ar
    22     4     8    2
