@<TRIPOS>MOLECULE
1lca_CB3_A_1.pdb
 39 41 0 0 0
SMALL
GASTEIGER

@<TRIPOS>ATOM
      1  N1        18.6590   48.3730  -52.8610 N.2   318  CB3318     -0.3272
      2  C2        18.6210   47.0110  -52.9860 C.1   318  CB3318      0.2068
      3  NA2       18.9600   46.4280  -54.1370 N.pl3 318  CB3318     -0.2829
      4  N3        18.2150   46.2230  -51.9430 N.2   318  CB3318     -0.2530
      5  C4        17.9540   46.7400  -50.7060 C.1   318  CB3318      0.2182
      6  O4        17.7570   45.8770  -49.6240 O.2   318  CB3318     -0.2085
      7  C4A       17.9190   48.1470  -50.5520 C.ar  318  CB3318      0.1259
      8  C5        17.4980   48.7520  -49.3440 C.ar  318  CB3318      0.0166
      9  C6        17.3620   50.1670  -49.2250 C.ar  318  CB3318      0.0158
     10  C7        17.6900   50.9330  -50.3840 C.ar  318  CB3318      0.0040
     11  C8        18.1370   50.3570  -51.6080 C.ar  318  CB3318      0.0339
     12  C8A       18.2540   48.9520  -51.6980 C.ar  318  CB3318      0.1569
     13  C9        16.8810   50.8950  -47.9450 C.2   318  CB3318      0.0661
     14  N10       16.6850   50.0700  -46.6920 N.pl3 318  CB3318     -0.2742
     15  C11       19.9730   48.0230  -45.2060 C.ar  318  CB3318      0.0534
     16  C12       18.8410   47.2830  -45.6280 C.ar  318  CB3318      0.0058
     17  C13       17.7400   47.9540  -46.1410 C.ar  318  CB3318      0.0150
     18  C14       17.7620   49.3750  -46.2370 C.ar  318  CB3318      0.0524
     19  C15       18.9140   50.0880  -45.8700 C.ar  318  CB3318      0.0150
     20  C16       20.0080   49.4260  -45.3610 C.ar  318  CB3318      0.0058
     21  C         21.1110   47.4160  -44.4920 C.2   318  CB3318      0.2462
     22  O         22.2370   47.9760  -44.4180 O.2   318  CB3318     -0.2701
     23  N         20.8770   46.3250  -43.7280 N.am  318  CB3318     -0.2931
     24  CA        20.7360   44.9070  -44.2380 C.3   318  CB3318      0.1766
     25  CB        21.7260   43.9310  -43.4810 C.3   318  CB3318      0.0430
     26  CG        22.4520   42.7080  -44.0770 C.3   318  CB3318      0.1163
     27  CD        23.9390   42.6810  -43.6440 C.2   318  CB3318      0.3649
     28  OE1       24.4110   41.7370  -42.9770 O.co2 318  CB3318     -0.2457
     29  OE2       24.6350   43.6520  -43.9950 O.co2 318  CB3318     -0.2457
     30  CT        19.2760   44.4890  -43.9270 C.2   318  CB3318      0.3823
     31  O1        18.6410   45.1990  -43.1190 O.co2 318  CB3318     -0.2438
     32  O2        18.8150   43.4890  -44.5070 O.co2 318  CB3318     -0.2438
     33  CP1       15.3540   49.8080  -46.0420 C.3   318  CB3318      0.1723
     34  CP2       15.3960   48.5220  -45.2690 C.1   318  CB3318     -0.0725
     35  CP3       15.6420   47.4690  -44.7260 C.1   318  CB3318     -0.1168
     36 HN21       19.6390   47.0380  -54.6410 H     318  CB3318      0.1556
     37 HN22       18.1120   46.3320  -54.7260 H     318  CB3318      0.1556
     38  HN        20.3120   46.4760  -42.9420 H     318  CB3318      0.1502
     39  HP3       16.0780   46.6740  -44.1730 H     318  CB3318      0.1229
@<TRIPOS>BOND
     1    37     3    1
     2    36     3    1
     3     3     2    1
     4     2     1    2
     5     2     4    2
     6     1    12    2
     7     4     5    2
     8    12    11   ar
     9    12     7   ar
    10    11    10   ar
    11     5     7    1
    12     5     6    2
    13     7     8   ar
    14    10     9   ar
    15     8     9   ar
    16     9    13    2
    17    13    14    1
    18    14    18    1
    19    14    33    1
    20    18    17   ar
    21    18    19   ar
    22    17    16   ar
    23    33    34    1
    24    19    20   ar
    25    16    15   ar
    26    20    15   ar
    27    34    35    3
    28    15    21    1
    29    35    39    1
    30    32    30   ar
    31    21    22    2
    32    21    23   am
    33    24    30    1
    34    24    23    1
    35    24    25    1
    36    26    27    1
    37    26    25    1
    38    29    27   ar
    39    30    31   ar
    40    23    38    1
    41    27    28   ar
