@<TRIPOS>MOLECULE
1lcb_TMP_A_1.pdb
 23 24 0 0 0
SMALL
GASTEIGER

@<TRIPOS>ATOM
      1  P         15.5780   49.1920  -57.6140 P.3   317  TMP317      0.5327
      2  O1P       14.4390   48.3580  -58.1440 O.3   317  TMP317     -0.1145
      3  O2P       15.0690   50.4070  -56.9120 O.3   317  TMP317     -0.1145
      4  O3P       16.6660   49.4140  -58.6610 O.2   317  TMP317     -0.2224
      5  O5'       16.3100   48.2730  -56.4900 O.3   317  TMP317     -0.2675
      6  C5'       17.5360   48.5350  -55.7190 C.3   317  TMP317      0.1857
      7  C4'       17.3840   47.6330  -54.5770 C.3   317  TMP317      0.1741
      8  O4'       16.2480   48.1690  -53.8190 O.3   317  TMP317     -0.3327
      9  C3'       16.9160   46.1980  -54.9440 C.3   317  TMP317      0.1445
     10  O3'       17.9710   45.3050  -55.3710 O.3   317  TMP317     -0.3817
     11  C2'       16.0470   45.7640  -53.7540 C.3   317  TMP317      0.0858
     12  C1'       15.6410   47.0710  -53.0580 C.3   317  TMP317      0.2106
     13  N1        14.8230   47.2920  -51.7950 N.ar  317  TMP317     -0.2574
     14  C2        14.2100   46.2200  -51.0740 C.ar  317  TMP317      0.3322
     15  O2        14.3890   45.0060  -51.2820 O.2   317  TMP317     -0.2464
     16  N3        13.4060   46.6250  -49.9780 N.ar  317  TMP317     -0.2746
     17  C4        13.1430   47.9660  -49.5650 C.ar  317  TMP317      0.2584
     18  O4        12.2890   48.2450  -48.7170 O.2   317  TMP317     -0.2674
     19  C5        13.8270   49.0010  -50.3400 C.ar  317  TMP317      0.0515
     20  C5M       13.8460   50.3480  -49.7450 C.3   317  TMP317      0.0376
     21  C6        14.6160   48.5990  -51.4480 C.ar  317  TMP317      0.0823
     22 HO3'       18.6450   45.8500  -55.8000 H     317  TMP317      0.2104
     23  HN3       13.0960   45.8830  -49.4210 H     317  TMP317      0.1734
@<TRIPOS>BOND
     1     4     1    2
     2     2     1    1
     3     1     3    1
     4     1     5    1
     5     5     6    1
     6    22    10    1
     7     6     7    1
     8    10     9    1
     9     9     7    1
    10     9    11    1
    11     7     8    1
    12     8    12    1
    13    11    12    1
    14    12    13    1
    15    13    21   ar
    16    13    14   ar
    17    21    19   ar
    18    15    14    2
    19    14    16   ar
    20    19    20    1
    21    19    17   ar
    22    16    17   ar
    23    16    23    1
    24    17    18    2
