@<TRIPOS>MOLECULE
1lcb_DHF_A_1.pdb
 36 38 0 0 0
SMALL
GASTEIGER

@<TRIPOS>ATOM
      1  N1        18.9360   46.6400  -52.4370 N.2   318  DHF318     -0.3092
      2  C2        18.8130   45.3110  -52.2040 C.1   318  DHF318      0.2082
      3  NA2       19.4430   44.4630  -53.0180 N.pl3 318  DHF318     -0.2829
      4  N3        18.3120   44.8830  -51.0270 N.2   318  DHF318     -0.2505
      5  C4        17.9030   45.7670  -50.0440 C.1   318  DHF318      0.2497
      6  O4        17.6690   45.2750  -48.7630 O.2   318  DHF318     -0.2058
      7  C4A       18.0060   47.1740  -50.3130 C.2   318  DHF318      0.2694
      8  N5        17.1400   48.0410  -49.7810 N.2   318  DHF318     -0.3908
      9  C6        17.5100   49.3200  -49.8470 C.2   318  DHF318      0.1272
     10  C7        18.0100   49.8300  -51.1680 C.3   318  DHF318      0.1462
     11  N8        18.9900   48.8860  -51.7730 N.pl3 318  DHF318     -0.2992
     12  C8A       18.6600   47.5760  -51.5340 C.2   318  DHF318      0.2364
     13  C9        17.5540   50.1190  -48.6110 C.3   318  DHF318      0.1443
     14  N10       16.7140   49.5490  -47.5030 N.pl3 318  DHF318     -0.3272
     15  C11       19.1640   47.2980  -44.9230 C.ar  318  DHF318      0.0551
     16  C12       18.1040   46.7220  -45.6800 C.ar  318  DHF318      0.0058
     17  C13       17.2930   47.4720  -46.5390 C.ar  318  DHF318      0.0145
     18  C14       17.5500   48.8580  -46.6770 C.ar  318  DHF318      0.0449
     19  C15       18.6530   49.4630  -45.9800 C.ar  318  DHF318      0.0145
     20  C16       19.4550   48.6960  -45.1200 C.ar  318  DHF318      0.0058
     21  C         19.7560   46.5400  -43.7840 C.2   318  DHF318      0.2652
     22  O         20.4120   47.1340  -42.8900 O.2   318  DHF318     -0.2684
     23  N         19.5240   45.2010  -43.6310 N.am  318  DHF318     -0.1918
     24  CA        19.9830   44.1050  -44.5770 C.3   318  DHF318      0.1986
     25  CB        21.3050   43.3940  -43.8940 C.3   318  DHF318      0.0451
     26  CG        21.9480   41.9000  -44.0330 C.3   318  DHF318      0.1164
     27  CD        23.5240   41.7870  -43.8480 C.2   318  DHF318      0.3649
     28  OE1       24.0840   40.8770  -43.1640 O.co2 318  DHF318     -0.2457
     29  OE2       24.2210   42.6340  -44.4340 O.co2 318  DHF318     -0.2457
     30  CT        18.7570   43.1500  -44.8500 C.2   318  DHF318      0.3842
     31  O1        18.7170   41.9470  -44.5190 O.co2 318  DHF318     -0.2437
     32  O2        17.7750   43.6370  -45.4120 O.co2 318  DHF318     -0.2437
     33 HN21       18.7390   43.8570  -53.4810 H     318  DHF318      0.1556
     34 HN22       19.9560   45.0120  -53.7340 H     318  DHF318      0.1556
     35  HN8       19.1730   49.0680  -52.7770 H     318  DHF318      0.1497
     36  HN0       16.1990   50.2830  -46.9850 H     318  DHF318      0.1472
@<TRIPOS>BOND
     1    34     3    1
     2    33     3    1
     3     3     2    1
     4    35    11    1
     5     1     2    2
     6     1    12    2
     7     2     4    2
     8    11    12    1
     9    11    10    1
    10    12     7    1
    11    10     9    1
    12     4     5    2
    13     7     5    1
    14     7     8    2
    15     5     6    2
    16     9     8    2
    17     9    13    1
    18    13    14    1
    19    14    36    1
    20    14    18    1
    21    18    17   ar
    22    18    19   ar
    23    17    16   ar
    24    19    20   ar
    25    16    15   ar
    26    32    30   ar
    27    20    15   ar
    28    15    21    1
    29    30    24    1
    30    30    31   ar
    31    24    25    1
    32    24    23    1
    33    29    27   ar
    34    26    25    1
    35    26    27    1
    36    27    28   ar
    37    21    23   am
    38    21    22    2
