@<TRIPOS>MOLECULE
1lce_UMP_A_1.pdb
 21 22 0 0 0
SMALL
GASTEIGER

@<TRIPOS>ATOM
      1  N1        15.0700   46.6200  -52.5030 N.ar  317  UMP317     -0.2571
      2  C2        14.4500   45.6640  -51.6340 C.ar  317  UMP317      0.3322
      3  N3        14.5050   45.9740  -50.2770 N.ar  317  UMP317     -0.2743
      4  C4        15.1570   47.1060  -49.7190 C.ar  317  UMP317      0.2626
      5  C5        15.7300   48.0160  -50.6960 C.ar  317  UMP317      0.0795
      6  C6        15.6440   47.7130  -52.0480 C.ar  317  UMP317      0.0868
      7  O2        13.9750   44.5710  -51.9560 O.2   317  UMP317     -0.2464
      8  O4        15.4740   47.2570  -48.5310 O.2   317  UMP317     -0.2670
      9  C1'       15.3640   46.5440  -53.9810 C.3   317  UMP317      0.2107
     10  C2'       15.9800   45.4050  -54.8240 C.3   317  UMP317      0.0895
     11  C3'       17.1000   46.1000  -55.6640 C.3   317  UMP317      0.1859
     12  C4'       16.9580   47.5930  -55.3570 C.3   317  UMP317      0.1776
     13  O3'       18.4470   45.6660  -55.3430 O.3   317  UMP317     -0.2203
     14  O4'       15.5900   47.7340  -54.8550 O.3   317  UMP317     -0.3326
     15  C5'       17.1100   48.5130  -56.5720 C.3   317  UMP317      0.1858
     16  O5'       16.1670   48.3350  -57.6720 O.3   317  UMP317     -0.2675
     17  P         15.7800   49.5880  -58.6340 P.3   317  UMP317      0.5327
     18  OP1       14.3060   49.5840  -58.6440 O.3   317  UMP317     -0.1145
     19  OP2       16.2710   50.8340  -58.0380 O.3   317  UMP317     -0.1145
     20  OP3       16.3030   49.3790  -60.0220 O.2   317  UMP317     -0.2224
     21  HN3       13.8110   45.4500  -49.8290 H     317  UMP317      0.1734
@<TRIPOS>BOND
     1    20    17    2
     2    18    17    1
     3    17    19    1
     4    17    16    1
     5    16    15    1
     6    15    12    1
     7    11    12    1
     8    11    13    1
     9    11    10    1
    10    12    14    1
    11    14     9    1
    12    10     9    1
    13     9     1    1
    14     1     6   ar
    15     1     2   ar
    16     6     5   ar
    17     7     2    2
    18     2     3   ar
    19     5     4   ar
    20     3    21    1
    21     3     4   ar
    22     4     8    2
