@<TRIPOS>MOLECULE
1lce_TMF_A_1.pdb
 33 36 0 0 0
SMALL
GASTEIGER

@<TRIPOS>ATOM
      1  N1        14.7970   51.3330  -50.2750 N.2   318  TMF318     -0.2726
      2  C2        13.6110   51.4000  -51.0390 C.1   318  TMF318      0.2603
      3  NA2       13.3520   52.1970  -52.1000 N.pl3 318  TMF318     -0.0221
      4  N3        12.5330   50.6110  -50.6690 N.2   318  TMF318     -0.2515
      5  C4        12.7020   49.6720  -49.6880 C.1   318  TMF318      0.2219
      6  O4        12.0880   48.3330  -49.7930 O.2   318  TMF318     -0.2109
      7  C4A       13.6190   50.1320  -48.6710 C.3   318  TMF318      0.2774
      8  N5        13.2820   50.0480  -47.4110 N.3   318  TMF318     -0.2275
      9  C6        14.2120   50.8260  -46.5010 C.3   318  TMF318      0.1058
     10  C7        15.6860   51.2390  -47.1450 C.3   318  TMF318      0.1547
     11  N8        15.9460   50.5270  -48.3910 N.2   318  TMF318     -0.2096
     12  C8A       14.8290   50.6760  -49.1450 C.1   318  TMF318      0.1050
     13  C9        14.2510   49.9520  -45.2360 C.3   318  TMF318      0.1101
     14  N10       14.3420   48.6490  -45.8460 N.pl3 318  TMF318     -0.2923
     15  C11       17.6880   46.3970  -45.2940 C.ar  318  TMF318      0.0551
     16  C12       16.4340   46.0750  -44.7110 C.ar  318  TMF318      0.0058
     17  C13       15.2920   46.8160  -44.8930 C.ar  318  TMF318      0.0147
     18  C14       15.4290   47.9150  -45.6940 C.ar  318  TMF318      0.0488
     19  C15       16.6640   48.2710  -46.3070 C.ar  318  TMF318      0.0147
     20  C16       17.8270   47.5180  -46.1260 C.ar  318  TMF318      0.0058
     21  C         18.8130   45.5280  -44.9620 C.2   318  TMF318      0.2652
     22  O         19.9620   46.0080  -44.8840 O.2   318  TMF318     -0.2684
     23  N         18.4550   44.1800  -44.7230 N.am  318  TMF318     -0.1918
     24  CA        18.9860   42.8480  -45.2620 C.3   318  TMF318      0.1986
     25  CB        20.2290   42.4950  -44.4720 C.3   318  TMF318      0.0451
     26  CG        21.4480   43.2080  -44.9370 C.3   318  TMF318      0.1164
     27  CD        22.6740   42.6950  -44.1810 C.2   318  TMF318      0.3649
     28  OE1       23.3090   43.5750  -43.5120 O.co2 318  TMF318     -0.2457
     29  OE2       22.9770   41.4620  -44.2860 O.co2 318  TMF318     -0.2457
     30  CT        18.0070   41.6100  -45.3070 C.2   318  TMF318      0.3842
     31  O1        16.7990   41.7560  -45.5310 O.co2 318  TMF318     -0.2437
     32  O2        18.3980   40.4600  -45.1510 O.co2 318  TMF318     -0.2437
     33  CP1       13.4720   48.6060  -47.0150 C.3   318  TMF318      0.1706
@<TRIPOS>BOND
     1     3     2    1
     2     2     4    2
     3     2     1    2
     4     4     5    2
     5     1    12    2
     6     6     5    2
     7     5     7    1
     8    12     7    1
     9    12    11    2
    10     7     8    1
    11    11    10    1
    12     8    33    1
    13     8     9    1
    14    10     9    1
    15    33    14    1
    16     9    13    1
    17    19    20   ar
    18    19    18   ar
    19    20    15   ar
    20    14    18    1
    21    14    13    1
    22    18    17   ar
    23    31    30   ar
    24    30    24    1
    25    30    32   ar
    26    15    21    1
    27    15    16   ar
    28    24    23    1
    29    24    25    1
    30    21    22    2
    31    21    23   am
    32    26    25    1
    33    26    27    1
    34    17    16   ar
    35    29    27   ar
    36    27    28   ar
