@<TRIPOS>MOLECULE
1lco_FMN_A_1.pdb
 35 37 0 0 0
SMALL
GASTEIGER

@<TRIPOS>ATOM
      1  N1        69.5400   57.3550    1.6160 N.2   570  FMN570     -0.3028
      2  C2        70.8500   57.0410    1.9740 C.1   570  FMN570      0.2727
      3  O2        71.7350   57.8860    2.0670 O.2   570  FMN570     -0.1927
      4  N3        71.1210   55.7360    2.2230 N.am  570  FMN570     -0.1956
      5  C4        70.1980   54.7540    2.1440 C.2   570  FMN570      0.2930
      6  O4        70.6070   53.6020    2.2270 O.2   570  FMN570     -0.2661
      7  C4A       68.8410   55.1980    1.9150 C.2   570  FMN570      0.2295
      8  N5        67.9330   54.1950    2.0060 N.2   570  FMN570     -0.3956
      9  C5A       66.6920   54.4600    1.5710 C.2   570  FMN570      0.1312
     10  C6        65.8280   53.4300    1.6560 C.2   570  FMN570      0.0250
     11  C7        64.5890   53.5860    1.1610 C.2   570  FMN570     -0.0238
     12  C7M       63.8310   52.2860    1.1580 C.3   570  FMN570      0.0308
     13  C8        64.1370   54.8500    0.7020 C.2   570  FMN570     -0.0280
     14  C8M       62.7530   55.1610    0.1390 C.3   570  FMN570      0.0304
     15  C9        64.9870   55.9020    0.7470 C.2   570  FMN570     -0.0041
     16  C9A       66.3030   55.6950    1.0970 C.3   570  FMN570      0.1497
     17  N10       67.2270   56.6980    0.9550 N.pl3 570  FMN570     -0.2698
     18  C10       68.4800   56.4640    1.4850 C.2   570  FMN570      0.2325
     19  C1'       66.8340   57.9180    0.6100 C.3   570  FMN570      0.1256
     20  C2'       67.5930   58.6120   -0.5190 C.3   570  FMN570      0.1594
     21  O2'       68.2590   57.8910   -1.5180 O.3   570  FMN570     -0.3801
     22  C3'       66.8080   59.5980   -1.2160 C.3   570  FMN570      0.1681
     23  O3'       66.8340   60.8580   -0.5860 O.3   570  FMN570     -0.3795
     24  C4'       65.4620   59.1830   -1.7520 C.3   570  FMN570      0.1698
     25  O4'       64.9630   57.8850   -1.4320 O.3   570  FMN570     -0.3794
     26  C5'       64.5410   60.3650   -2.0350 C.3   570  FMN570      0.1854
     27  O5'       63.1850   60.0040   -2.0600 O.3   570  FMN570     -0.2676
     28  P         62.1970   59.5090   -3.2300 P.3   570  FMN570      0.5327
     29  O1P       62.0290   58.0600   -2.9400 O.3   570  FMN570     -0.1145
     30  O2P       62.9320   59.8170   -4.4740 O.2   570  FMN570     -0.2224
     31  O3P       61.0100   60.3440   -2.9400 O.3   570  FMN570     -0.1145
     32  HN3       72.0140   55.5260    2.6360 H     570  FMN570      0.1693
     33 HO2'       68.6260   57.1270   -1.0730 H     570  FMN570      0.2105
     34 HO3'       67.7610   61.0940   -0.4810 H     570  FMN570      0.2105
     35 HO4'       65.6760   57.2520   -1.5810 H     570  FMN570      0.2105
@<TRIPOS>BOND
     1    30    28    2
     2    28    31    1
     3    28    29    1
     4    28    27    1
     5    27    26    1
     6    26    24    1
     7    24    25    1
     8    24    22    1
     9    35    25    1
    10    21    33    1
    11    21    20    1
    12    22    23    1
    13    22    20    1
    14    23    34    1
    15    20    19    1
    16    14    13    1
    17    19    17    1
    18    13    15    2
    19    13    11    1
    20    15    16    1
    21    17    16    1
    22    17    18    1
    23    16     9    1
    24    12    11    1
    25    11    10    2
    26    18     1    2
    27    18     7    1
    28     9    10    1
    29     9     8    2
    30     1     2    2
    31     7     8    2
    32     7     5    1
    33     2     3    2
    34     2     4   am
    35     5     4   am
    36     5     6    2
    37     4    32    1
