@<TRIPOS>MOLECULE
1lco_PPY_A_1.pdb
 12 12 0 0 0
SMALL
GASTEIGER

@<TRIPOS>ATOM
      1  C1        67.4210   54.2970    5.3810 C.2   580  PPY580      0.4222
      2  O1        66.4410   54.9230    4.9090 O.co2 580  PPY580     -0.2373
      3  O2        68.5670   54.5910    4.9640 O.co2 580  PPY580     -0.2373
      4  C2        67.2470   53.0940    6.1340 C.2   580  PPY580      0.2564
      5  O3        66.0810   52.6450    6.2610 O.2   580  PPY580     -0.2839
      6  C3        68.2910   52.6770    7.1950 C.3   580  PPY580      0.1025
      7  C1'       68.0320   51.2110    7.4820 C.ar  580  PPY580     -0.0142
      8  C2'       68.6980   50.2420    6.7430 C.ar  580  PPY580     -0.0038
      9  C3'       68.4140   48.9050    6.9390 C.ar  580  PPY580     -0.0003
     10  C4'       67.4730   48.5480    7.8730 C.ar  580  PPY580     -0.0000
     11  C5'       66.8170   49.5180    8.6100 C.ar  580  PPY580     -0.0003
     12  C6'       67.0890   50.8510    8.4250 C.ar  580  PPY580     -0.0038
@<TRIPOS>BOND
     1     2     1   ar
     2     3     1   ar
     3     1     4    1
     4     4     5    2
     5     4     6    1
     6     8     9   ar
     7     8     7   ar
     8     9    10   ar
     9     6     7    1
    10     7    12   ar
    11    10    11   ar
    12    12    11   ar
