@<TRIPOS>MOLECULE
1lco_HEM_A_1.pdb
 47 54 0 0 0
SMALL
GASTEIGER

@<TRIPOS>ATOM
      1  CHA       69.5720   44.6980    8.5700 C.2   560  HEM560      0.0000
      2  CHB       74.1160   43.9060    9.8910 C.2   560  HEM560      0.0000
      3  CHC       72.7550   40.0940   12.3760 C.2   560  HEM560      0.0000
      4  CHD       68.2920   40.6490   10.7810 C.2   560  HEM560      0.0000
      5  C1A       70.9530   44.7480    8.6140 C.ar  560  HEM560      0.0000
      6  C2A       71.7990   45.6910    7.8680 C.ar  560  HEM560      0.0000
      7  C3A       73.0770   45.5300    8.3340 C.ar  560  HEM560      0.0000
      8  C4A       73.0180   44.4150    9.2560 C.ar  560  HEM560      0.0000
      9  CMA       74.3270   46.3260    7.9800 C.3   560  HEM560      0.0000
     10  CAA       71.3590   46.4400    6.6110 C.3   560  HEM560      0.0000
     11  CBA       72.1730   46.1840    5.3280 C.3   560  HEM560      0.0000
     12  CGA       72.6880   44.7680    5.1010 C.2   560  HEM560      0.0000
     13  O1A       73.8850   44.6200    4.8280 O.co2 560  HEM560      0.0000
     14  O2A       71.9090   43.8220    5.2190 O.co2 560  HEM560      0.0000
     15  C1B       74.1210   42.8360   10.7270 C.2   560  HEM560      0.0000
     16  C2B       75.3280   42.2930   11.3160 C.2   560  HEM560      0.0000
     17  C3B       74.9460   41.2020   12.0330 C.2   560  HEM560      0.0000
     18  C4B       73.5010   41.0960   11.8530 C.2   560  HEM560      0.0000
     19  CMB       76.7600   42.7970   11.1370 C.3   560  HEM560      0.0000
     20  CAB       75.7740   40.4000   12.8290 C.3   560  HEM560      0.0000
     21  CBB       76.0240   38.9710   12.5960 C.3   560  HEM560      0.0000
     22  C1C       71.4400   39.9130   12.1520 C.ar  560  HEM560      0.0000
     23  C2C       70.7150   38.7950   12.6730 C.ar  560  HEM560      0.0000
     24  C3C       69.4490   38.9120   12.2250 C.ar  560  HEM560      0.0000
     25  C4C       69.4160   40.1240   11.4040 C.ar  560  HEM560      0.0000
     26  CMC       71.2870   37.7150   13.5760 C.3   560  HEM560      0.0000
     27  CAC       68.3970   38.0730   12.5460 C.3   560  HEM560      0.0000
     28  CBC       67.5700   38.2950   13.7170 C.3   560  HEM560      0.0000
     29  C1D       68.2210   41.8470   10.0890 C.2   560  HEM560      0.0000
     30  C2D       67.0240   42.3920    9.4970 C.2   560  HEM560      0.0000
     31  C3D       67.3670   43.5980    8.9750 C.2   560  HEM560      0.0000
     32  C4D       68.7870   43.7480    9.1800 C.2   560  HEM560      0.0000
     33  CMD       65.6890   41.6610    9.3740 C.3   560  HEM560      0.0000
     34  CAD       66.4480   44.5390    8.2200 C.3   560  HEM560      0.0000
     35  CBD       65.7220   45.5460    9.0750 C.3   560  HEM560      0.0000
     36  CGD       64.2660   45.7420    8.6540 C.2   560  HEM560      0.0000
     37  O1D       63.4730   44.8140    8.8440 O.co2 560  HEM560      0.0000
     38  O2D       63.9100   46.8240    8.1580 O.co2 560  HEM560      0.0000
     39  NA        71.7300   43.9140    9.3990 N.ar  560  HEM560      0.0000
     40  NB        73.0070   42.0930   11.0470 N.2   560  HEM560      0.0000
     41  NC        70.6510   40.7280   11.3820 N.ar  560  HEM560      0.0000
     42  ND        69.3010   42.6750    9.8810 N.2   560  HEM560      0.0000
     43 FE         71.1600   42.3420   10.4360 Fe    560  HEM560      0.0000
     44  HHB       75.0700   44.4020    9.7140 H     560  HEM560      0.0000
     45  HHC       73.2610   39.3870   13.0320 H     560  HEM560      0.0000
     46  HHD       67.3770   40.0620   10.8520 H     560  HEM560      0.0000
     47  HHA       69.0650   45.4760    8.0000 H     560  HEM560      0.0000
@<TRIPOS>BOND
     1    13    12   ar
     2    12    14   ar
     3    12    11    1
     4    11    10    1
     5    10     6    1
     6     6     7   ar
     7     6     5   ar
     8     9     7    1
     9    47     1    1
    10    38    36   ar
    11    34    31    1
    12    34    35    1
    13     7     8   ar
    14     1     5    2
    15     1    32    1
    16     5    39   ar
    17    36    37   ar
    18    36    35    1
    19    31    32    1
    20    31    30    2
    21    32    42    2
    22     8    39   ar
    23     8     2    2
    24    33    30    1
    25    39    43    1
    26    30    29    1
    27    44     2    1
    28    42    29    1
    29    42    43    1
    30     2    15    1
    31    29     4    2
    32    43    40    1
    33    43    41    1
    34    15    40    2
    35    15    16    1
    36     4    46    1
    37     4    25    1
    38    40    18    1
    39    19    16    1
    40    16    17    2
    41    41    25   ar
    42    41    22   ar
    43    25    24   ar
    44    18    17    1
    45    18     3    2
    46    17    20    1
    47    22     3    1
    48    22    23   ar
    49    24    27    1
    50    24    23   ar
    51     3    45    1
    52    27    28    1
    53    21    20    1
    54    23    26    1
