@<TRIPOS>MOLECULE
1lcp_PLU_A_1.pdb
 10 9 0 0 0
SMALL
GASTEIGER

@<TRIPOS>ATOM
      1  CA        -1.7910   58.9830   45.2250 C.3   500  PLU500      0.1432
      2  CB        -2.4330   59.5420   43.9460 C.3   500  PLU500      0.0265
      3  CG        -3.8830   59.0740   43.6130 C.3   500  PLU500      0.0019
      4  CD1       -4.0270   57.5570   43.5480 C.3   500  PLU500      0.0001
      5  CD2       -4.3960   59.6900   42.2990 C.3   500  PLU500      0.0001
      6  N         -2.6470   59.2930   46.3660 N.3   500  PLU500     -0.1251
      7  P         -0.1880   59.7830   45.5110 P.3   500  PLU500      0.1344
      8  O1         0.2770   59.3250   46.9120 O.3   500  PLU500     -0.3562
      9  O2        -0.3540   61.3360   45.5000 O.3   500  PLU500     -0.3562
     10  O3         0.7680   59.3490   44.3880 O.2   500  PLU500     -0.4587
@<TRIPOS>BOND
     1     5     3    1
     2     4     3    1
     3     3     2    1
     4     2     1    1
     5    10     7    2
     6     1     7    1
     7     1     6    1
     8     9     7    1
     9     7     8    1
