@<TRIPOS>MOLECULE
1lcs_BMA_B_1.pdb
 11 11 0 0 0
SMALL
GASTEIGER

@<TRIPOS>ATOM
      1  C1        27.7540   26.5380   92.8390 C.3   704  BMA704      0.1777
      2  C2        29.1060   26.4430   93.5800 C.3   704  BMA704      0.2141
      3  C3        29.1550   25.1240   94.3750 C.3   704  BMA704      0.2173
      4  C4        27.9360   25.0100   95.3040 C.3   704  BMA704      0.2142
      5  C5        26.6390   25.1800   94.5030 C.3   704  BMA704      0.1810
      6  C6        25.4050   25.2100   95.3900 C.3   704  BMA704      0.2141
      7  O2        29.2520   27.5550   94.5000 O.3   704  BMA704     -0.2176
      8  O3        30.3430   25.0730   95.1550 O.3   704  BMA704     -0.2175
      9  O4        27.9400   23.7480   95.9560 O.3   704  BMA704     -0.2176
     10  O5        26.6700   26.4260   93.7690 O.3   704  BMA704     -0.3481
     11  O6        25.6120   26.0160   96.5420 O.3   704  BMA704     -0.2176
@<TRIPOS>BOND
     1     1     2    1
     2     1    10    1
     3     2     3    1
     4     2     7    1
     5    10     5    1
     6     3     8    1
     7     3     4    1
     8     5     4    1
     9     5     6    1
    10     4     9    1
    11     6    11    1
