@<TRIPOS>MOLECULE
1lcu_LAR_A_1.pdb
 29 31 0 0 0
SMALL
GASTEIGER

@<TRIPOS>ATOM
      1  S1        10.2920   67.1040   83.0720 S.3   411  LAR411     -0.0192
      2  N1        10.0060   67.1800   80.5590 N.2   411  LAR411     -0.1932
      3  O1        11.2720   64.2600   76.4200 O.2   411  LAR411     -0.2449
      4  O2        13.1990   64.9360   77.3950 O.3   411  LAR411     -0.4490
      5  O3        13.4820   67.8700   79.7770 O.3   411  LAR411     -0.3329
      6  O4        12.6060   65.8490   80.5140 O.3   411  LAR411     -0.1930
      7  O5         8.2740   66.1540   81.6540 O.2   411  LAR411     -0.2155
      8  C1        12.3770   63.9890   76.8760 C.2   411  LAR411      0.3407
      9  C2        12.9370   62.6140   76.8870 C.2   411  LAR411      0.0734
     10  C3        13.9710   61.9720   77.4690 C.2   411  LAR411     -0.0372
     11  C4        14.9670   62.6030   78.4090 C.3   411  LAR411      0.0269
     12  C5        16.3240   62.5510   77.7940 C.3   411  LAR411      0.0304
     13  C6        17.2610   63.6340   78.2100 C.2   411  LAR411     -0.0258
     14  C7        17.1690   64.6830   79.0450 C.2   411  LAR411     -0.0049
     15  C8        18.2850   65.5750   79.2150 C.2   411  LAR411     -0.0049
     16  C9        18.2910   66.6640   80.0310 C.2   411  LAR411     -0.0265
     17  C10       17.1430   67.1130   80.8970 C.3   411  LAR411      0.0221
     18  C11       16.3970   68.3260   80.3660 C.3   411  LAR411      0.0068
     19  C12       15.7630   68.1810   78.9960 C.3   411  LAR411      0.0301
     20  C13       14.5490   67.2850   78.9310 C.3   411  LAR411      0.1214
     21  C14       14.0370   67.1800   77.5020 C.3   411  LAR411      0.0734
     22  C15       12.7630   66.3460   77.4040 C.3   411  LAR411      0.1766
     23  C16       11.7350   66.6430   78.4890 C.3   411  LAR411      0.1048
     24  C17       12.3040   67.0680   79.8430 C.3   411  LAR411      0.2448
     25  C18       11.3410   67.8660   80.6880 C.3   411  LAR411      0.1810
     26  C19       11.6570   67.9450   82.1670 C.3   411  LAR411      0.1042
     27  C20        9.3420   66.7310   81.5960 C.1   411  LAR411      0.1790
     28  C21       14.1170   60.4560   77.1340 C.3   411  LAR411      0.0266
     29  C22       17.7440   67.3700   82.3540 C.3   411  LAR411      0.0047
@<TRIPOS>BOND
     1     3     8    2
     2     8     9    1
     3     8     4    1
     4     9    10    2
     5    28    10    1
     6     4    22    1
     7    22    21    1
     8    22    23    1
     9    10    11    1
    10    21    20    1
    11    12    13    1
    12    12    11    1
    13    13    14    2
    14    23    24    1
    15    20    19    1
    16    20     5    1
    17    19    18    1
    18    14    15    1
    19    15    16    2
    20     5    24    1
    21    24     6    1
    22    24    25    1
    23    16    17    1
    24    18    17    1
    25     2    25    1
    26     2    27    2
    27    25    26    1
    28    17    29    1
    29    27     7    2
    30    27     1    1
    31    26     1    1
