@<TRIPOS>MOLECULE
1lcu_ATP_A_1.pdb
 31 33 0 0 0
SMALL
GASTEIGER

@<TRIPOS>ATOM
      1  PG         6.3020   70.8840   72.1430 P.3   390  ATP390      0.5373
      2  O1G        6.5530   71.5680   70.8330 O.2   390  ATP390     -0.2221
      3  O2G        6.1950   71.7850   73.2950 O.3   390  ATP390     -0.1143
      4  O3G        5.1410   69.9850   72.0310 O.3   390  ATP390     -0.1143
      5  PB         8.1230   68.7890   71.6880 P.3   390  ATP390      0.2277
      6  O1B        9.3600   68.2840   72.1330 O.3   390  ATP390     -0.4368
      7  O2B        7.5570   68.4340   70.3920 O.2   390  ATP390     -0.5168
      8  O3B        7.4940   69.9420   72.5110 O.3   390  ATP390     -0.2258
      9  PA         6.9930   66.1880   72.1540 P.3   390  ATP390      0.2189
     10  O1A        5.6130   65.9410   71.8840 O.3   390  ATP390     -0.4371
     11  O2A        8.0210   65.2070   71.8660 O.2   390  ATP390     -0.5170
     12  O3A        7.4280   67.6060   72.6300 O.3   390  ATP390     -0.2700
     13  O5'        6.5830   65.7510   73.4810 O.3   390  ATP390     -0.3112
     14  C5'        6.7330   65.4700   74.7170 C.3   390  ATP390      0.1813
     15  C4'        6.1400   65.2480   76.0320 C.3   390  ATP390      0.1821
     16  O4'        5.2870   64.0890   75.9520 O.3   390  ATP390     -0.3135
     17  C3'        7.3620   65.0040   76.8280 C.3   390  ATP390      0.2184
     18  O3'        7.7750   66.1240   77.5810 O.3   390  ATP390     -0.2174
     19  C2'        6.9880   63.7690   77.6600 C.3   390  ATP390      0.2570
     20  O2'        6.7830   64.1280   79.0110 O.3   390  ATP390     -0.2130
     21  C1'        5.7080   63.1930   77.0130 C.3   390  ATP390      0.3186
     22  N9         5.8140   61.8420   76.5350 N.pl3 390  ATP390     -0.1439
     23  C8         6.6870   61.2330   75.6310 C.3   390  ATP390      0.3377
     24  N7         6.4600   59.9570   75.4690 N.2   390  ATP390     -0.2095
     25  C5         5.3760   59.7440   76.3250 C.2   390  ATP390      0.2526
     26  C6         4.5540   58.5240   76.6900 C.2   390  ATP390      0.4393
     27  N6         4.7970   57.3250   76.1640 N.pl3 390  ATP390      0.2180
     28  N1         3.5170   58.6910   77.6090 N.2   390  ATP390      0.0021
     29  C2         3.2650   59.9070   78.1510 C.3   390  ATP390      0.5254
     30  N3         3.9290   61.0580   77.9040 N.2   390  ATP390     -0.0055
     31  C4         4.9900   60.8870   76.9630 C.2   390  ATP390      0.3518
@<TRIPOS>BOND
     1     7     5    2
     2     2     1    2
     3     5     6    1
     4     5     8    1
     5     5    12    1
     6    11     9    2
     7    10     9    1
     8     4     1    1
     9     1     8    1
    10     1     3    1
    11     9    12    1
    12     9    13    1
    13    13    14    1
    14    14    15    1
    15    24    23    1
    16    24    25    2
    17    23    22    1
    18    16    15    1
    19    16    21    1
    20    15    17    1
    21    27    26    1
    22    25    26    1
    23    25    31    1
    24    22    31    1
    25    22    21    1
    26    26    28    2
    27    17    18    1
    28    17    19    1
    29    31    30    2
    30    21    19    1
    31    28    29    1
    32    19    20    1
    33    30    29    1
