@<TRIPOS>MOLECULE
1lcv_SNR_A_1.pdb
 15 16 0 0 0
SMALL
GASTEIGER

@<TRIPOS>ATOM
      1  C1        -4.4710   35.9010   11.7430 C.1     1  SNR1        0.2386
      2  N2        -3.9740   35.3370   10.6470 N.2     1  SNR1       -0.1859
      3  C3        -4.8790   34.3120   10.1520 C.3     1  SNR1        0.1509
      4  C4        -6.0580   34.3370   11.1460 C.3     1  SNR1        0.1500
      5  N5        -5.6590   35.3770   12.0840 N.2     1  SNR1       -0.1860
      6  C6        -6.2420   32.8720   11.7170 C.3     1  SNR1        0.0729
      7  S7        -4.5360   32.2450   11.7570 S.3     1  SNR1       -0.1369
      8  C8        -4.1220   32.9400   10.1240 C.3     1  SNR1        0.0848
      9  O11       -3.9090   36.7940   12.3600 O.2     1  SNR1       -0.2023
     10  C12       -7.0510   32.7380   13.0490 C.3     1  SNR1        0.0134
     11  C13       -7.8670   31.4630   13.1630 C.3     1  SNR1        0.0127
     12  C14       -8.6490   31.3290   14.4550 C.3     1  SNR1        0.1141
     13  C15       -9.3930   30.0240   14.4000 C.2     1  SNR1        0.3649
     14  O16       -8.8030   28.9830   14.6290 O.co2   1  SNR1       -0.2457
     15  O17      -10.7040   29.9860   14.0730 O.co2   1  SNR1       -0.2457
@<TRIPOS>BOND
     1     8     3    1
     2     8     7    1
     3     3     2    1
     4     3     4    1
     5     2     1    2
     6     4     6    1
     7     4     5    1
     8     6     7    1
     9     6    10    1
    10     1     5    2
    11     1     9    2
    12    10    11    1
    13    11    12    1
    14    15    13   ar
    15    13    12    1
    16    13    14   ar
