@<TRIPOS>MOLECULE
1lcw_SHM_A_1.pdb
 17 18 0 0 0
SMALL
GASTEIGER

@<TRIPOS>ATOM
      1  C1        -4.6800   34.4140   10.1530 C.3   401  SHM401      0.1509
      2  C2        -5.9760   34.4890   10.9740 C.3   401  SHM401      0.1500
      3  N3        -5.6760   35.5660   11.9290 N.2   401  SHM401     -0.1860
      4  C4        -4.4340   36.0580   11.7320 C.1   401  SHM401      0.2386
      5  N5        -3.8070   35.4380   10.7180 N.2   401  SHM401     -0.1859
      6  C6        -6.2200   33.0800   11.6480 C.3   401  SHM401      0.0729
      7  S7        -4.5250   32.4450   11.8730 S.3   401  SHM401     -0.1369
      8  C8        -3.9850   33.0190   10.2250 C.3   401  SHM401      0.0848
      9  C9        -7.0650   33.1200   12.9570 C.3   401  SHM401      0.0128
     10  C10       -7.5050   31.7400   13.4620 C.3   401  SHM401      0.0010
     11  C11       -8.7580   31.8410   14.3420 C.3   401  SHM401      0.0006
     12  C12       -9.0070   30.5030   15.0840 C.3   401  SHM401      0.0118
     13  C13       -9.2420   29.3320   14.0840 C.3   401  SHM401      0.1141
     14  C14      -10.5690   29.4360   13.3480 C.2   401  SHM401      0.3649
     15  O15      -10.8970   28.4830   12.4410 O.co2 401  SHM401     -0.2457
     16  O16      -11.3610   30.3540   13.5390 O.co2 401  SHM401     -0.2457
     17  O17       -3.9350   36.9650   12.3990 O.2   401  SHM401     -0.2023
@<TRIPOS>BOND
     1     1     8    1
     2     1     5    1
     3     1     2    1
     4     8     7    1
     5     5     4    2
     6     2     6    1
     7     2     3    1
     8     6     7    1
     9     6     9    1
    10     4     3    2
    11     4    17    2
    12    15    14   ar
    13     9    10    1
    14    14    16   ar
    15    14    13    1
    16    10    11    1
    17    13    12    1
    18    11    12    1
