@<TRIPOS>MOLECULE
1lcz_BH7_A_1.pdb
 24 25 0 0 0
SMALL
GASTEIGER

@<TRIPOS>ATOM
      1  N1        -3.9690   35.0130   10.5890 N.2   401  BH7401     -0.1859
      2  C2        -4.9090   33.9880   10.0180 C.3   401  BH7401      0.1509
      3  C3        -6.1330   34.0800   10.9340 C.3   401  BH7401      0.1500
      4  N4        -5.7700   35.1310   11.9010 N.2   401  BH7401     -0.1860
      5  C5        -4.5170   35.6640   11.6870 C.1   401  BH7401      0.2386
      6  C6        -4.3730   32.5450   10.0010 C.3   401  BH7401      0.0848
      7  S7        -4.8770   31.8330   11.6080 S.3   401  BH7401     -0.1369
      8  C8        -6.4700   32.6760   11.6010 C.3   401  BH7401      0.0729
      9  O9        -4.0110   36.5260   12.3410 O.2   401  BH7401     -0.2023
     10  C10       -7.1560   32.7580   12.9680 C.3   401  BH7401      0.0129
     11  C11       -7.4560   31.3590   13.4820 C.3   401  BH7401      0.0014
     12  C12       -8.6980   31.3370   14.3490 C.3   401  BH7401      0.0096
     13  C13       -9.0300   29.9120   14.8390 C.3   401  BH7401      0.0868
     14  C14      -10.1140   29.1770   14.0450 C.2   401  BH7401      0.2414
     15  O15      -10.0470   27.9830   13.8510 O.2   401  BH7401     -0.2733
     16  N16      -11.1690   29.9780   13.5790 N.am  401  BH7401     -0.2054
     17  C17      -12.3730   29.4890   12.7800 C.3   401  BH7401      0.1151
     18  C18      -12.3010   29.7440   11.2380 C.3   401  BH7401      0.0234
     19  C19      -13.3210   28.8830   10.3950 C.3   401  BH7401      0.0024
     20  C20      -13.5660   27.4180   10.9420 C.3   401  BH7401      0.0119
     21  C21      -12.4130   26.4360   10.5910 C.3   401  BH7401      0.1141
     22  C22      -12.6420   25.0110   11.1250 C.2   401  BH7401      0.3649
     23  O23      -13.1850   24.0540   10.5570 O.co2 401  BH7401     -0.2457
     24  O24      -12.1520   24.8860   12.3980 O.co2 401  BH7401     -0.2457
@<TRIPOS>BOND
     1     6     2    1
     2     6     7    1
     3     2     1    1
     4     2     3    1
     5    19    20    1
     6    19    18    1
     7    23    22   ar
     8     1     5    2
     9    21    20    1
    10    21    22    1
    11     3     8    1
    12     3     4    1
    13    22    24   ar
    14    18    17    1
    15     8     7    1
    16     8    10    1
    17     5     4    2
    18     5     9    2
    19    17    16    1
    20    10    11    1
    21    11    12    1
    22    16    14   am
    23    15    14    2
    24    14    13    1
    25    12    13    1
