@<TRIPOS>MOLECULE
1ld7_FPP_B_1.pdb
 24 23 0 0 0
SMALL
GASTEIGER

@<TRIPOS>ATOM
      1  C1        24.6320  130.7850   -1.2070 C.3   1002  FPP1002     0.1747
      2  O1        24.1760  131.9900   -0.5940 O.3   1002  FPP1002    -0.3089
      3  C2        23.4650  129.9770   -1.7290 C.2   1002  FPP1002    -0.0024
      4  C3        23.1300  129.8500   -3.0530 C.2   1002  FPP1002    -0.0454
      5  C4        23.9020  130.5140   -4.1730 C.3   1002  FPP1002     0.0261
      6  C5        21.9470  129.0280   -3.5500 C.3   1002  FPP1002     0.0264
      7  C6        20.7830  128.8730   -2.5560 C.3   1002  FPP1002     0.0297
      8  C7        19.5360  128.3250   -3.2040 C.2   1002  FPP1002    -0.0342
      9  C8        18.3460  128.1430   -2.5770 C.2   1002  FPP1002    -0.0478
     10  C10       18.0940  128.4670   -1.1240 C.3   1002  FPP1002     0.0260
     11  C9        17.1370  127.5870   -3.2820 C.3   1002  FPP1002     0.0263
     12  C11       16.3970  128.5410   -4.2040 C.3   1002  FPP1002     0.0297
     13  C12       15.1880  127.8630   -4.8030 C.2   1002  FPP1002    -0.0342
     14  C13       14.3620  128.4060   -5.7120 C.2   1002  FPP1002    -0.0478
     15  C14       14.5230  129.7980   -6.2810 C.3   1002  FPP1002     0.0260
     16  C15       13.1830  127.6570   -6.2520 C.3   1002  FPP1002     0.0260
     17  PA        24.8770  132.4310    0.7700 P.3   1002  FPP1002     0.2233
     18  O1A       26.3700  132.3910    0.7020 O.2   1002  FPP1002    -0.5169
     19  O2A       24.3350  133.8430    1.0640 O.3   1002  FPP1002    -0.4370
     20  O3A       24.2970  131.5000    1.9280 O.3   1002  FPP1002    -0.2261
     21  PB        25.0120  130.4720    2.9110 P.3   1002  FPP1002     0.5373
     22  O1B       26.0960  131.1110    3.7400 O.3   1002  FPP1002    -0.1143
     23  O2B       25.5300  129.3480    1.9860 O.2   1002  FPP1002    -0.2221
     24  O3B       23.8590  129.9150    3.7860 O.3   1002  FPP1002    -0.1143
@<TRIPOS>BOND
     1    15    14    1
     2    16    14    1
     3    14    13    2
     4    13    12    1
     5    12    11    1
     6     5     4    1
     7     6     4    1
     8     6     7    1
     9    11     9    1
    10     8     9    2
    11     8     7    1
    12     4     3    2
    13     9    10    1
    14     3     1    1
    15     1     2    1
    16     2    17    1
    17    18    17    2
    18    17    19    1
    19    17    20    1
    20    20    21    1
    21    23    21    2
    22    21    22    1
    23    21    24    1
