@<TRIPOS>MOLECULE
1ld7_U66_B_1.pdb
 34 39 0 0 0
SMALL
GASTEIGER

@<TRIPOS>ATOM
      1  C         15.4840  134.7230   -3.5960 C.ar  1003  U661003     0.0167
      2  C1        15.8530  136.0910   -3.8710 C.ar  1003  U661003     0.0539
      3  C2        14.1660  134.2280   -3.9540 C.ar  1003  U661003     0.0014
      4  C3        16.3520  133.8080   -2.9790 C.ar  1003  U661003     0.0387
      5  N         17.1620  136.6060   -3.5460 N.am  1003  U661003    -0.2575
      6  C4        14.8920  136.9410   -4.4960 C.ar  1003  U661003     0.0149
      7  C5        13.7990  132.8670   -3.6870 C.ar  1003  U661003     0.0032
      8  C6        13.2420  135.1050   -4.5740 C.ar  1003  U661003     0.0001
      9  C7        16.0150  132.4470   -2.7110 C.ar  1003  U661003     0.1454
     10  C8        17.5370  137.2590   -2.3550 C.2   1003  U661003     0.2452
     11  C9        18.2950  136.4860   -4.4480 C.3   1003  U661003     0.1002
     12  C10       13.6000  136.4490   -4.8400 C.ar  1003  U661003     0.0013
     13  C11       14.7260  131.9730   -3.0710 C.ar  1003  U661003     0.0375
     14  O         16.9350  131.5260   -2.1370 O.3   1003  U661003    -0.4528
     15  C12       19.0690  137.4730   -2.3930 C.3   1003  U661003     0.1509
     16  O13       16.8270  137.5100   -1.4000 O.2   1003  U661003    -0.2730
     17  C14       19.4870  136.4930   -3.5110 C.3   1003  U661003     0.0486
     18  C15       18.3230  131.8620   -2.1810 C.ar  1003  U661003     0.1545
     19  N16       19.7250  137.1780   -1.0840 N.3   1003  U661003    -0.2098
     20  C17       19.1080  132.0530   -3.3940 C.ar  1003  U661003     0.1028
     21  C18       18.9550  132.0180   -0.9140 C.ar  1003  U661003     0.0358
     22  C19       19.4420  135.8650   -0.4440 C.3   1003  U661003     0.0955
     23  C20       20.4770  132.4050   -3.2740 C.ar  1003  U661003     0.0131
     24  C21       18.5190  131.8940   -4.7040 C.1   1003  U661003     0.1035
     25  C22       20.3430  132.3640   -0.8160 C.ar  1003  U661003     0.0035
     26  C23       20.2050  135.6780    0.8550 C.3   1003  U661003     0.0642
     27  C24       21.0850  132.5610   -2.0050 C.ar  1003  U661003    -0.0015
     28  N25       17.9820  131.7600   -5.7230 N.1   1003  U661003    -0.1907
     29  C26       21.0630  132.5310    0.5020 C.3   1003  U661003     0.1341
     30  C27       19.8860  134.4810    1.6960 C.ar  1003  U661003     0.0593
     31  N28       20.2520  133.1600    1.5410 N.ar  1003  U661003    -0.3082
     32  C29       19.1280  134.4720    2.8420 C.ar  1003  U661003     0.1134
     33  C30       19.7040  132.4560    2.5870 C.ar  1003  U661003     0.1786
     34  NZ        19.0090  133.2280    3.4020 N.ar  1003  U661003    -0.2227
@<TRIPOS>BOND
     1    28    24    3
     2    12     8   ar
     3    12     6   ar
     4    24    20    1
     5     8     3   ar
     6     6     2   ar
     7    11     5    1
     8    11    17    1
     9     3     7   ar
    10     3     1   ar
    11     2     1   ar
    12     2     5    1
    13     7    13   ar
    14     1     4   ar
    15     5    10   am
    16    17    15    1
    17    20    23   ar
    18    20    18   ar
    19    23    27   ar
    20    13     9   ar
    21     4     9   ar
    22     9    14    1
    23    15    10    1
    24    15    19    1
    25    10    16    2
    26    18    14    1
    27    18    21   ar
    28    27    25   ar
    29    19    22    1
    30    21    25   ar
    31    25    29    1
    32    22    26    1
    33    29    31    1
    34    26    30    1
    35    31    30   ar
    36    31    33   ar
    37    30    32   ar
    38    33    34   ar
    39    32    34   ar
