@<TRIPOS>MOLECULE
1ld8_U49_B_1.pdb
 33 38 0 0 0
SMALL
GASTEIGER

@<TRIPOS>ATOM
      1  C1        15.2930  134.4200   -3.0620 C.ar  1003  U491003     0.0167
      2  C2        15.5770  135.8030   -2.8820 C.ar  1003  U491003     0.0542
      3  C3        14.1870  134.0060   -3.8990 C.ar  1003  U491003     0.0014
      4  C4        16.0620  133.4170   -2.4560 C.ar  1003  U491003     0.0387
      5  N5        16.6910  136.1060   -2.0350 N.am  1003  U491003    -0.2538
      6  C6        14.7570  136.7860   -3.5420 C.ar  1003  U491003     0.0149
      7  C7        13.9130  132.6170   -4.0660 C.ar  1003  U491003     0.0032
      8  C8        13.3880  134.9980   -4.5460 C.ar  1003  U491003     0.0001
      9  C9        15.8180  132.0450   -2.6250 C.ar  1003  U491003     0.1454
     10  C10       17.9770  136.5960   -2.5700 C.3   1003  U491003     0.1050
     11  C11       16.6730  136.1110   -0.6310 C.2   1003  U491003     0.2660
     12  C12       13.6750  136.3790   -4.3680 C.ar  1003  U491003     0.0013
     13  C13       14.7230  131.6340   -3.4280 C.ar  1003  U491003     0.0375
     14  O14       16.7140  131.0540   -2.1320 O.3   1003  U491003    -0.4528
     15  C15       18.6690  137.2660   -1.3740 C.3   1003  U491003     0.0720
     16  C17       18.0900  136.3700   -0.2800 C.2   1003  U491003     0.1095
     17  C18       18.0930  131.4400   -2.1740 C.ar  1003  U491003     0.1545
     18  C20       18.8310  131.6820   -3.3830 C.ar  1003  U491003     0.1028
     19  C21       18.7330  131.5860   -0.9240 C.ar  1003  U491003     0.0358
     20  C22       19.6380  135.0250    0.7280 C.3   1003  U491003     0.1702
     21  C23       20.1920  132.0750   -3.3000 C.ar  1003  U491003     0.0131
     22  C24       18.1740  131.5160   -4.6580 C.1   1003  U491003     0.1035
     23  C25       20.1070  131.9730   -0.8300 C.ar  1003  U491003     0.0035
     24  C26       19.4460  133.9210    1.7070 C.ar  1003  U491003     0.0826
     25  C27       20.8310  132.2230   -2.0320 C.ar  1003  U491003    -0.0015
     26  N28       17.5810  131.3730   -5.6270 N.1   1003  U491003    -0.1907
     27  C29       20.8290  132.1280    0.5050 C.3   1003  U491003     0.1341
     28  N30       19.9820  132.6550    1.5820 N.ar  1003  U491003    -0.3065
     29  C31       18.7520  133.8810    2.8980 C.ar  1003  U491003     0.1153
     30  C32       19.5970  131.9410    2.6740 C.ar  1003  U491003     0.1786
     31  N33       18.8490  132.6640    3.4890 N.ar  1003  U491003    -0.2226
     32  O39       15.7570  135.9660    0.1240 O.2   1003  U491003    -0.2683
     33  N54       18.6780  136.0770    0.9670 N.2   1003  U491003    -0.2637
@<TRIPOS>BOND
     1    26    22    3
     2    22    18    1
     3     8    12   ar
     4     8     3   ar
     5    12     6   ar
     6     7     3   ar
     7     7    13   ar
     8     3     1   ar
     9     6     2   ar
    10    13     9   ar
    11    18    21   ar
    12    18    17   ar
    13    21    25   ar
    14     1     2   ar
    15     1     4   ar
    16     2     5    1
    17     9     4   ar
    18     9    14    1
    19    10     5    1
    20    10    15    1
    21    17    14    1
    22    17    19   ar
    23     5    11   am
    24    25    23   ar
    25    15    16    1
    26    19    23   ar
    27    23    27    1
    28    11    16    1
    29    11    32    2
    30    16    33    2
    31    27    28    1
    32    20    33    1
    33    20    24    1
    34    28    24   ar
    35    28    30   ar
    36    24    29   ar
    37    30    31   ar
    38    29    31   ar
