@<TRIPOS>MOLECULE
1ld8_FPP_B_1.pdb
 24 23 0 0 0
SMALL
GASTEIGER

@<TRIPOS>ATOM
      1  C1        24.5420  130.4300   -1.2230 C.3   1002  FPP1002     0.1747
      2  O1        24.0650  131.5930   -0.5570 O.3   1002  FPP1002    -0.3089
      3  C2        23.3940  129.5620   -1.6990 C.2   1002  FPP1002    -0.0024
      4  C3        23.0070  129.4350   -3.0030 C.2   1002  FPP1002    -0.0454
      5  C4        23.6910  130.1550   -4.1400 C.3   1002  FPP1002     0.0261
      6  C5        21.8580  128.5620   -3.4680 C.3   1002  FPP1002     0.0264
      7  C6        20.6720  128.4220   -2.5040 C.3   1002  FPP1002     0.0297
      8  C7        19.4540  127.8560   -3.1940 C.2   1002  FPP1002    -0.0342
      9  C8        18.2450  127.6610   -2.6110 C.2   1002  FPP1002    -0.0478
     10  C10       17.9430  127.9850   -1.1670 C.3   1002  FPP1002     0.0260
     11  C9        17.0670  127.0870   -3.3610 C.3   1002  FPP1002     0.0263
     12  C11       16.2950  128.0760   -4.2290 C.3   1002  FPP1002     0.0297
     13  C12       15.0290  127.4500   -4.7740 C.2   1002  FPP1002    -0.0342
     14  C13       14.2630  127.9610   -5.7630 C.2   1002  FPP1002    -0.0478
     15  C14       14.5580  129.2520   -6.4790 C.3   1002  FPP1002     0.0260
     16  C15       13.0180  127.2740   -6.2460 C.3   1002  FPP1002     0.0260
     17  PA        24.7740  131.9970    0.8140 P.3   1002  FPP1002     0.2233
     18  O1A       26.2700  131.9330    0.7560 O.2   1002  FPP1002    -0.5169
     19  O2A       24.2590  133.4060    1.1420 O.3   1002  FPP1002    -0.4370
     20  O3A       24.1810  131.0680    1.9560 O.3   1002  FPP1002    -0.2261
     21  PB        24.9120  130.1010    2.9730 P.3   1002  FPP1002     0.5373
     22  O1B       26.0000  130.7820    3.7510 O.3   1002  FPP1002    -0.1143
     23  O2B       25.4250  128.9420    2.0870 O.2   1002  FPP1002    -0.2221
     24  O3B       23.7730  129.5750    3.8830 O.3   1002  FPP1002    -0.1143
@<TRIPOS>BOND
     1    15    14    1
     2    16    14    1
     3    14    13    2
     4    13    12    1
     5    12    11    1
     6     5     4    1
     7     6     4    1
     8     6     7    1
     9    11     9    1
    10     8     9    2
    11     8     7    1
    12     4     3    2
    13     9    10    1
    14     3     1    1
    15     1     2    1
    16     2    17    1
    17    18    17    2
    18    17    19    1
    19    17    20    1
    20    20    21    1
    21    23    21    2
    22    21    22    1
    23    21    24    1
