@<TRIPOS>MOLECULE
1ldc_HEM_A_1.pdb
 47 54 0 0 0
SMALL
GASTEIGER

@<TRIPOS>ATOM
      1  CHA       69.4610   45.2110    8.5690 C.2   560  HEM560      0.0000
      2  CHB       74.1170   44.3130    9.4390 C.2   560  HEM560      0.0000
      3  CHC       72.8180   40.6710   12.1890 C.2   560  HEM560      0.0000
      4  CHD       68.3940   40.9820   10.4930 C.2   560  HEM560      0.0000
      5  C1A       70.8530   45.2980    8.5690 C.ar  560  HEM560      0.0000
      6  C2A       71.6760   46.2640    7.8350 C.ar  560  HEM560      0.0000
      7  C3A       72.9610   46.0840    8.2070 C.ar  560  HEM560      0.0000
      8  C4A       72.9610   44.9380    9.0590 C.ar  560  HEM560      0.0000
      9  CMA       74.1480   46.9950    7.9310 C.3   560  HEM560      0.0000
     10  CAA       70.5180   47.1620    7.0240 C.2   560  HEM560      0.0000
     11  CBA       69.5270   48.0440    7.8440 C.2   560  HEM560      0.0000
     12  CGA       68.3170   48.6990    7.1580 C.2   560  HEM560      0.0000
     13  O1A       68.0860   49.8920    7.3780 O.co2 560  HEM560      0.0000
     14  O2A       67.6190   48.0150    6.4160 O.co2 560  HEM560      0.0000
     15  C1B       74.1420   43.1760   10.1800 C.2   560  HEM560      0.0000
     16  C2B       75.3390   42.6450   10.7460 C.2   560  HEM560      0.0000
     17  C3B       74.9700   41.7070   11.6300 C.2   560  HEM560      0.0000
     18  C4B       73.5340   41.6330   11.5610 C.2   560  HEM560      0.0000
     19  CMB       76.7610   43.0490   10.4210 C.3   560  HEM560      0.0000
     20  CAB       75.8020   41.0220   12.5000 C.3   560  HEM560      0.0000
     21  CBB       75.9990   39.5840   12.4450 C.3   560  HEM560      0.0000
     22  C1C       71.5200   40.4390   11.9660 C.ar  560  HEM560      0.0000
     23  C2C       70.8590   39.2860   12.4690 C.ar  560  HEM560      0.0000
     24  C3C       69.6020   39.3260   11.9770 C.ar  560  HEM560      0.0000
     25  C4C       69.5290   40.5200   11.1480 C.ar  560  HEM560      0.0000
     26  CMC       71.4810   38.2420   13.3870 C.3   560  HEM560      0.0000
     27  CAC       68.5660   38.4640   12.2750 C.3   560  HEM560      0.0000
     28  CBC       67.6000   38.8190   13.2870 C.3   560  HEM560      0.0000
     29  C1D       68.2770   42.1650    9.8090 C.2   560  HEM560      0.0000
     30  C2D       67.0740   42.6180    9.2000 C.2   560  HEM560      0.0000
     31  C3D       67.3020   43.9050    8.8200 C.2   560  HEM560      0.0000
     32  C4D       68.7110   44.1660    9.0890 C.2   560  HEM560      0.0000
     33  CMD       65.8530   41.7510    8.9160 C.3   560  HEM560      0.0000
     34  CAD       66.2640   44.8530    8.2190 C.3   560  HEM560      0.0000
     35  CBD       65.0810   45.2790    9.1200 C.3   560  HEM560      0.0000
     36  CGD       63.7570   45.4270    8.3550 C.2   560  HEM560      0.0000
     37  O1D       63.0560   44.4320    8.1800 O.co2 560  HEM560      0.0000
     38  O2D       63.4020   46.5250    7.9050 O.co2 560  HEM560      0.0000
     39  NA        71.6690   44.4510    9.2750 N.ar  560  HEM560      0.0000
     40  NB        73.0190   42.5380   10.6670 N.2   560  HEM560      0.0000
     41  NC        70.7200   41.1920   11.1540 N.ar  560  HEM560      0.0000
     42  ND        69.2810   43.0810    9.6900 N.2   560  HEM560      0.0000
     43 FE         71.1300   42.8310   10.1900 Fe    560  HEM560      0.0000
     44  HHB       75.0690   44.7440    9.1270 H     560  HEM560      0.0000
     45  HHC       73.3220   40.0570   12.9360 H     560  HEM560      0.0000
     46  HHD       67.5070   40.3530   10.5510 H     560  HEM560      0.0000
     47  HHA       68.9140   46.0360    8.1110 H     560  HEM560      0.0000
@<TRIPOS>BOND
     1    14    12   ar
     2    10     6    1
     3    10    11    2
     4    12    13   ar
     5    12    11    1
     6     6     7   ar
     7     6     5   ar
     8    38    36   ar
     9     9     7    1
    10    47     1    1
    11    37    36   ar
    12     7     8   ar
    13    34    31    1
    14    34    35    1
    15    36    35    1
    16     1     5    2
    17     1    32    1
    18     5    39   ar
    19    31    32    1
    20    31    30    2
    21    33    30    1
    22     8    39   ar
    23     8     2    2
    24    32    42    2
    25    44     2    1
    26    30    29    1
    27    39    43    1
    28     2    15    1
    29    42    29    1
    30    42    43    1
    31    29     4    2
    32    15    40    2
    33    15    16    1
    34    43    40    1
    35    43    41    1
    36    19    16    1
    37     4    46    1
    38     4    25    1
    39    40    18    1
    40    16    17    2
    41    25    41   ar
    42    25    24   ar
    43    41    22   ar
    44    18    17    1
    45    18     3    2
    46    17    20    1
    47    22     3    1
    48    22    23   ar
    49    24    27    1
    50    24    23   ar
    51     3    45    1
    52    27    28    1
    53    21    20    1
    54    23    26    1
