@<TRIPOS>MOLECULE
1ldc_FMN_A_1.pdb
 35 37 0 0 0
SMALL
GASTEIGER

@<TRIPOS>ATOM
      1  N1        69.4410   57.3960    1.9620 N.2   570  FMN570     -0.3028
      2  C2        70.7990   57.2210    2.1690 C.1   570  FMN570      0.2727
      3  O2        71.6250   58.1510    2.2290 O.2   570  FMN570     -0.1927
      4  N3        71.1270   55.9310    2.3640 N.am  570  FMN570     -0.1956
      5  C4        70.2140   54.9230    2.4000 C.2   570  FMN570      0.2930
      6  O4        70.6530   53.7820    2.5650 O.2   570  FMN570     -0.2661
      7  C4A       68.8520   55.2970    2.2070 C.2   570  FMN570      0.2295
      8  N5        67.9580   54.2770    2.3830 N.2   570  FMN570     -0.3956
      9  C5A       66.6750   54.4710    1.9210 C.2   570  FMN570      0.1312
     10  C6        65.7670   53.4770    2.0930 C.2   570  FMN570      0.0250
     11  C7        64.5860   53.6010    1.4190 C.2   570  FMN570     -0.0238
     12  C7M       63.7740   52.3510    1.3030 C.3   570  FMN570      0.0308
     13  C8        64.2360   54.7790    0.7570 C.2   570  FMN570     -0.0280
     14  C8M       62.8880   55.1630    0.2740 C.3   570  FMN570      0.0304
     15  C9        65.0740   55.7880    0.7260 C.2   570  FMN570     -0.0041
     16  C9A       66.3120   55.6380    1.2590 C.3   570  FMN570      0.1497
     17  N10       67.1890   56.6940    1.1580 N.pl3 570  FMN570     -0.2698
     18  C10       68.4560   56.5030    1.7340 C.2   570  FMN570      0.2325
     19  C1'       66.6900   57.8880    0.7390 C.3   570  FMN570      0.1256
     20  C2'       67.4430   58.5750   -0.4040 C.3   570  FMN570      0.1594
     21  O2'       68.2390   57.8770   -1.2430 O.3   570  FMN570     -0.3801
     22  C3'       66.7350   59.4020   -1.3260 C.3   570  FMN570      0.1681
     23  O3'       66.9190   60.7200   -0.9510 O.3   570  FMN570     -0.3795
     24  C4'       65.4060   59.0820   -1.9170 C.3   570  FMN570      0.1698
     25  O4'       64.6780   58.1180   -1.2790 O.3   570  FMN570     -0.3794
     26  C5'       64.6560   60.3320   -2.2480 C.3   570  FMN570      0.1854
     27  O5'       63.2760   60.2430   -2.0490 O.3   570  FMN570     -0.2676
     28  P         62.2010   59.6470   -3.0190 P.3   570  FMN570      0.5327
     29  O1P       62.3230   58.1820   -2.7030 O.3   570  FMN570     -0.1145
     30  O2P       62.7300   60.0010   -4.3700 O.2   570  FMN570     -0.2224
     31  O3P       60.9470   60.3380   -2.6340 O.3   570  FMN570     -0.1145
     32  HN3       72.0870   55.7330    2.6030 H     570  FMN570      0.1693
     33 HO2'       68.3330   57.0220   -0.8270 H     570  FMN570      0.2105
     34 HO3'       67.8130   60.7680   -0.5950 H     570  FMN570      0.2105
     35 HO4'       65.1940   57.3070   -1.2820 H     570  FMN570      0.2105
@<TRIPOS>BOND
     1    30    28    2
     2    28    29    1
     3    28    31    1
     4    28    27    1
     5    26    27    1
     6    26    24    1
     7    24    22    1
     8    24    25    1
     9    22    23    1
    10    22    20    1
    11    35    25    1
    12    21    33    1
    13    21    20    1
    14    23    34    1
    15    20    19    1
    16    14    13    1
    17    15    13    2
    18    15    16    1
    19    19    17    1
    20    13    11    1
    21    17    16    1
    22    17    18    1
    23    16     9    1
    24    12    11    1
    25    11    10    2
    26    18     1    2
    27    18     7    1
    28     9    10    1
    29     9     8    2
    30     1     2    2
    31     2     3    2
    32     2     4   am
    33     7     8    2
    34     7     5    1
    35     4     5   am
    36     4    32    1
    37     5     6    2
