@<TRIPOS>MOLECULE
1ldg_NAD_A_1.pdb
 44 48 0 0 0
SMALL
GASTEIGER

@<TRIPOS>ATOM
      1  PA        34.7880   27.6270   38.0220 P.3   401  NAD401      0.2189
      2  O1A       35.6190   27.1870   39.1740 O.3   401  NAD401     -0.4371
      3  O2A       34.5360   29.0690   37.7820 O.2   401  NAD401     -0.5170
      4  O5B       35.3870   26.9560   36.7080 O.3   401  NAD401     -0.3112
      5  C5B       34.9190   27.2260   35.3790 C.3   401  NAD401      0.1813
      6  C4B       36.1440   27.3930   34.4690 C.3   401  NAD401      0.1821
      7  O4B       35.7080   27.5670   33.1180 O.3   401  NAD401     -0.3135
      8  C3B       37.0030   28.6300   34.7930 C.3   401  NAD401      0.2184
      9  O3B       38.3490   28.2380   35.1230 O.3   401  NAD401     -0.2174
     10  C2B       36.9400   29.4860   33.5250 C.3   401  NAD401      0.2570
     11  O2B       38.1920   30.1670   33.3360 O.3   401  NAD401     -0.2130
     12  C1B       36.6690   28.4060   32.4960 C.3   401  NAD401      0.3186
     13  N9A       36.2780   28.8080   31.1330 N.pl3 401  NAD401     -0.1439
     14  C8A       35.5370   29.8450   30.6940 C.3   401  NAD401      0.3377
     15  N7A       35.4210   29.8040   29.3540 N.2   401  NAD401     -0.2095
     16  C5A       36.1070   28.7190   28.9990 C.2   401  NAD401      0.2526
     17  C6A       36.1530   28.1270   27.7300 C.2   401  NAD401      0.4393
     18  N6A       35.7910   28.7600   26.6090 N.pl3 401  NAD401      0.2180
     19  N1A       36.7610   26.9180   27.6450 N.2   401  NAD401      0.0021
     20  C2A       37.3230   26.3510   28.7120 C.3   401  NAD401      0.5254
     21  N3A       37.3050   26.9300   29.9120 N.2   401  NAD401     -0.0055
     22  C4A       36.6720   28.0990   30.0820 C.2   401  NAD401      0.3518
     23  O3        33.4050   26.8220   38.1600 O.3   401  NAD401     -0.2703
     24  PN        32.9950   25.3590   38.6870 P.3   401  NAD401      0.2189
     25  O1N       32.7280   25.4510   40.1630 O.3   401  NAD401     -0.4371
     26  O2N       33.9840   24.3950   38.2350 O.2   401  NAD401     -0.5170
     27  O5D       31.5730   25.1140   37.9350 O.3   401  NAD401     -0.3112
     28  C5D       31.5140   25.0930   36.4950 C.3   401  NAD401      0.1813
     29  C4D       30.1020   25.0720   35.9160 C.3   401  NAD401      0.1799
     30  O4D       29.4650   23.8800   36.4230 O.3   401  NAD401     -0.3327
     31  C3D       29.2560   26.2860   36.3350 C.3   401  NAD401      0.2158
     32  O3D       28.3780   26.8040   35.3190 O.3   401  NAD401     -0.2175
     33  C2D       28.4280   25.7150   37.4700 C.3   401  NAD401      0.2309
     34  O2D       27.2080   26.4560   37.6120 O.3   401  NAD401     -0.2158
     35  C1D       28.1950   24.3150   36.9300 C.3   401  NAD401      0.2263
     36  N1N       27.6450   23.3440   37.9070 N.pl3 401  NAD401     -0.2787
     37  C2N       26.6650   22.4590   37.4460 C.3   401  NAD401      0.1244
     38  C3N       26.2240   21.3870   38.2140 C.2   401  NAD401      0.0544
     39  C7N       25.2600   20.3500   37.6020 C.2   401  NAD401      0.2818
     40  O7N       24.7640   19.4690   38.3170 O.2   401  NAD401     -0.2670
     41  N7N       25.0760   20.4000   36.2770 N.am  401  NAD401     -0.0839
     42  C4N       26.8050   21.1980   39.4860 C.2   401  NAD401      0.0033
     43  C5N       27.7610   22.1080   39.9800 C.2   401  NAD401      0.0157
     44  C6N       28.1760   23.1890   39.2020 C.2   401  NAD401      0.0633
@<TRIPOS>BOND
     1    18    17    1
     2    19    17    2
     3    19    20    1
     4    17    16    1
     5    20    21    1
     6    16    15    2
     7    16    22    1
     8    15    14    1
     9    21    22    2
    10    22    13    1
    11    14    13    1
    12    13    12    1
    13    12     7    1
    14    12    10    1
    15     7     6    1
    16    11    10    1
    17    10     8    1
    18     6     8    1
    19     6     5    1
    20     8     9    1
    21    32    31    1
    22     5     4    1
    23    29    31    1
    24    29    30    1
    25    29    28    1
    26    41    39   am
    27    31    33    1
    28    30    35    1
    29    28    27    1
    30     4     1    1
    31    35    33    1
    32    35    36    1
    33    37    36    1
    34    37    38    1
    35    33    34    1
    36    39    38    1
    37    39    40    2
    38     3     1    2
    39    36    44    1
    40    27    24    1
    41     1    23    1
    42     1     2    1
    43    23    24    1
    44    38    42    2
    45    26    24    2
    46    24    25    1
    47    44    43    2
    48    42    43    1
