@<TRIPOS>MOLECULE
1ldm_NAD_A_1.pdb
 44 48 0 0 0
SMALL
GASTEIGER

@<TRIPOS>ATOM
      1  PA         5.1340   28.0610    8.2500 P.3   330  NAD330      0.2189
      2  O1A        4.8410   29.4150    7.8400 O.3   330  NAD330     -0.4371
      3  O2A        4.0620   27.2190    7.7080 O.2   330  NAD330     -0.5170
      4  O5B        4.9180   28.1070    9.8310 O.3   330  NAD330     -0.3112
      5  C5B        4.4610   26.8430   10.4720 C.3   330  NAD330      0.1813
      6  C4B        3.4340   26.9750   11.4960 C.3   330  NAD330      0.1821
      7  O4B        3.8680   26.9340   12.8590 O.3   330  NAD330     -0.3135
      8  C3B        2.1760   27.8090   11.4320 C.3   330  NAD330      0.2184
      9  O3B        1.0090   26.9510   11.4520 O.3   330  NAD330     -0.2174
     10  C2B        2.2310   28.5960   12.7520 C.3   330  NAD330      0.2570
     11  O2B        0.9400   29.0000   13.1850 O.3   330  NAD330     -0.2130
     12  C1B        2.9100   27.5500   13.6460 C.3   330  NAD330      0.3186
     13  N9A        3.3780   28.0260   14.9330 N.pl3 330  NAD330     -0.1439
     14  C8A        3.9760   29.2000   15.3110 C.3   330  NAD330      0.3377
     15  N7A        4.1340   29.2980   16.6240 N.2   330  NAD330     -0.2095
     16  C5A        3.4590   28.2100   17.1430 C.2   330  NAD330      0.2526
     17  C6A        3.2270   27.7540   18.4510 C.2   330  NAD330      0.4393
     18  N6A        3.5910   28.3910   19.5580 N.pl3 330  NAD330      0.2180
     19  N1A        2.6140   26.5310   18.5940 N.2   330  NAD330      0.0021
     20  C2A        2.2960   25.8460   17.4730 C.3   330  NAD330      0.5254
     21  N3A        2.4380   26.1800   16.2350 N.2   330  NAD330     -0.0055
     22  C4A        3.0020   27.3910   16.1260 C.2   330  NAD330      0.3518
     23  O3         6.4900   27.3040    7.9750 O.3   330  NAD330     -0.2703
     24  PN         6.8950   25.9470    7.2680 P.3   330  NAD330      0.2189
     25  O1N        7.2300   26.1560    5.8700 O.2   330  NAD330     -0.5170
     26  O2N        5.8380   24.9440    7.3730 O.3   330  NAD330     -0.4371
     27  O5D        8.1700   25.4790    8.0960 O.3   330  NAD330     -0.3112
     28  C5D        7.9510   25.1830    9.4910 C.3   330  NAD330      0.1813
     29  C4D        9.3380   24.8090    9.9950 C.3   330  NAD330      0.1799
     30  O4D        9.8080   23.6830    9.2160 O.3   330  NAD330     -0.3327
     31  C3D       10.3410   25.9790    9.7390 C.3   330  NAD330      0.2158
     32  O3D       11.1810   25.9600   10.9010 O.3   330  NAD330     -0.2175
     33  C2D       11.1620   25.4570    8.5660 C.3   330  NAD330      0.2309
     34  O2D       12.4800   26.0680    8.5660 O.3   330  NAD330     -0.2158
     35  C1D       11.1550   23.9870    8.8480 C.3   330  NAD330      0.2263
     36  N1N       11.5450   23.0670    7.8070 N.pl3 330  NAD330     -0.2787
     37  C2N       12.3990   22.0820    8.1790 C.3   330  NAD330      0.1244
     38  C3N       12.8820   21.2180    7.2340 C.2   330  NAD330      0.0544
     39  C7N       13.8480   20.0350    7.5710 C.2   330  NAD330      0.2818
     40  O7N       14.1290   19.2420    6.6670 O.2   330  NAD330     -0.2670
     41  N7N       14.3420   20.0620    8.8170 N.am  330  NAD330     -0.0839
     42  C4N       12.4550   21.1960    5.8840 C.2   330  NAD330      0.0033
     43  C5N       11.6130   22.2840    5.6010 C.2   330  NAD330      0.0157
     44  C6N       11.0740   23.1640    6.4670 C.2   330  NAD330      0.0633
@<TRIPOS>BOND
     1    43    42    1
     2    43    44    2
     3    25    24    2
     4    42    38    2
     5    44    36    1
     6    40    39    2
     7    38    39    1
     8    38    37    1
     9    24    26    1
    10    24    23    1
    11    24    27    1
    12    39    41   am
    13     3     1    2
    14    36    37    1
    15    36    35    1
    16     2     1    1
    17    23     1    1
    18    27    28    1
    19     1     4    1
    20    34    33    1
    21    33    35    1
    22    33    31    1
    23    35    30    1
    24    30    29    1
    25    28    29    1
    26    31    29    1
    27    31    32    1
    28     4     5    1
    29     5     6    1
    30     8     9    1
    31     8     6    1
    32     8    10    1
    33     6     7    1
    34    10    11    1
    35    10    12    1
    36     7    12    1
    37    12    13    1
    38    13    14    1
    39    13    22    1
    40    14    15    1
    41    22    21    2
    42    22    16    1
    43    21    20    1
    44    15    16    2
    45    16    17    1
    46    20    19    1
    47    17    19    2
    48    17    18    1
