@<TRIPOS>MOLECULE
1ldn_FBP_A_1.pdb
 20 20 0 0 0
SMALL
GASTEIGER

@<TRIPOS>ATOM
      1  P1        21.1720  -17.2670    7.0370 P.3   353  FBP353      0.5328
      2  O1P       21.6230  -18.1190    5.9090 O.2   353  FBP353     -0.2224
      3  O2P       21.7280  -17.5140    8.3830 O.3   353  FBP353     -0.1145
      4  O3P       19.6090  -17.3580    7.1650 O.3   353  FBP353     -0.1145
      5  O1        21.4540  -15.7730    6.5680 O.3   353  FBP353     -0.2648
      6  C1        21.5260  -14.6450    7.5040 C.3   353  FBP353      0.2152
      7  C2        21.5920  -13.4030    6.6180 C.3   353  FBP353      0.2780
      8  O2        22.6990  -13.4880    5.7720 O.3   353  FBP353     -0.1897
      9  C3        21.6480  -12.0700    7.3850 C.3   353  FBP353      0.2408
     10  O3        22.9790  -11.7990    7.7770 O.3   353  FBP353     -0.2149
     11  C4        21.0450  -11.0810    6.3710 C.3   353  FBP353      0.2167
     12  O4        20.4580   -9.9390    6.9960 O.3   353  FBP353     -0.2175
     13  C5        19.9690  -11.9390    5.6800 C.3   353  FBP353      0.1808
     14  O5        20.3730  -13.3170    5.8660 O.3   353  FBP353     -0.3255
     15  C6        19.8610  -11.6490    4.2130 C.3   353  FBP353      0.1859
     16  O6        18.7560  -12.4160    3.5500 O.3   353  FBP353     -0.2675
     17  P2        18.0020  -12.1790    2.1340 P.3   353  FBP353      0.5327
     18  O4P       18.6660  -13.0810    1.1040 O.2   353  FBP353     -0.2224
     19  O5P       18.1040  -10.7140    1.7850 O.3   353  FBP353     -0.1145
     20  O6P       16.5730  -12.5720    2.4780 O.3   353  FBP353     -0.1145
@<TRIPOS>BOND
     1    18    17    2
     2    19    17    1
     3    17    20    1
     4    17    16    1
     5    16    15    1
     6    15    13    1
     7    13    14    1
     8    13    11    1
     9     8     7    1
    10    14     7    1
    11     2     1    2
    12    11    12    1
    13    11     9    1
    14     5     1    1
    15     5     6    1
    16     7     9    1
    17     7     6    1
    18     1     4    1
    19     1     3    1
    20     9    10    1
