@<TRIPOS>MOLECULE
1ldn_NAD_A_1.pdb
 44 48 0 0 0
SMALL
GASTEIGER

@<TRIPOS>ATOM
      1  PA         6.5010   15.6540    4.1520 P.3   352  NAD352      0.2189
      2  O1A        6.6820   15.6420    5.6320 O.3   352  NAD352     -0.4371
      3  O2A        5.4450   16.6260    3.7800 O.2   352  NAD352     -0.5170
      4  O5B        7.8800   15.9390    3.4070 O.3   352  NAD352     -0.3112
      5  C5B        7.9910   16.1820    1.9580 C.3   352  NAD352      0.1813
      6  C4B        8.8690   17.4080    1.7950 C.3   352  NAD352      0.1821
      7  O4B        9.0450   17.7590    0.3970 O.3   352  NAD352     -0.3135
      8  C3B        8.3240   18.6670    2.4920 C.3   352  NAD352      0.2184
      9  O3B        9.2660   19.1740    3.4450 O.3   352  NAD352     -0.2174
     10  C2B        8.1480   19.6930    1.3720 C.3   352  NAD352      0.2570
     11  O2B        8.4960   20.9960    1.8230 O.3   352  NAD352     -0.2130
     12  C1B        9.1560   19.1910    0.3440 C.3   352  NAD352      0.3186
     13  N9A        8.9880   19.5950   -1.0520 N.pl3 352  NAD352     -0.1439
     14  C8A        7.8870   19.6350   -1.8600 C.3   352  NAD352      0.3377
     15  N7A        8.1460   20.0240   -3.1190 N.2   352  NAD352     -0.2095
     16  C5A        9.5120   20.2300   -3.1020 C.2   352  NAD352      0.2526
     17  C6A       10.4040   20.6620   -4.1070 C.2   352  NAD352      0.4393
     18  N6A       10.0450   20.9700   -5.3580 N.pl3 352  NAD352      0.2180
     19  N1A       11.7090   20.7770   -3.7380 N.2   352  NAD352      0.0021
     20  C2A       12.0940   20.4880   -2.4490 C.3   352  NAD352      0.5254
     21  N3A       11.3470   20.0930   -1.4610 N.2   352  NAD352     -0.0055
     22  C4A       10.0510   19.9820   -1.8500 C.2   352  NAD352      0.3518
     23  O3         6.1890   14.1950    3.5370 O.3   352  NAD352     -0.2703
     24  PN         6.7720   12.7560    3.9350 P.3   352  NAD352      0.2189
     25  O1N        5.6760   12.0390    4.6430 O.2   352  NAD352     -0.5170
     26  O2N        8.0110   12.8760    4.7400 O.3   352  NAD352     -0.4371
     27  O5D        7.1380   12.1170    2.5550 O.3   352  NAD352     -0.3112
     28  C5D        7.1160   12.4310    1.1880 C.3   352  NAD352      0.1813
     29  C4D        6.7250   11.1710    0.4430 C.3   352  NAD352      0.1799
     30  O4D        7.1400    9.9660    1.1520 O.3   352  NAD352     -0.3327
     31  C3D        5.2050   11.0210    0.2260 C.3   352  NAD352      0.2158
     32  O3D        5.0010   11.3100   -1.1490 O.3   352  NAD352     -0.2175
     33  C2D        4.9050    9.6040    0.7270 C.3   352  NAD352      0.2309
     34  O2D        3.8680    8.9460    0.0010 O.3   352  NAD352     -0.2158
     35  C1D        6.2680    8.9300    0.6690 C.3   352  NAD352      0.2263
     36  N1N        6.4390    7.8230    1.5810 N.pl3 352  NAD352     -0.2787
     37  C2N        6.9960    6.8270    0.8330 C.3   352  NAD352      0.1244
     38  C3N        7.2760    5.6090    1.3970 C.2   352  NAD352      0.0544
     39  C7N        7.9040    4.4450    0.5700 C.2   352  NAD352      0.2818
     40  O7N        7.7670    3.2830    0.9340 O.2   352  NAD352     -0.2670
     41  N7N        8.4000    4.8470   -0.6150 N.am  352  NAD352     -0.0839
     42  C4N        7.0400    5.3070    2.7610 C.2   352  NAD352      0.0033
     43  C5N        6.4640    6.3890    3.4380 C.2   352  NAD352      0.0157
     44  C6N        6.1400    7.6290    2.9490 C.2   352  NAD352      0.0633
@<TRIPOS>BOND
     1    18    17    1
     2    17    19    2
     3    17    16    1
     4    19    20    1
     5    15    16    2
     6    15    14    1
     7    16    22    1
     8    20    21    1
     9    14    13    1
    10    22    21    2
    11    22    13    1
    12    32    31    1
    13    13    12    1
    14    41    39   am
    15    34    33    1
    16    31    29    1
    17    31    33    1
    18    12     7    1
    19    12    10    1
    20     7     6    1
    21    29    30    1
    22    29    28    1
    23    39    40    2
    24    39    38    1
    25    35    33    1
    26    35    30    1
    27    35    36    1
    28    37    38    1
    29    37    36    1
    30    28    27    1
    31    10    11    1
    32    10     8    1
    33    38    42    2
    34    36    44    1
    35     6     5    1
    36     6     8    1
    37     5     4    1
    38     8     9    1
    39    27    24    1
    40    42    43    1
    41    44    43    2
    42     4     1    1
    43    23    24    1
    44    23     1    1
    45     3     1    2
    46    24    25    2
    47    24    26    1
    48     1     2    1
