@<TRIPOS>MOLECULE
1ldo_SNR_A_1.pdb
 15 16 0 0 0
SMALL
GASTEIGER

@<TRIPOS>ATOM
      1  C1        -0.0450   26.5210   22.3220 C.1   150  SNR150      0.2386
      2  N2         0.1330   27.5040   21.4180 N.2   150  SNR150     -0.1859
      3  C3         0.0720   28.7910   22.0720 C.3   150  SNR150      0.1509
      4  C4        -0.1840   28.4710   23.5700 C.3   150  SNR150      0.1500
      5  N5        -0.2260   27.0090   23.5750 N.2   150  SNR150     -0.1860
      6  C6        -1.5420   29.2210   23.9930 C.3   150  SNR150      0.0729
      7  S7        -2.5170   29.3820   22.4530 S.3   150  SNR150     -0.1369
      8  C8        -1.0400   29.6840   21.4210 C.3   150  SNR150      0.0848
      9  O11       -0.0390   25.3280   22.0350 O.2   150  SNR150     -0.2023
     10  C12       -2.3310   28.5580   25.1350 C.3   150  SNR150      0.0134
     11  C13       -3.5200   29.3940   25.5560 C.3   150  SNR150      0.0127
     12  C14       -4.0620   28.9910   26.8910 C.3   150  SNR150      0.1141
     13  C15       -3.3900   29.7900   27.9760 C.2   150  SNR150      0.3649
     14  O16       -2.5330   30.6340   27.7670 O.co2 150  SNR150     -0.2457
     15  O17       -3.6730   29.5980   28.8290 O.co2 150  SNR150     -0.2457
@<TRIPOS>BOND
     1     2     3    1
     2     2     1    2
     3     8     3    1
     4     8     7    1
     5     9     1    2
     6     3     4    1
     7     1     5    2
     8     7     6    1
     9     4     5    1
    10     4     6    1
    11     6    10    1
    12    10    11    1
    13    11    12    1
    14    12    13    1
    15    14    13   ar
    16    13    15   ar
