@<TRIPOS>MOLECULE
1ldq_SHM_A_1.pdb
 17 18 0 0 0
SMALL
GASTEIGER

@<TRIPOS>ATOM
      1  C1        -0.2120   29.1130   22.1410 C.3   402  SHM402      0.1509
      2  C2        -0.3840   28.6520   23.6060 C.3   402  SHM402      0.1500
      3  N3        -0.3230   27.1880   23.4820 N.2   402  SHM402     -0.1860
      4  C4        -0.1430   26.8160   22.1780 C.1   402  SHM402      0.2386
      5  N5        -0.0730   27.8970   21.3590 N.2   402  SHM402     -0.1859
      6  C6        -1.7690   29.2430   24.1770 C.3   402  SHM402      0.0729
      7  S7        -2.7690   29.4290   22.6530 S.3   402  SHM402     -0.1369
      8  C8        -1.3830   29.9890   21.6120 C.3   402  SHM402      0.0848
      9  C9        -2.4300   28.4050   25.3630 C.3   402  SHM402      0.0128
     10  C10       -3.7640   28.9360   25.9780 C.3   402  SHM402      0.0010
     11  C11       -3.5390   30.2670   26.7090 C.3   402  SHM402      0.0006
     12  C12       -4.0560   30.2290   28.1460 C.3   402  SHM402      0.0118
     13  C13       -3.7530   31.6050   28.8080 C.3   402  SHM402      0.1141
     14  C14       -2.2660   31.7100   29.2520 C.2   402  SHM402      0.3649
     15  O15       -1.4850   32.7560   28.8090 O.co2 402  SHM402     -0.2457
     16  O16       -1.7380   30.8610   30.0060 O.co2 402  SHM402     -0.2457
     17  O17       -0.0540   25.6280   21.7910 O.2   402  SHM402     -0.2023
@<TRIPOS>BOND
     1     5     1    1
     2     5     4    2
     3     8     1    1
     4     8     7    1
     5    17     4    2
     6     1     2    1
     7     4     3    2
     8     7     6    1
     9     3     2    1
    10     2     6    1
    11     6     9    1
    12     9    10    1
    13    10    11    1
    14    11    12    1
    15    12    13    1
    16    13    14    1
    17    15    14   ar
    18    14    16   ar
