@<TRIPOS>MOLECULE
1lec_FUC_A_1.pdb
 10 10 0 0 0
SMALL
GASTEIGER

@<TRIPOS>ATOM
      1  C1        23.0450   35.7490   30.5920 C.3   262  FUC262      0.1776
      2  C2        24.0170   35.6370   31.7160 C.3   262  FUC262      0.2141
      3  C3        23.3810   34.9970   32.9060 C.3   262  FUC262      0.2172
      4  C4        22.5710   33.7060   32.5940 C.3   262  FUC262      0.2116
      5  C5        21.5960   34.0210   31.4520 C.3   262  FUC262      0.1483
      6  C6        20.8340   32.8150   30.9540 C.3   262  FUC262      0.0349
      7  O2        24.5180   36.9150   32.1110 O.3   262  FUC262     -0.2176
      8  O3        24.4580   34.6430   33.7590 O.3   262  FUC262     -0.2175
      9  O4        23.4020   32.5880   32.2730 O.3   262  FUC262     -0.2177
     10  O5        22.2920   34.5560   30.3420 O.3   262  FUC262     -0.3508
@<TRIPOS>BOND
     1    10     1    1
     2    10     5    1
     3     1     2    1
     4     6     5    1
     5     5     4    1
     6     2     7    1
     7     2     3    1
     8     9     4    1
     9     4     3    1
    10     3     8    1
