@<TRIPOS>MOLECULE
1led_GAL_A_1.pdb
 11 11 0 0 0
SMALL
GASTEIGER

@<TRIPOS>ATOM
      1  C1        31.5770   13.9110   29.8640 C.3   253  GAL253      0.1777
      2  C2        30.5580   14.5900   28.9560 C.3   253  GAL253      0.2141
      3  C3        31.0770   14.6580   27.4880 C.3   253  GAL253      0.2173
      4  C4        32.5030   15.2890   27.4410 C.3   253  GAL253      0.2142
      5  C5        33.4260   14.4620   28.3510 C.3   253  GAL253      0.1810
      6  C6        34.8570   15.0840   28.3570 C.3   253  GAL253      0.2141
      7  O2        29.3120   13.8450   28.9750 O.3   253  GAL253     -0.2176
      8  O3        30.1780   15.4450   26.6980 O.3   253  GAL253     -0.2175
      9  O4        32.4970   16.6670   27.8360 O.3   253  GAL253     -0.2176
     10  O5        32.8630   14.4910   29.6810 O.3   253  GAL253     -0.3481
     11  O6        35.7920   14.2610   29.0420 O.3   253  GAL253     -0.2176
@<TRIPOS>BOND
     1     8     3    1
     2     4     3    1
     3     4     9    1
     4     4     5    1
     5     3     2    1
     6     5     6    1
     7     5    10    1
     8     6    11    1
     9     2     7    1
    10     2     1    1
    11    10     1    1
