@<TRIPOS>MOLECULE
1led_FUC_A_1.pdb
 10 10 0 0 0
SMALL
GASTEIGER

@<TRIPOS>ATOM
      1  C1        28.1030   14.5710   29.0300 C.3   252  FUC252      0.1776
      2  C2        26.8880   13.6120   28.7350 C.3   252  FUC252      0.2141
      3  C3        26.6130   12.7170   29.9810 C.3   252  FUC252      0.2172
      4  C4        26.5860   13.5590   31.3030 C.3   252  FUC252      0.2116
      5  C5        27.9590   14.3310   31.4170 C.3   252  FUC252      0.1483
      6  C6        28.1590   15.1250   32.6850 C.3   252  FUC252      0.0349
      7  O2        27.1450   12.8010   27.5340 O.3   252  FUC252     -0.2176
      8  O3        25.3510   12.0800   29.8090 O.3   252  FUC252     -0.2175
      9  O4        25.4620   14.4480   31.3830 O.3   252  FUC252     -0.2177
     10  O5        28.0870   15.2460   30.2830 O.3   252  FUC252     -0.3508
@<TRIPOS>BOND
     1     7     2    1
     2     2     1    1
     3     2     3    1
     4     1    10    1
     5     8     3    1
     6     3     4    1
     7    10     5    1
     8     4     9    1
     9     4     5    1
    10     5     6    1
