@<TRIPOS>MOLECULE
1lee_R36_A_1.pdb
 39 41 0 0 0
SMALL
GASTEIGER

@<TRIPOS>ATOM
      1  C         34.0950   28.4740    9.2510 C.ar  500  R36500      0.0118
      2  C8        34.3440   29.6540    9.9610 C.ar  500  R36500      0.1312
      3  C9        35.6700   30.1450   10.0000 C.ar  500  R36500      0.0118
      4  C10       36.6900   29.4490    9.3450 C.ar  500  R36500     -0.0013
      5  C13       36.4230   28.2950    8.6650 C.ar  500  R36500     -0.0004
      6  C14       35.1390   27.8040    8.6050 C.ar  500  R36500     -0.0013
      7  C3        35.9920   31.4460   10.7050 C.3   500  R36500      0.0342
      8  C2        32.6900   27.9160    9.1680 C.3   500  R36500      0.0342
      9  C16       30.4620   37.4970   14.5320 C.ar  500  R36500      0.0564
     10  C26       30.7470   37.5550   15.9060 C.ar  500  R36500      0.0047
     11  C27       30.0500   38.4330   16.7780 C.ar  500  R36500      0.0015
     12  C28       29.0720   39.2520   16.2910 C.ar  500  R36500      0.0181
     13  C29       28.7540   39.2260   14.9240 C.ar  500  R36500      0.0892
     14  N1        27.7520   40.1680   14.4100 N.pl3 500  R36500     -0.1281
     15  C30       29.4480   38.3490   14.0450 C.ar  500  R36500      0.0226
     16  O1        33.2710   30.3040   10.5940 O.3   500  R36500     -0.4662
     17  C34       32.6720   31.4260    9.9720 C.3   500  R36500      0.2911
     18  C25       31.7060   32.2430   10.8660 C.2   500  R36500      0.2859
     19  O26       31.1210   33.2530   10.4300 O.2   500  R36500     -0.2693
     20  N16       31.5320   31.8190   12.1100 N.am  500  R36500     -0.2011
     21  C15       31.3210   32.5830   14.4250 C.3   500  R36500      0.1738
     22  O14       31.7040   31.2640   14.7950 O.3   500  R36500     -0.2212
     23  C12       32.6210   33.3030   14.3480 C.3   500  R36500      0.0563
     24  C4        32.6670   34.6160   13.6150 C.3   500  R36500      0.0982
     25  C5        34.1190   35.0760   13.4250 C.3   500  R36500      0.0218
     26  C6        35.0790   35.4250   14.5750 C.3   500  R36500      0.0017
     27  C11       36.2080   36.2070   13.9820 C.3   500  R36500      0.0001
     28  C7        35.6630   34.2190   15.2620 C.3   500  R36500      0.0001
     29  N3        31.8270   35.6120   14.2900 N.am  500  R36500     -0.2033
     30  C1        31.2110   36.6220   13.6800 C.2   500  R36500      0.2648
     31  O2        31.2920   36.8030   12.4580 O.2   500  R36500     -0.2684
     32  C17       30.6620   32.5180   13.0290 C.3   500  R36500      0.1300
     33  C18       29.3410   31.7830   13.1450 C.3   500  R36500      0.0506
     34  C19       28.7250   31.4120   11.8400 C.ar  500  R36500     -0.0204
     35  C20       27.9860   32.3400   11.1150 C.ar  500  R36500     -0.0042
     36  C21       27.3330   31.9690    9.9180 C.ar  500  R36500     -0.0003
     37  C22       27.4310   30.6580    9.4380 C.ar  500  R36500     -0.0000
     38  C23       28.1760   29.7200   10.1440 C.ar  500  R36500     -0.0003
     39  C24       28.8270   30.1130   11.3640 C.ar  500  R36500     -0.0042
@<TRIPOS>BOND
     1     6     5   ar
     2     6     1   ar
     3     5     4   ar
     4     8     1    1
     5     1     2   ar
     6     4     3   ar
     7    37    36   ar
     8    37    38   ar
     9    36    35   ar
    10     2     3   ar
    11     2    16    1
    12    17    16    1
    13    17    18    1
    14     3     7    1
    15    38    39   ar
    16    19    18    2
    17    18    20   am
    18    35    34   ar
    19    39    34   ar
    20    34    33    1
    21    20    32    1
    22    31    30    2
    23    32    33    1
    24    32    21    1
    25    25    24    1
    26    25    26    1
    27    24    29    1
    28    24    23    1
    29    30    29   am
    30    30     9    1
    31    27    26    1
    32    15     9   ar
    33    15    13   ar
    34    23    21    1
    35    14    13    1
    36    21    22    1
    37     9    10   ar
    38    26    28    1
    39    13    12   ar
    40    10    11   ar
    41    12    11   ar
