@<TRIPOS>MOLECULE
1leg_FUC_A_1.pdb
 10 10 0 0 0
SMALL
GASTEIGER

@<TRIPOS>ATOM
      1  C1        60.9530   54.8560   18.7730 C.3   953  FUC953      0.1776
      2  C2        59.5250   54.2780   18.7100 C.3   953  FUC953      0.2141
      3  C3        58.4630   55.2430   19.1880 C.3   953  FUC953      0.2172
      4  C4        58.6520   56.5950   18.5260 C.3   953  FUC953      0.2116
      5  C5        60.0540   57.0950   18.8650 C.3   953  FUC953      0.1483
      6  C6        60.3280   58.4770   18.3030 C.3   953  FUC953      0.0349
      7  O2        59.4410   53.1180   19.5090 O.3   953  FUC953     -0.2176
      8  O3        57.1940   54.7140   18.8540 O.3   953  FUC953     -0.2175
      9  O4        58.4990   56.4710   17.1150 O.3   953  FUC953     -0.2177
     10  O5        61.0310   56.2050   18.3060 O.3   953  FUC953     -0.3508
@<TRIPOS>BOND
     1     9     4    1
     2     6     5    1
     3    10     1    1
     4    10     5    1
     5     4     5    1
     6     4     3    1
     7     2     1    1
     8     2     3    1
     9     2     7    1
    10     8     3    1
