@<TRIPOS>MOLECULE
1lek_FUC_A_1.pdb
 10 10 0 0 0
SMALL
GASTEIGER

@<TRIPOS>ATOM
      1  C1        60.5440   55.0030   19.1670 C.3   953  FUC953      0.1776
      2  C2        59.6700   54.5110   20.3200 C.3   953  FUC953      0.2141
      3  C3        58.4330   53.8210   19.7430 C.3   953  FUC953      0.2172
      4  C4        57.9850   54.4880   18.4250 C.3   953  FUC953      0.2116
      5  C5        58.4540   55.9610   18.3360 C.3   953  FUC953      0.1483
      6  C6        58.0860   56.6120   17.0170 C.3   953  FUC953      0.0349
      7  O2        59.2780   55.6160   21.1290 O.3   953  FUC953     -0.2176
      8  O3        58.7300   52.4490   19.5110 O.3   953  FUC953     -0.2175
      9  O4        58.4830   53.7510   17.3160 O.3   953  FUC953     -0.2177
     10  O5        59.9000   56.0820   18.4810 O.3   953  FUC953     -0.3508
@<TRIPOS>BOND
     1     6     5    1
     2     9     4    1
     3     5     4    1
     4     5    10    1
     5     4     3    1
     6    10     1    1
     7     1     2    1
     8     8     3    1
     9     3     2    1
    10     2     7    1
