@<TRIPOS>MOLECULE
1lel_BH7_A_1.pdb
 24 25 0 0 0
SMALL
GASTEIGER

@<TRIPOS>ATOM
      1  N1        23.5120   42.8100    7.3800 N.2   402  BH7402     -0.1859
      2  C2        24.7120   42.6060    6.5430 C.3   402  BH7402      0.1509
      3  C3        24.1290   42.5060    5.0280 C.3   402  BH7402      0.1500
      4  N4        22.6480   42.6620    5.1840 N.2   402  BH7402     -0.1860
      5  C5        22.2720   42.8420    6.5300 C.1   402  BH7402      0.2386
      6  C6        25.4990   41.2480    6.8070 C.3   402  BH7402      0.0848
      7  S7        24.4990   40.0070    5.8540 S.3   402  BH7402     -0.1369
      8  C8        24.5400   41.1300    4.4050 C.3   402  BH7402      0.0729
      9  O9        21.1040   42.9950    6.8880 O.2   402  BH7402     -0.2023
     10  C10       23.7730   40.7020    3.1180 C.3   402  BH7402      0.0129
     11  C11       24.1840   39.2860    2.6430 C.3   402  BH7402      0.0014
     12  C12       24.0390   38.9540    1.1230 C.3   402  BH7402      0.0096
     13  C13       24.8200   37.6500    0.7270 C.3   402  BH7402      0.0868
     14  C14       26.0440   37.7620   -0.2660 C.2   402  BH7402      0.2414
     15  O15       26.6950   36.7770   -0.6510 O.2   402  BH7402     -0.2733
     16  N16       26.3520   39.0960   -0.7020 N.am  402  BH7402     -0.2054
     17  C17       27.4890   39.5560   -1.6540 C.3   402  BH7402      0.1155
     18  C18       27.0280   40.6120   -2.7320 C.3   402  BH7402      0.0281
     19  C19       27.8560   40.5440   -4.0830 C.3   402  BH7402      0.0281
     20  C20       29.3910   40.4070   -3.7600 C.2   402  BH7402     -0.0193
     21  C21       30.2170   41.7360   -3.4390 C.2   402  BH7402      0.0816
     22  C22       31.7860   41.6150   -3.3450 C.2   402  BH7402      0.3876
     23  O23       32.6430   42.4960   -3.7500 O.co2 402  BH7402     -0.2406
     24  O24       32.2020   40.3860   -2.7420 O.co2 402  BH7402     -0.2406
@<TRIPOS>BOND
     1    19    20    1
     2    19    18    1
     3    20    21    2
     4    23    22   ar
     5    21    22    1
     6    22    24   ar
     7    18    17    1
     8    17    16    1
     9    16    14   am
    10    15    14    2
    11    14    13    1
    12    13    12    1
    13    12    11    1
    14    11    10    1
    15    10     8    1
    16     8     3    1
    17     8     7    1
    18     3     4    1
    19     3     2    1
    20     4     5    2
    21     7     6    1
    22     5     9    2
    23     5     1    2
    24     2     6    1
    25     2     1    1
