@<TRIPOS>MOLECULE
1lem_GLC_A_1.pdb
 12 12 0 0 0
SMALL
GASTEIGER

@<TRIPOS>ATOM
      1  C1        21.5880   16.2670   29.7130 C.3   248  GLC248      0.3024
      2  C2        21.5620   14.7910   29.2050 C.3   248  GLC248      0.2434
      3  C3        22.9120   14.0540   29.5730 C.3   248  GLC248      0.2199
      4  C4        24.0940   14.8340   29.0000 C.3   248  GLC248      0.2144
      5  C5        24.1460   16.2410   29.5880 C.3   248  GLC248      0.1836
      6  C6        25.3160   17.1690   28.9890 C.3   248  GLC248      0.2142
      7  O1        21.4620   16.1690   31.1660 O.3   248  GLC248     -0.1869
      8  O2        20.5120   14.1170   29.8900 O.3   248  GLC248     -0.2148
      9  O3        22.9670   12.6820   29.1590 O.3   248  GLC248     -0.2174
     10  O4        25.2580   14.1280   29.3220 O.3   248  GLC248     -0.2176
     11  O5        22.8590   16.8830   29.3370 O.3   248  GLC248     -0.3236
     12  O6        24.9680   17.9650   27.8540 O.3   248  GLC248     -0.2176
@<TRIPOS>BOND
     1    12     6    1
     2     6     5    1
     3     4    10    1
     4     4     3    1
     5     4     5    1
     6     9     3    1
     7     2     3    1
     8     2     1    1
     9     2     8    1
    10    11     5    1
    11    11     1    1
    12     1     7    1
