@<TRIPOS>MOLECULE
1les_FRU_A_1.pdb
 11 11 0 0 0
SMALL
GASTEIGER

@<TRIPOS>ATOM
      1  C1        -6.5120   36.2480   25.4480 C.3   206  FRU206      0.2141
      2  C2        -5.3590   36.3650   24.4550 C.3   206  FRU206      0.1810
      3  C3        -4.3750   37.2950   25.0390 C.3   206  FRU206      0.2141
      4  C4        -3.6320   37.6010   23.7460 C.3   206  FRU206      0.2141
      5  C5        -4.6840   37.9090   22.7920 C.3   206  FRU206      0.1810
      6  C6        -4.0720   37.6400   21.4680 C.3   206  FRU206      0.2141
      7  O1        -7.2490   37.4900   25.5180 O.3   206  FRU206     -0.2176
      8  O3        -3.4350   36.6610   25.8510 O.3   206  FRU206     -0.2176
      9  O4        -2.8100   38.7760   23.8790 O.3   206  FRU206     -0.2176
     10  O5        -5.7200   37.0280   23.2150 O.3   206  FRU206     -0.3480
     11  O6        -5.0130   38.0660   20.5250 O.3   206  FRU206     -0.2176
@<TRIPOS>BOND
     1    11     6    1
     2     6     5    1
     3     5    10    1
     4     5     4    1
     5    10     2    1
     6     4     9    1
     7     4     3    1
     8     2     3    1
     9     2     1    1
    10     3     8    1
    11     1     7    1
