@<TRIPOS>MOLECULE
1les_GLC_A_1.pdb
 12 12 0 0 0
SMALL
GASTEIGER

@<TRIPOS>ATOM
      1  C1        -5.5070   34.1230   23.3740 C.3   205  GLC205      0.3024
      2  C2        -5.2490   32.7280   24.0320 C.3   205  GLC205      0.2434
      3  C3        -3.8220   32.4110   24.0400 C.3   205  GLC205      0.2199
      4  C4        -3.3470   32.3550   22.6350 C.3   205  GLC205      0.2144
      5  C5        -3.5890   33.7090   21.8580 C.3   205  GLC205      0.1836
      6  C6        -3.1660   33.6070   20.3810 C.3   205  GLC205      0.2142
      7  O1        -4.6960   35.0630   24.1030 O.3   205  GLC205     -0.1869
      8  O2        -5.6860   32.7880   25.3460 O.3   205  GLC205     -0.2148
      9  O3        -3.5550   31.0890   24.6790 O.3   205  GLC205     -0.2174
     10  O4        -1.9410   32.0990   22.7400 O.3   205  GLC205     -0.2176
     11  O5        -5.0080   33.9670   22.0500 O.3   205  GLC205     -0.3236
     12  O6        -4.0620   32.8290   19.7090 O.3   205  GLC205     -0.2176
@<TRIPOS>BOND
     1    12     6    1
     2     6     5    1
     3     5    11    1
     4     5     4    1
     5    11     1    1
     6     4    10    1
     7     4     3    1
     8     1     2    1
     9     1     7    1
    10     2     3    1
    11     2     8    1
    12     3     9    1
