@<TRIPOS>MOLECULE
1lev_CLI_A_1.pdb
 19 20 0 0 0
SMALL
GASTEIGER

@<TRIPOS>ATOM
      1  O19        9.3360  -33.7580    6.1590 O.co2 342  CLI342     -0.2456
      2  C16        8.2580  -33.1600    5.9410 C.2   342  CLI342      0.3652
      3  O18        7.1440  -33.7300    6.4420 O.co2 342  CLI342     -0.2456
      4  C12        8.0980  -31.8580    5.1190 C.3   342  CLI342      0.1188
      5  C6         9.0700  -30.7220    5.3160 C.3   342  CLI342      0.0411
      6  C2         8.5720  -29.4500    4.6720 C.2   342  CLI342      0.0178
      7  C1         9.3440  -28.2070    4.5300 C.ar  342  CLI342      0.0389
      8  C5         7.3840  -29.1950    4.1100 C.2   342  CLI342      0.2068
      9  C11        6.1790  -30.0400    3.9150 C.2   342  CLI342      0.4165
     10  O14        6.0600  -31.2790    4.3500 O.co2 342  CLI342     -0.2377
     11  O15        5.2050  -29.5040    3.3860 O.co2 342  CLI342     -0.2377
     12  N7         7.3230  -27.9130    3.6460 N.2   342  CLI342     -0.3955
     13  C3         8.5290  -27.2690    3.8940 C.ar  342  CLI342      0.1331
     14  C8         8.9300  -25.9420    3.6580 C.ar  342  CLI342      0.0435
     15  C13       10.2190  -25.5980    4.0380 C.ar  342  CLI342      0.0611
     16 CL17       10.7770  -23.9810    3.7890 Cl    342  CLI342     -0.0821
     17  C9        11.0700  -26.5120    4.7050 C.ar  342  CLI342      0.0229
     18  C4        10.6110  -27.8050    4.9540 C.ar  342  CLI342      0.0607
     19 CL10       11.6120  -28.9760    5.7510 Cl    342  CLI342     -0.0821
@<TRIPOS>BOND
     1    11     9   ar
     2    12    13    2
     3    12     8    2
     4    14    13   ar
     5    14    15   ar
     6    16    15    1
     7    13     7   ar
     8     9     8    1
     9     9    10   ar
    10    15    17   ar
    11     8     6    1
    12     7     6    2
    13     7    18   ar
    14     6     5    1
    15    17    18   ar
    16    18    19    1
    17     4     5    1
    18     4     2    1
    19     2     1   ar
    20     2     3   ar
