@<TRIPOS>MOLECULE
1lev_F6P_A_1.pdb
 16 16 0 0 0
SMALL
GASTEIGER

@<TRIPOS>ATOM
      1  O1        12.8290   -9.9870   25.7630 O.3   338  F6P338     -0.2148
      2  C1        12.3540   -8.7500   25.4590 C.3   338  F6P338      0.2434
      3  C2        13.5500   -7.9050   25.1720 C.3   338  F6P338      0.2807
      4  O2        12.9150   -6.7270   24.6380 O.3   338  F6P338     -0.1896
      5  C3        14.4750   -8.4780   24.0600 C.3   338  F6P338      0.2409
      6  O3        13.9790   -8.2230   22.7640 O.3   338  F6P338     -0.2149
      7  C4        15.7280   -7.7590   24.3070 C.3   338  F6P338      0.2167
      8  O4        16.8110   -8.4100   23.7140 O.3   338  F6P338     -0.2175
      9  C5        15.7540   -7.6970   25.8570 C.3   338  F6P338      0.1808
     10  O5        14.3910   -7.7960   26.3070 O.3   338  F6P338     -0.3254
     11  C6        16.4180   -6.4490   26.3750 C.3   338  F6P338      0.1859
     12  O6        16.3790   -6.4890   27.8310 O.3   338  F6P338     -0.2675
     13  P         17.2260   -5.4280   28.6450 P.3   338  F6P338      0.5327
     14  O1P       17.5180   -6.2100   29.9350 O.3   338  F6P338     -0.1145
     15  O2P       18.5860   -5.1020   27.9440 O.2   338  F6P338     -0.2224
     16  O3P       16.4900   -4.2060   28.7440 O.3   338  F6P338     -0.1145
@<TRIPOS>BOND
     1     6     5    1
     2     8     7    1
     3     5     7    1
     4     5     3    1
     5     7     9    1
     6     4     3    1
     7     3     2    1
     8     3    10    1
     9     2     1    1
    10     9    10    1
    11     9    11    1
    12    11    12    1
    13    12    13    1
    14    15    13    2
    15    13    16    1
    16    13    14    1
