@<TRIPOS>MOLECULE
1lf0_GNP_A_1.pdb
 32 34 0 0 0
SMALL
GASTEIGER

@<TRIPOS>ATOM
      1  PG       -27.8460   75.3180   22.4610 P.3   167  GNP167      0.4884
      2  O1G      -28.7100   74.2610   23.1420 O.3   167  GNP167     -0.1240
      3  O2G      -28.6300   76.0840   21.3790 O.2   167  GNP167     -0.2331
      4  O3G      -26.4300   75.0250   22.2080 O.3   167  GNP167     -0.1240
      5  N3B      -27.7430   76.4420   23.6220 N.3   167  GNP167     -0.0163
      6  PB       -26.9560   76.3390   25.0380 P.3   167  GNP167      0.4669
      7  O1B      -27.7400   75.4010   25.9490 O.3   167  GNP167     -0.1253
      8  O2B      -25.5640   75.8730   24.7360 O.2   167  GNP167     -0.2351
      9  O3A      -27.0090   77.8140   25.5350 O.3   167  GNP167     -0.2360
     10  PA       -25.7140   78.8270   25.6230 P.3   167  GNP167      0.2220
     11  O1A      -24.6560   78.3090   26.5420 O.3   167  GNP167     -0.4370
     12  O2A      -25.3570   79.2090   24.2620 O.2   167  GNP167     -0.5170
     13  O5'      -26.4410   80.0530   26.3790 O.3   167  GNP167     -0.3111
     14  C5'      -27.5700   80.7490   25.7820 C.3   167  GNP167      0.1813
     15  C4'      -27.6760   82.1530   26.3880 C.3   167  GNP167      0.1799
     16  O4'      -27.8700   82.0570   27.7990 O.3   167  GNP167     -0.3326
     17  C3'      -26.4210   83.0100   26.1930 C.3   167  GNP167      0.2158
     18  O3'      -26.8180   84.3220   25.8380 O.3   167  GNP167     -0.2175
     19  C2'      -25.6850   82.9630   27.5450 C.3   167  GNP167      0.2310
     20  O2'      -24.8650   84.1050   27.8340 O.3   167  GNP167     -0.2158
     21  C1'      -26.8570   82.7880   28.4960 C.3   167  GNP167      0.2293
     22  N9       -26.4850   82.0240   29.6760 N.pl3 167  GNP167     -0.2354
     23  C8       -25.9820   80.7490   29.7920 C.3   167  GNP167      0.2246
     24  N7       -25.7410   80.3600   31.0030 N.2   167  GNP167     -0.2322
     25  C5       -26.1140   81.4560   31.7630 C.2   167  GNP167      0.2182
     26  C6       -26.0770   81.6470   33.1990 C.1   167  GNP167      0.2372
     27  O6       -25.6930   80.8470   34.0540 O.2   167  GNP167     -0.2069
     28  N1       -26.5490   82.9230   33.5810 N.2   167  GNP167     -0.2485
     29  C2       -27.0100   83.9180   32.6980 C.1   167  GNP167      0.2531
     30  N2       -27.4200   85.0730   33.2420 N.pl3 167  GNP167     -0.0226
     31  N3       -27.0430   83.7390   31.3570 N.2   167  GNP167     -0.3074
     32  C4       -26.5820   82.4910   30.9630 C.2   167  GNP167      0.2300
@<TRIPOS>BOND
     1     3     1    2
     2     4     1    1
     3     1     2    1
     4     1     5    1
     5     5     6    1
     6    12    10    2
     7     8     6    2
     8     6     9    1
     9     6     7    1
    10     9    10    1
    11    10    13    1
    12    10    11    1
    13    14    13    1
    14    14    15    1
    15    18    17    1
    16    17    15    1
    17    17    19    1
    18    15    16    1
    19    19    20    1
    20    19    21    1
    21    16    21    1
    22    21    22    1
    23    22    23    1
    24    22    32    1
    25    23    24    1
    26    32    31    2
    27    32    25    1
    28    24    25    2
    29    31    29    2
    30    25    26    1
    31    29    30    1
    32    29    28    2
    33    26    28    2
    34    26    27    2
