@<TRIPOS>MOLECULE
1lf2_R37_A_1.pdb
 39 41 0 0 0
SMALL
GASTEIGER

@<TRIPOS>ATOM
      1  C         34.1440   28.6370    9.3600 C.ar  330  R37330      0.0118
      2  C8        34.4550   29.8420    9.9500 C.ar  330  R37330      0.1312
      3  C9        35.7770   30.3190    9.8970 C.ar  330  R37330      0.0118
      4  C10       36.7600   29.5670    9.2490 C.ar  330  R37330     -0.0013
      5  C13       36.4420   28.3600    8.6640 C.ar  330  R37330     -0.0004
      6  C14       35.1420   27.8940    8.7150 C.ar  330  R37330     -0.0013
      7  C3        36.1130   31.6830   10.4710 C.3   330  R37330      0.0342
      8  C2        32.7130   28.1320    9.4040 C.3   330  R37330      0.0342
      9  C16       30.5510   37.7260   14.5130 C.ar  330  R37330      0.0551
     10  C26       30.8790   37.9050   15.8680 C.ar  330  R37330      0.0059
     11  C27       30.2110   38.8700   16.6540 C.ar  330  R37330      0.0182
     12  C28       29.2110   39.6630   16.0890 C.ar  330  R37330      0.0891
     13  C29       28.8810   39.4870   14.7410 C.ar  330  R37330      0.0182
     14  N1        28.5020   40.7120   16.9060 N.pl3 330  R37330     -0.1281
     15  C30       29.5450   38.5360   13.9670 C.ar  330  R37330      0.0059
     16  O1        33.3890   30.5060   10.5520 O.3   330  R37330     -0.4662
     17  C34       32.6180   31.4240    9.8390 C.3   330  R37330      0.2911
     18  C25       31.8510   32.3740   10.7840 C.2   330  R37330      0.2859
     19  O26       31.3740   33.4380   10.3640 O.2   330  R37330     -0.2693
     20  N16       31.7520   31.9970   12.0620 N.am  330  R37330     -0.2011
     21  C15       31.4780   32.7950   14.4050 C.3   330  R37330      0.1738
     22  O14       31.7720   31.5180   14.9670 O.3   330  R37330     -0.2212
     23  C12       32.8010   33.4970   14.2870 C.3   330  R37330      0.0563
     24  C4        32.8490   34.9690   13.9220 C.3   330  R37330      0.0982
     25  C5        34.0810   35.7040   14.4990 C.3   330  R37330      0.0218
     26  C6        35.4800   35.0900   14.3640 C.3   330  R37330      0.0017
     27  C11       35.7850   34.9700   12.8550 C.3   330  R37330      0.0001
     28  C7        36.4740   36.0300   14.9950 C.3   330  R37330      0.0001
     29  N3        31.6080   35.6450   14.3040 N.am  330  R37330     -0.2033
     30  C1        31.2080   36.7690   13.7090 C.2   330  R37330      0.2647
     31  O2        31.3480   36.9550   12.4870 O.2   330  R37330     -0.2684
     32  C17       30.8170   32.5980   12.9980 C.3   330  R37330      0.1300
     33  C18       29.5810   31.6840   13.1110 C.3   330  R37330      0.0506
     34  C19       28.9220   31.3680   11.7820 C.ar  330  R37330     -0.0204
     35  C20       28.1970   32.3300   11.1050 C.ar  330  R37330     -0.0042
     36  C21       27.5980   32.0270    9.8720 C.ar  330  R37330     -0.0003
     37  C22       27.7320   30.7570    9.3070 C.ar  330  R37330     -0.0000
     38  C23       28.4590   29.7790    9.9750 C.ar  330  R37330     -0.0003
     39  C24       29.0460   30.0930   11.2140 C.ar  330  R37330     -0.0042
@<TRIPOS>BOND
     1     5     6   ar
     2     5     4   ar
     3     6     1   ar
     4     4     3   ar
     5    37    36   ar
     6    37    38   ar
     7     1     8    1
     8     1     2   ar
     9    17    16    1
    10    17    18    1
    11    36    35   ar
    12     3     2   ar
    13     3     7    1
    14     2    16    1
    15    38    39   ar
    16    19    18    2
    17    18    20   am
    18    35    34   ar
    19    39    34   ar
    20    34    33    1
    21    20    32    1
    22    31    30    2
    23    27    26    1
    24    32    33    1
    25    32    21    1
    26    30    29   am
    27    30     9    1
    28    24    23    1
    29    24    29    1
    30    24    25    1
    31    15     9   ar
    32    15    13   ar
    33    23    21    1
    34    26    25    1
    35    26    28    1
    36    21    22    1
    37     9    10   ar
    38    13    12   ar
    39    10    11   ar
    40    12    11   ar
    41    12    14    1
