@<TRIPOS>MOLECULE
1lf5_GDP_A_1.pdb
 28 30 0 0 0
SMALL
GASTEIGER

@<TRIPOS>ATOM
      1  PB        -7.4790   14.3240   21.3660 P.3   180  GDP180      0.5373
      2  O1B       -6.4050   14.3780   22.3760 O.3   180  GDP180     -0.1143
      3  O2B       -7.8620   15.5480   20.6880 O.3   180  GDP180     -0.1143
      4  O3B       -7.0980   13.2520   20.3120 O.2   180  GDP180     -0.2221
      5  O3A       -8.8060   13.6700   21.9840 O.3   180  GDP180     -0.2261
      6  PA       -10.3610   14.1370   21.8990 P.3   180  GDP180      0.2231
      7  O1A      -10.5760   15.4760   22.4910 O.3   180  GDP180     -0.4370
      8  O2A      -10.7910   13.8740   20.5230 O.2   180  GDP180     -0.5169
      9  O5'      -10.9850   13.0090   22.8720 O.3   180  GDP180     -0.3111
     10  C5'      -10.8900   11.6170   22.5000 C.3   180  GDP180      0.1813
     11  C4'      -12.0580   10.8510   23.0990 C.3   180  GDP180      0.1799
     12  O4'      -12.0130   10.9800   24.5090 O.3   180  GDP180     -0.3326
     13  C3'      -13.4110   11.3850   22.6560 C.3   180  GDP180      0.2158
     14  O3'      -14.2530   10.2930   22.3660 O.3   180  GDP180     -0.2175
     15  C2'      -13.9020   12.2520   23.8350 C.3   180  GDP180      0.2310
     16  O2'      -15.3340   12.3700   23.9540 O.3   180  GDP180     -0.2158
     17  C1'      -13.2240   11.5480   24.9990 C.3   180  GDP180      0.2293
     18  N9       -12.8450   12.4310   26.1080 N.pl3 180  GDP180     -0.2354
     19  C8       -12.0350   13.5350   26.1490 C.3   180  GDP180      0.2246
     20  N7       -11.8920   14.0830   27.3110 N.2   180  GDP180     -0.2322
     21  C5       -12.6610   13.2760   28.1310 C.2   180  GDP180      0.2182
     22  C6       -12.9000   13.3520   29.5510 C.1   180  GDP180      0.2372
     23  O6       -12.4500   14.1790   30.3510 O.2   180  GDP180     -0.2069
     24  N1       -13.7560   12.3140   30.0040 N.2   180  GDP180     -0.2485
     25  C2       -14.3200   11.3160   29.1930 C.1   180  GDP180      0.2531
     26  N2       -15.0980   10.4170   29.7870 N.pl3 180  GDP180     -0.0226
     27  N3       -14.0940   11.2430   27.8630 N.2   180  GDP180     -0.3074
     28  C4       -13.2600   12.2500   27.4010 C.2   180  GDP180      0.2300
@<TRIPOS>BOND
     1     4     1    2
     2     8     6    2
     3     3     1    1
     4     1     5    1
     5     1     2    1
     6     6     5    1
     7     6     7    1
     8     6     9    1
     9    14    13    1
    10    10     9    1
    11    10    11    1
    12    13    11    1
    13    13    15    1
    14    11    12    1
    15    15    16    1
    16    15    17    1
    17    12    17    1
    18    17    18    1
    19    18    19    1
    20    18    28    1
    21    19    20    1
    22    20    21    2
    23    28    27    2
    24    28    21    1
    25    27    25    2
    26    21    22    1
    27    25    26    1
    28    25    24    2
    29    22    24    2
    30    22    23    2
