@<TRIPOS>MOLECULE
1lf9_ACR_A_1.pdb
 44 47 0 0 0
SMALL
GASTEIGER

@<TRIPOS>ATOM
      1  C1A       38.9720   45.5220   32.6710 C.3   700  ACR700      0.1273
      2  C2A       40.3550   45.1300   33.2820 C.3   700  ACR700      0.2049
      3  C3A       40.9460   43.8720   32.5900 C.3   700  ACR700      0.2179
      4  C4A       39.9780   42.5970   32.6900 C.3   700  ACR700      0.2053
      5  C5A       38.4560   42.9740   32.7050 C.2   700  ACR700      0.0180
      6  C6A       37.4250   41.8500   32.7540 C.3   700  ACR700      0.2066
      7  C7A       38.0160   44.3090   32.6830 C.2   700  ACR700     -0.0100
      8  O2A       41.1950   46.2590   33.1940 O.3   700  ACR700     -0.2184
      9  O3A       42.1850   43.5350   33.1630 O.3   700  ACR700     -0.2172
     10  O4A       40.3270   41.7550   31.6080 O.3   700  ACR700     -0.2157
     11  O6A       37.1730   41.4940   34.1240 O.3   700  ACR700     -0.2155
     12  C1B       37.3070   49.5950   29.4660 C.3   700  ACR700      0.2694
     13  C2B       38.4440   49.7870   30.4940 C.3   700  ACR700      0.2394
     14  C3B       39.2840   48.4810   30.6370 C.3   700  ACR700      0.2054
     15  C4B       38.3420   47.3430   31.0980 C.3   700  ACR700      0.1333
     16  C5B       37.2100   47.1560   29.9780 C.3   700  ACR700      0.1364
     17  C6B       36.1930   46.0830   30.3070 C.3   700  ACR700      0.0337
     18  N4B       39.1100   46.0700   31.2790 N.3   700  ACR700     -0.2087
     19  O2B       39.2470   50.8950   30.0820 O.3   700  ACR700     -0.2149
     20  O3B       40.3230   48.7140   31.5970 O.3   700  ACR700     -0.2186
     21  O5B       36.4630   48.4450   29.8120 O.3   700  ACR700     -0.3295
     22  C1C       36.3480   50.1490   24.2130 C.3   700  ACR700      0.2695
     23  C2C       35.3100   50.3710   25.3650 C.3   700  ACR700      0.2404
     24  C3C       36.1230   50.5710   26.6870 C.3   700  ACR700      0.2167
     25  C4C       36.9530   49.2520   26.9650 C.3   700  ACR700      0.1804
     26  C5C       37.9080   49.0570   25.8050 C.3   700  ACR700      0.1803
     27  C6C       38.7020   47.7490   25.9940 C.3   700  ACR700      0.2141
     28  O2C       34.5300   51.5160   25.0660 O.3   700  ACR700     -0.2149
     29  O3C       35.2010   50.7860   27.7190 O.3   700  ACR700     -0.2175
     30  O4C       37.8040   49.3280   28.1650 O.3   700  ACR700     -0.3257
     31  O5C       37.1460   48.9750   24.5340 O.3   700  ACR700     -0.3257
     32  O6C       39.8840   47.7890   25.2420 O.3   700  ACR700     -0.2176
     33  C1D       38.8550   54.0150   21.1980 C.3   700  ACR700      0.3023
     34  C2D       37.3070   54.0130   21.3880 C.3   700  ACR700      0.2433
     35  C3D       36.9640   53.3950   22.7730 C.3   700  ACR700      0.2168
     36  C4D       37.4970   51.9410   22.8280 C.3   700  ACR700      0.1804
     37  C5D       39.0410   51.9720   22.6440 C.3   700  ACR700      0.1804
     38  C6D       39.6420   50.5430   22.6700 C.3   700  ACR700      0.2141
     39  O1D       39.4710   54.8610   22.1470 O.3   700  ACR700     -0.1869
     40  O2D       36.8280   55.3550   21.2820 O.3   700  ACR700     -0.2148
     41  O3D       35.5510   53.3920   22.9370 O.3   700  ACR700     -0.2175
     42  O4D       37.1970   51.3120   24.1300 O.3   700  ACR700     -0.3257
     43  O5D       39.3810   52.6240   21.3370 O.3   700  ACR700     -0.3237
     44  O6D       38.9510   49.6520   21.7980 O.3   700  ACR700     -0.2176
@<TRIPOS>BOND
     1    33    43    1
     2    33    34    1
     3    33    39    1
     4    40    34    1
     5    43    37    1
     6    34    35    1
     7    44    38    1
     8    37    38    1
     9    37    36    1
    10    35    36    1
    11    35    41    1
    12    36    42    1
    13    42    22    1
    14    22    31    1
    15    22    23    1
    16    31    26    1
    17    28    23    1
    18    32    27    1
    19    23    24    1
    20    26    27    1
    21    26    25    1
    22    24    25    1
    23    24    29    1
    24    25    30    1
    25    30    12    1
    26    12    21    1
    27    12    13    1
    28    21    16    1
    29    16    17    1
    30    16    15    1
    31    19    13    1
    32    13    14    1
    33    14    15    1
    34    14    20    1
    35    15    18    1
    36    18     1    1
    37    10     4    1
    38     3     4    1
    39     3     9    1
    40     3     2    1
    41     1     7    1
    42     1     2    1
    43     7     5    2
    44     4     5    1
    45     5     6    1
    46     6    11    1
    47     8     2    1
