@<TRIPOS>MOLECULE
1lfd_GNP_B_1.pdb
 32 34 0 0 0
SMALL
GASTEIGER

@<TRIPOS>ATOM
      1  PG        63.8370   81.0630   41.0740 P.3   1380  GNP1380     0.4884
      2  O1G       63.6460   81.9890   42.3650 O.3   1380  GNP1380    -0.1240
      3  O2G       64.2720   79.7560   41.5340 O.3   1380  GNP1380    -0.1240
      4  O3G       64.9040   81.7480   40.3870 O.2   1380  GNP1380    -0.2331
      5  N3B       62.4140   80.9690   40.2710 N.3   1380  GNP1380    -0.0163
      6  PB        61.6230   82.2400   39.5830 P.3   1380  GNP1380     0.4669
      7  O1B       60.9290   83.1420   40.5350 O.3   1380  GNP1380    -0.1253
      8  O2B       62.4280   82.9720   38.5830 O.2   1380  GNP1380    -0.2351
      9  O3A       60.4590   81.5280   38.7610 O.3   1380  GNP1380    -0.2360
     10  PA        60.5080   81.2120   37.1330 P.3   1380  GNP1380     0.2220
     11  O1A       60.4580   82.4730   36.3360 O.2   1380  GNP1380    -0.5170
     12  O2A       61.5820   80.2310   36.8340 O.3   1380  GNP1380    -0.4370
     13  O5'       59.0870   80.4950   37.0020 O.3   1380  GNP1380    -0.3111
     14  C5'       58.8000   79.2090   37.5920 C.3   1380  GNP1380     0.1813
     15  C4'       57.7250   78.4540   36.7870 C.3   1380  GNP1380     0.1799
     16  O4'       56.5090   79.2440   36.7180 O.3   1380  GNP1380    -0.3326
     17  C3'       58.1910   78.2350   35.3250 C.3   1380  GNP1380     0.2158
     18  O3'       57.7620   76.9760   34.7470 O.3   1380  GNP1380    -0.2175
     19  C2'       57.5330   79.4160   34.6140 C.3   1380  GNP1380     0.2310
     20  O2'       57.2750   79.2350   33.2100 O.3   1380  GNP1380    -0.2158
     21  C1'       56.1990   79.5290   35.3530 C.3   1380  GNP1380     0.2293
     22  N9        55.6400   80.8950   35.2650 N.pl3 1380  GNP1380    -0.2354
     23  C8        56.2730   82.0900   35.5070 C.3   1380  GNP1380     0.2246
     24  N7        55.5410   83.1180   35.3480 N.2   1380  GNP1380    -0.2322
     25  C5        54.3240   82.6060   34.9670 C.2   1380  GNP1380     0.2182
     26  C6        53.1220   83.2770   34.6500 C.1   1380  GNP1380     0.2372
     27  O6        52.9120   84.5000   34.6500 O.2   1380  GNP1380    -0.2069
     28  N1        52.1070   82.3710   34.3080 N.2   1380  GNP1380    -0.2485
     29  C2        52.2310   80.9970   34.2770 C.1   1380  GNP1380     0.2531
     30  N2        51.1440   80.3050   33.9300 N.pl3 1380  GNP1380    -0.0226
     31  N3        53.3740   80.3730   34.5790 N.2   1380  GNP1380    -0.3074
     32  C4        54.3690   81.2370   34.9120 C.2   1380  GNP1380     0.2300
@<TRIPOS>BOND
     1    20    19    1
     2    30    29    1
     3    29    28    2
     4    29    31    2
     5    28    26    2
     6    31    32    2
     7    19    17    1
     8    19    21    1
     9    27    26    2
    10    26    25    1
    11    18    17    1
    12    32    25    1
    13    32    22    1
    14    25    24    2
    15    22    21    1
    16    22    23    1
    17    17    15    1
    18    24    23    1
    19    21    16    1
    20    11    10    2
    21    16    15    1
    22    15    14    1
    23    12    10    1
    24    13    10    1
    25    13    14    1
    26    10     9    1
    27     8     6    2
    28     9     6    1
    29     6     5    1
    30     6     7    1
    31     5     1    1
    32     4     1    2
    33     1     3    1
    34     1     2    1
