@<TRIPOS>MOLECULE
1lfk_HEM_A_1.pdb
 43 50 0 0 0
SMALL
GASTEIGER

@<TRIPOS>ATOM
      1 FE         26.7490   30.8190   63.2690 Fe    430  HEM430      0.0000
      2  CHA       27.9550   27.9950   61.7750 C.2   430  HEM430      0.0000
      3  CHB       23.6100   29.4470   63.3420 C.2   430  HEM430      0.0000
      4  CHC       25.5190   33.6550   64.8110 C.2   430  HEM430      0.0000
      5  CHD       29.7630   32.3340   62.9360 C.2   430  HEM430      0.0000
      6  NA        25.9460   29.0810   62.6590 N.2   430  HEM430      0.0000
      7  C1A       26.6120   27.9990   62.1070 C.2   430  HEM430      0.0000
      8  C2A       25.7150   26.8840   61.9140 C.2   430  HEM430      0.0000
      9  C3A       24.4750   27.3160   62.2850 C.2   430  HEM430      0.0000
     10  C4A       24.6300   28.6840   62.7620 C.2   430  HEM430      0.0000
     11  CMA       23.1620   26.5260   62.1800 C.3   430  HEM430      0.0000
     12  CAA       26.0910   25.4650   61.4690 C.3   430  HEM430      0.0000
     13  CBA       25.9490   25.3420   59.9650 C.3   430  HEM430      0.0000
     14  CGA       26.1790   23.9280   59.4660 C.2   430  HEM430      0.0000
     15  O1A       26.0420   23.7070   58.2430 O.co2 430  HEM430      0.0000
     16  O2A       26.4930   23.0420   60.2890 O.co2 430  HEM430      0.0000
     17  NB        24.9250   31.4400   63.9110 N.ar  430  HEM430      0.0000
     18  C1B       23.7430   30.7310   63.8910 C.ar  430  HEM430      0.0000
     19  C2B       22.6870   31.4590   64.5760 C.ar  430  HEM430      0.0000
     20  C3B       23.2230   32.6450   65.0040 C.ar  430  HEM430      0.0000
     21  C4B       24.6100   32.6340   64.5640 C.ar  430  HEM430      0.0000
     22  CMB       21.2670   30.9540   64.8440 C.3   430  HEM430      0.0000
     23  CAB       22.5920   33.6900   65.6890 C.3   430  HEM430      0.0000
     24  CBB       21.6670   33.5830   66.7170 C.3   430  HEM430      0.0000
     25  NC        27.4870   32.6370   63.7650 N.2   430  HEM430      0.0000
     26  C1C       26.8650   33.6590   64.4650 C.2   430  HEM430      0.0000
     27  C2C       27.8050   34.7200   64.7600 C.2   430  HEM430      0.0000
     28  C3C       28.9940   34.3700   64.1970 C.2   430  HEM430      0.0000
     29  C4C       28.7860   33.0740   63.5820 C.2   430  HEM430      0.0000
     30  CMC       27.4710   36.0060   65.5320 C.3   430  HEM430      0.0000
     31  CAC       30.1900   35.0980   64.1170 C.2   430  HEM430      0.0000
     32  CBC       30.7300   35.8710   65.1180 C.2   430  HEM430      0.0000
     33  ND        28.4830   30.2830   62.5070 N.ar  430  HEM430      0.0000
     34  C1D       29.6300   31.0510   62.4000 C.ar  430  HEM430      0.0000
     35  C2D       30.6870   30.3260   61.7210 C.ar  430  HEM430      0.0000
     36  C3D       30.1940   29.0820   61.4460 C.ar  430  HEM430      0.0000
     37  C4D       28.8270   29.0720   61.9310 C.ar  430  HEM430      0.0000
     38  CMD       32.0860   30.8490   61.4040 C.3   430  HEM430      0.0000
     39  CAD       30.9050   27.9180   60.7520 C.3   430  HEM430      0.0000
     40  CBD       31.6140   27.0170   61.7480 C.3   430  HEM430      0.0000
     41  CGD       32.1670   25.7530   61.1130 C.2   430  HEM430      0.0000
     42  O1D       32.9570   25.0550   61.7820 O.co2 430  HEM430      0.0000
     43  O2D       31.8060   25.4530   59.9530 O.co2 430  HEM430      0.0000
@<TRIPOS>BOND
     1    15    14   ar
     2    14    13    1
     3    14    16   ar
     4    43    41   ar
     5    13    12    1
     6    39    36    1
     7    39    40    1
     8    41    40    1
     9    41    42   ar
    10    38    35    1
    11    36    35   ar
    12    36    37   ar
    13    12     8    1
    14    35    34   ar
    15     2    37    2
    16     2     7    1
    17     8     7    1
    18     8     9    2
    19    37    33   ar
    20     7     6    2
    21    11     9    1
    22     9    10    1
    23    34    33   ar
    24    34     5    2
    25    33     1    1
    26     6    10    1
    27     6     1    1
    28    10     3    2
    29     5    29    1
    30     1    25    1
    31     1    17    1
    32     3    18    1
    33    29    25    2
    34    29    28    1
    35    25    26    1
    36    18    17   ar
    37    18    19   ar
    38    17    21   ar
    39    31    28    1
    40    31    32    2
    41    28    27    2
    42    26    27    1
    43    26     4    2
    44    21     4    1
    45    21    20   ar
    46    19    22    1
    47    19    20   ar
    48    27    30    1
    49    20    23    1
    50    23    24    1
