@<TRIPOS>MOLECULE
1lfl_HEM_A_1.pdb
 43 50 0 0 0
SMALL
GASTEIGER

@<TRIPOS>ATOM
      1 FE         36.3590   -9.1580    8.9250 Fe    142  HEM142      0.0000
      2  CHA       38.3020   -9.9890   11.6180 C.2   142  HEM142      0.0000
      3  CHB       37.5100  -11.9440    7.2700 C.2   142  HEM142      0.0000
      4  CHC       34.6120   -8.2910    6.1020 C.2   142  HEM142      0.0000
      5  CHD       35.9330   -6.0190   10.1650 C.2   142  HEM142      0.0000
      6  NA        37.5680  -10.6550    9.3690 N.ar  142  HEM142      0.0000
      7  C1A       38.2800  -10.8730   10.5430 C.ar  142  HEM142      0.0000
      8  C2A       39.1560  -12.0260   10.4040 C.ar  142  HEM142      0.0000
      9  C3A       38.8940  -12.5730    9.2190 C.ar  142  HEM142      0.0000
     10  C4A       37.9660  -11.7110    8.5550 C.ar  142  HEM142      0.0000
     11  CMA       39.4450  -13.8950    8.7020 C.3   142  HEM142      0.0000
     12  CAA       40.3810  -12.3950   11.2130 C.3   142  HEM142      0.0000
     13  CBA       40.1410  -13.2850   12.4110 C.3   142  HEM142      0.0000
     14  CGA       41.4310  -13.6560   13.1030 C.2   142  HEM142      0.0000
     15  O1A       42.2230  -12.7370   13.4020 O.co2 142  HEM142      0.0000
     16  O2A       41.6520  -14.8600   13.3480 O.co2 142  HEM142      0.0000
     17  NB        36.0480   -9.9840    7.1440 N.2   142  HEM142      0.0000
     18  C1B       36.5830  -11.1610    6.6280 C.2   142  HEM142      0.0000
     19  C2B       36.1310  -11.4310    5.2960 C.2   142  HEM142      0.0000
     20  C3B       35.3590  -10.3940    4.9420 C.2   142  HEM142      0.0000
     21  C4B       35.2890   -9.5020    6.0870 C.2   142  HEM142      0.0000
     22  CMB       36.4360  -12.6550    4.4470 C.3   142  HEM142      0.0000
     23  CAB       34.7970  -10.1850    3.6950 C.3   142  HEM142      0.0000
     24  CBB       34.0010  -11.0930    3.0200 C.3   142  HEM142      0.0000
     25  NC        35.3470   -7.5710    8.3420 N.ar  142  HEM142      0.0000
     26  C1C       34.6400   -7.3890    7.1580 C.ar  142  HEM142      0.0000
     27  C2C       34.1510   -6.0360    7.0320 C.ar  142  HEM142      0.0000
     28  C3C       34.5560   -5.3600    8.1340 C.ar  142  HEM142      0.0000
     29  C4C       35.2850   -6.3270    8.9600 C.ar  142  HEM142      0.0000
     30  CMC       33.3540   -5.4710    5.8570 C.3   142  HEM142      0.0000
     31  CAC       34.3460   -4.0050    8.4080 C.3   142  HEM142      0.0000
     32  CBC       34.8160   -2.9490    7.6440 C.3   142  HEM142      0.0000
     33  ND        36.9650   -8.2130   10.5270 N.2   142  HEM142      0.0000
     34  C1D       36.7160   -6.9020   10.9000 C.2   142  HEM142      0.0000
     35  C2D       37.3020   -6.6020   12.2000 C.2   142  HEM142      0.0000
     36  C3D       37.8710   -7.7470   12.6240 C.2   142  HEM142      0.0000
     37  C4D       37.6970   -8.7310   11.5900 C.2   142  HEM142      0.0000
     38  CMD       37.4270   -5.2570   12.9040 C.3   142  HEM142      0.0000
     39  CAD       38.6560   -7.9540   13.9000 C.3   142  HEM142      0.0000
     40  CBD       40.0580   -7.4280   13.6840 C.3   142  HEM142      0.0000
     41  CGD       40.9670   -7.6980   14.8560 C.2   142  HEM142      0.0000
     42  O1D       41.2200   -8.8840   15.1440 O.co2 142  HEM142      0.0000
     43  O2D       41.4280   -6.7270   15.4900 O.co2 142  HEM142      0.0000
@<TRIPOS>BOND
     1    24    23    1
     2    23    20    1
     3    22    19    1
     4    20    19    2
     5    20    21    1
     6    19    18    1
     7    30    27    1
     8    21     4    2
     9    21    17    1
    10     4    26    1
    11    18    17    2
    12    18     3    1
    13    27    26   ar
    14    27    28   ar
    15    17     1    1
    16    26    25   ar
    17     3    10    2
    18    32    31    1
    19    28    31    1
    20    28    29   ar
    21    25     1    1
    22    25    29   ar
    23    10     9   ar
    24    10     6   ar
    25    11     9    1
    26     1     6    1
    27     1    33    1
    28    29     5    1
    29     9     8   ar
    30     6     7   ar
    31     5    34    2
    32     8     7   ar
    33     8    12    1
    34    33    34    1
    35    33    37    2
    36     7     2    2
    37    34    35    1
    38    12    13    1
    39    37     2    1
    40    37    36    1
    41    35    36    2
    42    35    38    1
    43    13    14    1
    44    36    39    1
    45    14    16   ar
    46    14    15   ar
    47    40    39    1
    48    40    41    1
    49    41    42   ar
    50    41    43   ar
