@<TRIPOS>MOLECULE
1lfm_COH_A_1.pdb
 43 50 0 0 0
SMALL
GASTEIGER

@<TRIPOS>ATOM
      1 CO         15.6740    1.3530   17.8180 Co.oh 104  COH104      0.0000
      2  CHA       14.9420    0.0300   20.9740 C.2   104  COH104      0.0000
      3  CHB       17.5690   -1.3690   17.2360 C.2   104  COH104      0.0000
      4  CHC       15.9490    2.3970   14.6330 C.2   104  COH104      0.0000
      5  CHD       14.2620    4.3230   18.7220 C.2   104  COH104      0.0000
      6  NA        16.1180   -0.3020   18.8330 N.ar  104  COH104      0.0000
      7  C1A       15.6290   -0.7250   20.0910 C.ar  104  COH104      0.0000
      8  C2A       16.1750   -2.0750   20.4050 C.ar  104  COH104      0.0000
      9  C3A       16.9570   -2.4280   19.3960 C.ar  104  COH104      0.0000
     10  C4A       16.9310   -1.3570   18.4310 C.ar  104  COH104      0.0000
     11  CMA       17.6860   -3.7300   19.1560 C.3   104  COH104      0.0000
     12  CAA       15.8780   -2.8870   21.6470 C.3   104  COH104      0.0000
     13  CBA       16.9700   -2.5190   22.6640 C.3   104  COH104      0.0000
     14  CGA       16.9240   -3.3520   23.9250 C.2   104  COH104      0.0000
     15  O1A       17.8090   -3.1400   24.7690 O.co2 104  COH104      0.0000
     16  O2A       16.0380   -4.2330   24.0780 O.co2 104  COH104      0.0000
     17  NB        16.5690    0.6980   16.2780 N.2   104  COH104      0.0000
     18  C1B       17.4230   -0.4050   16.2230 C.2   104  COH104      0.0000
     19  C2B       17.9780   -0.5350   14.8760 C.2   104  COH104      0.0000
     20  C3B       17.3920    0.4230   14.1490 C.2   104  COH104      0.0000
     21  C4B       16.5570    1.2070   15.0130 C.2   104  COH104      0.0000
     22  CMB       19.0580   -1.5120   14.4780 C.3   104  COH104      0.0000
     23  CAB       17.3710    0.6560   12.7400 C.2   104  COH104      0.0000
     24  CBB       17.0420   -0.3040   11.8150 C.2   104  COH104      0.0000
     25  NC        15.2130    2.9820   16.8670 N.ar  104  COH104      0.0000
     26  C1C       15.3310    3.2410   15.4840 C.ar  104  COH104      0.0000
     27  C2C       14.7980    4.5420   15.1820 C.ar  104  COH104      0.0000
     28  C3C       14.3940    5.1200   16.3240 C.ar  104  COH104      0.0000
     29  C4C       14.6440    4.1340   17.3800 C.ar  104  COH104      0.0000
     30  CMC       14.8040    5.1400   13.7840 C.3   104  COH104      0.0000
     31  CAC       13.8220    6.4110   16.5360 C.3   104  COH104      0.0000
     32  CBC       13.0820    7.2510   15.6330 C.3   104  COH104      0.0000
     33  ND        14.8190    2.0270   19.5030 N.2   104  COH104      0.0000
     34  C1D       14.3530    3.3130   19.6950 C.2   104  COH104      0.0000
     35  C2D       13.7900    3.4950   21.0540 C.2   104  COH104      0.0000
     36  C3D       13.9250    2.2580   21.6640 C.2   104  COH104      0.0000
     37  C4D       14.5780    1.3550   20.7310 C.2   104  COH104      0.0000
     38  CMD       13.1330    4.7900   21.5560 C.3   104  COH104      0.0000
     39  CAD       13.3950    1.8120   23.0230 C.3   104  COH104      0.0000
     40  CBD       11.9600    1.2530   22.7350 C.3   104  COH104      0.0000
     41  CGD       11.1220    1.0310   23.9930 C.2   104  COH104      0.0000
     42  O1D       11.6470    1.2370   25.1240 O.co2 104  COH104      0.0000
     43  O2D        9.9320    0.6230   23.8240 O.co2 104  COH104      0.0000
@<TRIPOS>BOND
     1    24    23    2
     2    23    20    1
     3    30    27    1
     4    20    19    2
     5    20    21    1
     6    22    19    1
     7     4    21    2
     8     4    26    1
     9    19    18    1
    10    21    17    1
    11    27    26   ar
    12    27    28   ar
    13    26    25   ar
    14    32    31    1
    15    18    17    2
    16    18     3    1
    17    17     1    1
    18    28    31    1
    19    28    29   ar
    20    25    29   ar
    21    25     1    1
    22     3    10    2
    23    29     5    1
    24     1     6    1
    25     1    33    1
    26    10     6   ar
    27    10     9   ar
    28     5    34    2
    29     6     7   ar
    30    11     9    1
    31     9     8   ar
    32    33    34    1
    33    33    37    2
    34    34    35    1
    35     7     8   ar
    36     7     2    2
    37     8    12    1
    38    37     2    1
    39    37    36    1
    40    35    38    1
    41    35    36    2
    42    12    13    1
    43    36    39    1
    44    13    14    1
    45    40    39    1
    46    40    41    1
    47    43    41   ar
    48    14    16   ar
    49    14    15   ar
    50    41    42   ar
