@<TRIPOS>MOLECULE
1lfo_OLA_A_1.pdb
 20 19 0 0 0
SMALL
GASTEIGER

@<TRIPOS>ATOM
      1  C1        30.2200   39.6510   43.7100 C.2   128  OLA128      0.3649
      2  O1        30.5060   40.7460   43.2560 O.co2 128  OLA128     -0.2457
      3  O2        31.0960   38.9360   44.1640 O.co2 128  OLA128     -0.2457
      4  C2        28.7630   39.1770   43.7320 C.3   128  OLA128      0.1141
      5  C3        28.1480   38.9920   42.3500 C.3   128  OLA128      0.0118
      6  C4        29.2010   38.9700   41.2540 C.3   128  OLA128      0.0006
      7  C5        28.5690   38.8900   39.8780 C.3   128  OLA128      0.0000
      8  C6        27.6650   37.6800   39.7460 C.3   128  OLA128      0.0000
      9  C7        27.4130   37.3860   38.2860 C.3   128  OLA128      0.0000
     10  C8        26.9850   35.9510   38.0790 C.3   128  OLA128      0.0000
     11  C9        27.5080   35.5180   36.8110 C.3   128  OLA128      0.0000
     12  C10       27.0810   34.3870   36.1540 C.3   128  OLA128      0.0000
     13  C11       27.2160   33.0490   36.6760 C.3   128  OLA128      0.0000
     14  C12       27.4250   32.1080   35.5040 C.3   128  OLA128      0.0000
     15  C13       27.2770   30.6580   35.9160 C.3   128  OLA128      0.0000
     16  C14       27.3270   29.7590   34.6940 C.3   128  OLA128      0.0000
     17  C15       27.0860   28.3190   35.0790 C.3   128  OLA128      0.0000
     18  C16       27.2450   27.4060   33.8770 C.3   128  OLA128      0.0000
     19  C17       26.8250   25.9890   34.2170 C.3   128  OLA128      0.0000
     20  C18       28.0140   25.2990   34.8940 C.3   128  OLA128      0.0000
@<TRIPOS>BOND
     1    18    19    1
     2    18    17    1
     3    19    20    1
     4    16    17    1
     5    16    15    1
     6    14    15    1
     7    14    13    1
     8    12    13    1
     9    12    11    1
    10    11    10    1
    11    10     9    1
    12     9     8    1
    13     8     7    1
    14     7     6    1
    15     6     5    1
    16     5     4    1
    17     2     1   ar
    18     1     4    1
    19     1     3   ar
