@<TRIPOS>MOLECULE
1lfq_HEM_A_1.pdb
 43 50 0 0 0
SMALL
GASTEIGER

@<TRIPOS>ATOM
      1 FE         29.6950   13.4980   64.6570 Fe    142  HEM142      0.0000
      2  CHA       28.6990   10.7240   66.3660 C.2   142  HEM142      0.0000
      3  CHB       33.0010   12.6860   65.3080 C.2   142  HEM142      0.0000
      4  CHC       30.7330   16.1020   62.6740 C.2   142  HEM142      0.0000
      5  CHD       26.3980   14.1470   63.7370 C.2   142  HEM142      0.0000
      6  NA        30.6530   12.0880   65.6600 N.2   142  HEM142      0.0000
      7  C1A       30.0650   10.9890   66.3150 C.2   142  HEM142      0.0000
      8  C2A       31.0590   10.2160   67.0500 C.2   142  HEM142      0.0000
      9  C3A       32.2590   10.7870   66.7630 C.2   142  HEM142      0.0000
     10  C4A       32.0120   11.9320   65.9090 C.2   142  HEM142      0.0000
     11  CMA       33.5750   10.2600   67.2820 C.3   142  HEM142      0.0000
     12  CAA       30.8190    9.0990   68.0950 C.3   142  HEM142      0.0000
     13  CBA       31.3070    7.7310   67.6470 C.3   142  HEM142      0.0000
     14  CGA       31.1560    6.6690   68.7270 C.2   142  HEM142      0.0000
     15  O1A       31.8390    6.7680   69.7680 O.co2 142  HEM142      0.0000
     16  O2A       30.3540    5.7300   68.5400 O.co2 142  HEM142      0.0000
     17  NB        31.4750   14.2440   64.1370 N.ar  142  HEM142      0.0000
     18  C1B       32.7530   13.7630   64.4610 C.ar  142  HEM142      0.0000
     19  C2B       33.7930   14.5500   63.8050 C.ar  142  HEM142      0.0000
     20  C3B       33.1650   15.5080   63.0660 C.ar  142  HEM142      0.0000
     21  C4B       31.7290   15.3410   63.2970 C.ar  142  HEM142      0.0000
     22  CMB       35.3170   14.3700   63.9670 C.3   142  HEM142      0.0000
     23  CAB       33.7720   16.4000   62.1850 C.2   142  HEM142      0.0000
     24  CBB       34.5720   17.4410   62.5990 C.2   142  HEM142      0.0000
     25  NC        28.7580   14.8020   63.4540 N.2   142  HEM142      0.0000
     26  C1C       29.3530   15.8620   62.7540 C.2   142  HEM142      0.0000
     27  C2C       28.3370   16.6730   62.0950 C.2   142  HEM142      0.0000
     28  C3C       27.1240   16.1650   62.4390 C.2   142  HEM142      0.0000
     29  C4C       27.3890   14.9610   63.2060 C.2   142  HEM142      0.0000
     30  CMC       28.6120   17.7800   61.0750 C.3   142  HEM142      0.0000
     31  CAC       25.8820   16.7740   62.2430 C.3   142  HEM142      0.0000
     32  CBC       25.5700   17.9930   62.8110 C.3   142  HEM142      0.0000
     33  ND        27.9500   12.7050   65.0610 N.ar  142  HEM142      0.0000
     34  C1D       26.6610   13.1100   64.6580 C.ar  142  HEM142      0.0000
     35  C2D       25.6400   12.2890   65.2740 C.ar  142  HEM142      0.0000
     36  C3D       26.2950   11.3750   65.9900 C.ar  142  HEM142      0.0000
     37  C4D       27.7080   11.5770   65.8340 C.ar  142  HEM142      0.0000
     38  CMD       24.1320   12.3960   65.1170 C.3   142  HEM142      0.0000
     39  CAD       25.6470   10.3050   66.8430 C.3   142  HEM142      0.0000
     40  CBD       25.3610   10.8380   68.2240 C.3   142  HEM142      0.0000
     41  CGD       24.6370    9.8300   69.0740 C.2   142  HEM142      0.0000
     42  O1D       23.7600    9.1380   68.5210 O.co2 142  HEM142      0.0000
     43  O2D       24.9290    9.7380   70.2870 O.co2 142  HEM142      0.0000
@<TRIPOS>BOND
     1    30    27    1
     2    27    28    2
     3    27    26    1
     4    23    24    2
     5    23    20    1
     6    31    28    1
     7    31    32    1
     8    28    29    1
     9     4    26    2
    10     4    21    1
    11    26    25    1
    12    20    21   ar
    13    20    19   ar
    14    29    25    2
    15    29     5    1
    16    21    17   ar
    17    25     1    1
    18     5    34    2
    19    19    22    1
    20    19    18   ar
    21    17    18   ar
    22    17     1    1
    23    18     3    1
    24     1    33    1
    25     1     6    1
    26    34    33   ar
    27    34    35   ar
    28    33    37   ar
    29    38    35    1
    30    35    36   ar
    31     3    10    2
    32     6    10    1
    33     6     7    2
    34    37    36   ar
    35    37     2    2
    36    10     9    1
    37    36    39    1
    38     7     2    1
    39     7     8    1
    40     9     8    2
    41     9    11    1
    42    39    40    1
    43     8    12    1
    44    13    12    1
    45    13    14    1
    46    40    41    1
    47    42    41   ar
    48    16    14   ar
    49    14    15   ar
    50    41    43   ar
