@<TRIPOS>MOLECULE
1lft_HEM_A_1.pdb
 43 50 0 0 0
SMALL
GASTEIGER

@<TRIPOS>ATOM
      1 FE         29.7520   13.4140   64.2710 Fe    142  HEM142      0.0000
      2  CHA       28.7250   10.7080   66.0210 C.2   142  HEM142      0.0000
      3  CHB       33.0400   12.6980   65.0750 C.2   142  HEM142      0.0000
      4  CHC       30.8120   16.0080   62.3560 C.2   142  HEM142      0.0000
      5  CHD       26.4540   14.1680   63.4930 C.2   142  HEM142      0.0000
      6  NA        30.6870   12.0480   65.3190 N.2   142  HEM142      0.0000
      7  C1A       30.0890   10.9700   65.9690 C.2   142  HEM142      0.0000
      8  C2A       31.0660   10.2300   66.7190 C.2   142  HEM142      0.0000
      9  C3A       32.3070   10.7920   66.4780 C.2   142  HEM142      0.0000
     10  C4A       32.0550   11.9250   65.6200 C.2   142  HEM142      0.0000
     11  CMA       33.6630   10.2950   66.9730 C.3   142  HEM142      0.0000
     12  CAA       30.6480    9.2030   67.7590 C.3   142  HEM142      0.0000
     13  CBA       31.2540    7.8420   67.6060 C.3   142  HEM142      0.0000
     14  CGA       30.7350    6.8930   68.6540 C.2   142  HEM142      0.0000
     15  O1A       30.5020    7.3600   69.7960 O.co2 142  HEM142      0.0000
     16  O2A       30.5670    5.6900   68.3430 O.co2 142  HEM142      0.0000
     17  NB        31.5390   14.1640   63.8060 N.ar  142  HEM142      0.0000
     18  C1B       32.8000   13.7430   64.2010 C.ar  142  HEM142      0.0000
     19  C2B       33.8460   14.6040   63.6620 C.ar  142  HEM142      0.0000
     20  C3B       33.2320   15.5780   62.9520 C.ar  142  HEM142      0.0000
     21  C4B       31.8060   15.2730   63.0070 C.ar  142  HEM142      0.0000
     22  CMB       35.3460   14.4920   63.9430 C.3   142  HEM142      0.0000
     23  CAB       33.8010   16.7410   62.4540 C.2   142  HEM142      0.0000
     24  CBB       34.9340   16.8140   61.6960 C.2   142  HEM142      0.0000
     25  NC        28.8070   14.7570   63.1570 N.2   142  HEM142      0.0000
     26  C1C       29.4220   15.7840   62.4310 C.2   142  HEM142      0.0000
     27  C2C       28.4400   16.6470   61.8020 C.2   142  HEM142      0.0000
     28  C3C       27.2060   16.1960   62.1780 C.2   142  HEM142      0.0000
     29  C4C       27.4380   14.9820   62.9700 C.2   142  HEM142      0.0000
     30  CMC       28.7720   17.7470   60.7930 C.3   142  HEM142      0.0000
     31  CAC       25.9820   16.7800   61.8660 C.2   142  HEM142      0.0000
     32  CBC       25.6840   18.1180   61.9990 C.2   142  HEM142      0.0000
     33  ND        27.9970   12.6480   64.6940 N.ar  142  HEM142      0.0000
     34  C1D       26.7260   13.0770   64.3160 C.ar  142  HEM142      0.0000
     35  C2D       25.7050   12.2370   64.9200 C.ar  142  HEM142      0.0000
     36  C3D       26.3520   11.2800   65.6270 C.ar  142  HEM142      0.0000
     37  C4D       27.7560   11.5190   65.4630 C.ar  142  HEM142      0.0000
     38  CMD       24.1850   12.4220   64.8940 C.3   142  HEM142      0.0000
     39  CAD       25.7000   10.2270   66.5210 C.3   142  HEM142      0.0000
     40  CBD       25.4910   10.7530   67.9260 C.3   142  HEM142      0.0000
     41  CGD       24.6480    9.8290   68.7690 C.2   142  HEM142      0.0000
     42  O1D       23.5970    9.3810   68.2720 O.co2 142  HEM142      0.0000
     43  O2D       25.0240    9.5530   69.9280 O.co2 142  HEM142      0.0000
@<TRIPOS>BOND
     1    30    27    1
     2    24    23    2
     3    27    28    2
     4    27    26    1
     5    31    32    2
     6    31    28    1
     7    28    29    1
     8     4    26    2
     9     4    21    1
    10    26    25    1
    11    23    20    1
    12    20    21   ar
    13    20    19   ar
    14    29    25    2
    15    29     5    1
    16    21    17   ar
    17    25     1    1
    18     5    34    2
    19    19    22    1
    20    19    18   ar
    21    17    18   ar
    22    17     1    1
    23    18     3    1
    24     1    33    1
    25     1     6    1
    26    34    33   ar
    27    34    35   ar
    28    33    37   ar
    29    38    35    1
    30    35    36   ar
    31     3    10    2
    32     6    10    1
    33     6     7    2
    34    37    36   ar
    35    37     2    2
    36    10     9    1
    37    36    39    1
    38     7     2    1
    39     7     8    1
    40     9     8    2
    41     9    11    1
    42    39    40    1
    43     8    12    1
    44    13    12    1
    45    13    14    1
    46    40    41    1
    47    42    41   ar
    48    16    14   ar
    49    14    15   ar
    50    41    43   ar
