@<TRIPOS>MOLECULE
1lfv_HEM_A_1.pdb
 43 50 0 0 0
SMALL
GASTEIGER

@<TRIPOS>ATOM
      1 FE         29.8670   13.2800   64.0490 Fe    142  HEM142      0.0000
      2  CHA       28.9290   10.4420   65.7400 C.2   142  HEM142      0.0000
      3  CHB       33.1870   12.5990   64.8260 C.2   142  HEM142      0.0000
      4  CHC       30.8160   15.9540   62.2380 C.2   142  HEM142      0.0000
      5  CHD       26.5650   13.8710   63.2350 C.2   142  HEM142      0.0000
      6  NA        30.8600   11.8730   65.0650 N.2   142  HEM142      0.0000
      7  C1A       30.3010   10.7790   65.7300 C.2   142  HEM142      0.0000
      8  C2A       31.3050   10.0710   66.4890 C.2   142  HEM142      0.0000
      9  C3A       32.5080   10.6310   66.1960 C.2   142  HEM142      0.0000
     10  C4A       32.2290   11.7610   65.3390 C.2   142  HEM142      0.0000
     11  CMA       33.8720   10.1500   66.6730 C.3   142  HEM142      0.0000
     12  CAA       30.9360    9.1730   67.6670 C.3   142  HEM142      0.0000
     13  CBA       31.0900    7.6630   67.6070 C.3   142  HEM142      0.0000
     14  CGA       30.5460    6.9900   68.8590 C.2   142  HEM142      0.0000
     15  O1A       30.7190    7.5710   69.9540 O.co2 142  HEM142      0.0000
     16  O2A       29.9560    5.8870   68.7530 O.co2 142  HEM142      0.0000
     17  NB        31.6010   14.1270   63.6900 N.ar  142  HEM142      0.0000
     18  C1B       32.8880   13.7060   64.0550 C.ar  142  HEM142      0.0000
     19  C2B       33.9010   14.5820   63.4990 C.ar  142  HEM142      0.0000
     20  C3B       33.2720   15.5160   62.7430 C.ar  142  HEM142      0.0000
     21  C4B       31.8280   15.2590   62.9150 C.ar  142  HEM142      0.0000
     22  CMB       35.4030   14.5270   63.7330 C.3   142  HEM142      0.0000
     23  CAB       33.8890   16.3820   61.8270 C.3   142  HEM142      0.0000
     24  CBB       34.8010   17.3790   62.1220 C.3   142  HEM142      0.0000
     25  NC        28.8930   14.5700   62.9260 N.2   142  HEM142      0.0000
     26  C1C       29.4570   15.6220   62.2350 C.2   142  HEM142      0.0000
     27  C2C       28.4550   16.4630   61.6730 C.2   142  HEM142      0.0000
     28  C3C       27.2320   15.9710   62.0350 C.2   142  HEM142      0.0000
     29  C4C       27.5220   14.7410   62.7460 C.2   142  HEM142      0.0000
     30  CMC       28.7890   17.6620   60.7890 C.3   142  HEM142      0.0000
     31  CAC       25.9610   16.5230   61.8320 C.3   142  HEM142      0.0000
     32  CBC       25.6340   17.8390   61.5370 C.3   142  HEM142      0.0000
     33  ND        28.1360   12.3990   64.4310 N.ar  142  HEM142      0.0000
     34  C1D       26.8480   12.7890   64.0590 C.ar  142  HEM142      0.0000
     35  C2D       25.8410   11.8950   64.6310 C.ar  142  HEM142      0.0000
     36  C3D       26.5130   10.9840   65.3410 C.ar  142  HEM142      0.0000
     37  C4D       27.9230   11.2320   65.1730 C.ar  142  HEM142      0.0000
     38  CMD       24.3430   11.8490   64.3930 C.3   142  HEM142      0.0000
     39  CAD       25.8520    9.9550   66.2210 C.3   142  HEM142      0.0000
     40  CBD       25.6160   10.5550   67.5910 C.3   142  HEM142      0.0000
     41  CGD       24.3650   10.0080   68.2470 C.2   142  HEM142      0.0000
     42  O1D       23.2660   10.2010   67.6770 O.co2 142  HEM142      0.0000
     43  O2D       24.4770    9.3870   69.3260 O.co2 142  HEM142      0.0000
@<TRIPOS>BOND
     1    30    27    1
     2    32    31    1
     3    27    28    2
     4    27    26    1
     5    23    24    1
     6    23    20    1
     7    31    28    1
     8    28    29    1
     9    26     4    2
    10    26    25    1
    11     4    21    1
    12    20    21   ar
    13    20    19   ar
    14    29    25    2
    15    29     5    1
    16    21    17   ar
    17    25     1    1
    18     5    34    2
    19    19    22    1
    20    19    18   ar
    21    17     1    1
    22    17    18   ar
    23     1    33    1
    24     1     6    1
    25    18     3    1
    26    34    33   ar
    27    34    35   ar
    28    38    35    1
    29    33    37   ar
    30    35    36   ar
    31     3    10    2
    32     6    10    1
    33     6     7    2
    34    37    36   ar
    35    37     2    2
    36    10     9    1
    37    36    39    1
    38     7     2    1
    39     7     8    1
    40     9     8    2
    41     9    11    1
    42    39    40    1
    43     8    12    1
    44    40    41    1
    45    13    12    1
    46    13    14    1
    47    42    41   ar
    48    41    43   ar
    49    16    14   ar
    50    14    15   ar
