@<TRIPOS>MOLECULE
1lfy_HEM_A_1.pdb
 43 50 0 0 0
SMALL
GASTEIGER

@<TRIPOS>ATOM
      1 FE         29.5770   12.9720   64.0590 Fe    142  HEM142      0.0000
      2  CHA       28.5970   10.1560   65.7620 C.2   142  HEM142      0.0000
      3  CHB       32.8780   12.2120   64.7020 C.2   142  HEM142      0.0000
      4  CHC       30.6090   15.5070   62.0020 C.2   142  HEM142      0.0000
      5  CHD       26.3610   13.6890   63.3960 C.2   142  HEM142      0.0000
      6  NA        30.5060   11.4780   64.9320 N.2   142  HEM142      0.0000
      7  C1A       29.9710   10.4330   65.7020 C.2   142  HEM142      0.0000
      8  C2A       30.9820    9.7880   66.5470 C.2   142  HEM142      0.0000
      9  C3A       32.1410   10.3640   66.2230 C.2   142  HEM142      0.0000
     10  C4A       31.8870   11.3600   65.1950 C.2   142  HEM142      0.0000
     11  CMA       33.4380   10.1000   66.9650 C.3   142  HEM142      0.0000
     12  CAA       30.7070    8.7670   67.6830 C.3   142  HEM142      0.0000
     13  CBA       31.0990    7.3280   67.3440 C.3   142  HEM142      0.0000
     14  CGA       30.7560    6.3310   68.4450 C.2   142  HEM142      0.0000
     15  O1A       31.2490    6.5000   69.5850 O.co2 142  HEM142      0.0000
     16  O2A       29.9970    5.3720   68.1680 O.co2 142  HEM142      0.0000
     17  NB        31.3210   13.7130   63.5450 N.ar  142  HEM142      0.0000
     18  C1B       32.5950   13.3280   63.9320 C.ar  142  HEM142      0.0000
     19  C2B       33.6290   14.0760   63.2760 C.ar  142  HEM142      0.0000
     20  C3B       33.0370   14.8740   62.3920 C.ar  142  HEM142      0.0000
     21  C4B       31.5970   14.7010   62.5980 C.ar  142  HEM142      0.0000
     22  CMB       35.0850   14.1160   63.7010 C.3   142  HEM142      0.0000
     23  CAB       33.6350   15.7460   61.5040 C.2   142  HEM142      0.0000
     24  CBB       34.2240   16.9080   61.9260 C.2   142  HEM142      0.0000
     25  NC        28.6850   14.3670   63.0700 N.2   142  HEM142      0.0000
     26  C1C       29.2320   15.3420   62.2500 C.2   142  HEM142      0.0000
     27  C2C       28.1940   16.1330   61.6160 C.2   142  HEM142      0.0000
     28  C3C       27.0210   15.6950   62.1100 C.2   142  HEM142      0.0000
     29  C4C       27.3330   14.5690   62.9390 C.2   142  HEM142      0.0000
     30  CMC       28.4130   17.1000   60.4540 C.3   142  HEM142      0.0000
     31  CAC       25.7520   16.1680   61.8850 C.2   142  HEM142      0.0000
     32  CBC       25.4110   17.4830   61.9110 C.2   142  HEM142      0.0000
     33  ND        27.8970   12.0660   64.3600 N.ar  142  HEM142      0.0000
     34  C1D       26.6160   12.5350   64.0610 C.ar  142  HEM142      0.0000
     35  C2D       25.5560   11.7390   64.6820 C.ar  142  HEM142      0.0000
     36  C3D       26.2020   10.7650   65.3450 C.ar  142  HEM142      0.0000
     37  C4D       27.6330   10.9460   65.1410 C.ar  142  HEM142      0.0000
     38  CMD       24.0450   11.9330   64.6770 C.3   142  HEM142      0.0000
     39  CAD       25.5790    9.6890   66.2240 C.3   142  HEM142      0.0000
     40  CBD       25.2850   10.3190   67.5810 C.3   142  HEM142      0.0000
     41  CGD       24.8720    9.3120   68.6420 C.2   142  HEM142      0.0000
     42  O1D       23.9310    8.5230   68.3860 O.co2 142  HEM142      0.0000
     43  O2D       25.4820    9.3220   69.7370 O.co2 142  HEM142      0.0000
@<TRIPOS>BOND
     1    30    27    1
     2    23    24    2
     3    23    20    1
     4    27    28    2
     5    27    26    1
     6    31    32    2
     7    31    28    1
     8     4    26    2
     9     4    21    1
    10    28    29    1
    11    26    25    1
    12    20    21   ar
    13    20    19   ar
    14    21    17   ar
    15    29    25    2
    16    29     5    1
    17    25     1    1
    18    19    22    1
    19    19    18   ar
    20     5    34    2
    21    17    18   ar
    22    17     1    1
    23    18     3    1
    24     1    33    1
    25     1     6    1
    26    34    33   ar
    27    34    35   ar
    28    33    37   ar
    29    38    35    1
    30    35    36   ar
    31     3    10    2
    32     6    10    1
    33     6     7    2
    34    37    36   ar
    35    37     2    2
    36    10     9    1
    37    36    39    1
    38     7     2    1
    39     7     8    1
    40     9     8    2
    41     9    11    1
    42    39    40    1
    43     8    12    1
    44    13    12    1
    45    13    14    1
    46    40    41    1
    47    16    14   ar
    48    42    41   ar
    49    14    15   ar
    50    41    43   ar
