@<TRIPOS>MOLECULE
1lfz_HEM_A_1.pdb
 43 50 0 0 0
SMALL
GASTEIGER

@<TRIPOS>ATOM
      1 FE         29.6390   13.1030   63.4130 Fe    142  HEM142      0.0000
      2  CHA       28.5640   10.3260   65.1120 C.2   142  HEM142      0.0000
      3  CHB       32.9340   12.3710   64.3620 C.2   142  HEM142      0.0000
      4  CHC       30.7180   15.6580   61.4940 C.2   142  HEM142      0.0000
      5  CHD       26.3710   13.7140   62.4100 C.2   142  HEM142      0.0000
      6  NA        30.5650   11.7210   64.5350 N.2   142  HEM142      0.0000
      7  C1A       29.9400   10.6840   65.2710 C.2   142  HEM142      0.0000
      8  C2A       30.9000   10.0180   66.1800 C.2   142  HEM142      0.0000
      9  C3A       32.1010   10.4920   65.8050 C.2   142  HEM142      0.0000
     10  C4A       31.9220   11.5760   64.8500 C.2   142  HEM142      0.0000
     11  CMA       33.4020    9.8160   66.2090 C.3   142  HEM142      0.0000
     12  CAA       30.6600    9.0030   67.3040 C.3   142  HEM142      0.0000
     13  CBA       30.6150    7.6170   66.6610 C.3   142  HEM142      0.0000
     14  CGA       30.3770    6.4700   67.6550 C.2   142  HEM142      0.0000
     15  O1A       30.2700    5.3060   67.1890 O.co2 142  HEM142      0.0000
     16  O2A       30.3010    6.7230   68.8870 O.co2 142  HEM142      0.0000
     17  NB        31.4400   13.8370   63.0440 N.ar  142  HEM142      0.0000
     18  C1B       32.7130   13.4320   63.5210 C.ar  142  HEM142      0.0000
     19  C2B       33.7700   14.2230   62.9400 C.ar  142  HEM142      0.0000
     20  C3B       33.1810   15.1620   62.1230 C.ar  142  HEM142      0.0000
     21  C4B       31.7180   14.9080   62.1750 C.ar  142  HEM142      0.0000
     22  CMB       35.2510   13.9770   63.0740 C.3   142  HEM142      0.0000
     23  CAB       33.8330   16.1140   61.3100 C.3   142  HEM142      0.0000
     24  CBB       34.1180   17.4300   61.6550 C.3   142  HEM142      0.0000
     25  NC        28.7080   14.4370   62.3300 N.2   142  HEM142      0.0000
     26  C1C       29.3130   15.4550   61.6010 C.2   142  HEM142      0.0000
     27  C2C       28.2670   16.2800   60.9800 C.2   142  HEM142      0.0000
     28  C3C       27.0190   15.7800   61.3700 C.2   142  HEM142      0.0000
     29  C4C       27.3240   14.6090   62.0920 C.2   142  HEM142      0.0000
     30  CMC       28.5950   17.4610   60.0470 C.3   142  HEM142      0.0000
     31  CAC       25.7380   16.3010   61.3060 C.3   142  HEM142      0.0000
     32  CBC       25.3020   17.3660   60.5410 C.3   142  HEM142      0.0000
     33  ND        27.9050   12.1800   63.5770 N.ar  142  HEM142      0.0000
     34  C1D       26.6470   12.5970   63.1490 C.ar  142  HEM142      0.0000
     35  C2D       25.6020   11.8920   63.8030 C.ar  142  HEM142      0.0000
     36  C3D       26.1680   10.9740   64.5060 C.ar  142  HEM142      0.0000
     37  C4D       27.6080   11.0850   64.3730 C.ar  142  HEM142      0.0000
     38  CMD       24.1250   12.1950   63.7990 C.3   142  HEM142      0.0000
     39  CAD       25.3980    9.9570   65.2520 C.3   142  HEM142      0.0000
     40  CBD       24.7730   10.5700   66.4740 C.3   142  HEM142      0.0000
     41  CGD       24.3880    9.5300   67.4910 C.2   142  HEM142      0.0000
     42  O1D       23.5340    8.6650   67.1720 O.co2 142  HEM142      0.0000
     43  O2D       24.9530    9.5800   68.6070 O.co2 142  HEM142      0.0000
@<TRIPOS>BOND
     1    30    27    1
     2    32    31    1
     3    27    28    2
     4    27    26    1
     5    31    28    1
     6    23    24    1
     7    23    20    1
     8    28    29    1
     9     4    26    2
    10     4    21    1
    11    26    25    1
    12    29    25    2
    13    29     5    1
    14    20    21   ar
    15    20    19   ar
    16    21    17   ar
    17    25     1    1
    18     5    34    2
    19    19    22    1
    20    19    18   ar
    21    17     1    1
    22    17    18   ar
    23    34    33   ar
    24    34    35   ar
    25     1    33    1
    26     1     6    1
    27    18     3    1
    28    33    37   ar
    29    38    35    1
    30    35    36   ar
    31     3    10    2
    32    37    36   ar
    33    37     2    2
    34    36    39    1
    35     6    10    1
    36     6     7    2
    37    10     9    1
    38     2     7    1
    39    39    40    1
    40     7     8    1
    41     9     8    2
    42     9    11    1
    43     8    12    1
    44    40    41    1
    45    13    12    1
    46    13    14    1
    47    42    41   ar
    48    15    14   ar
    49    41    43   ar
    50    14    16   ar
