@<TRIPOS>MOLECULE
1lg9_HEM_A_1.pdb
 43 50 0 0 0
SMALL
GASTEIGER

@<TRIPOS>ATOM
      1 FE         22.0160    7.7320   43.0510 Fe    430  HEM430      0.0000
      2  CHA       24.8180    6.8710   41.2620 C.2   430  HEM430      0.0000
      3  CHB       23.4560    6.1400   45.8490 C.2   430  HEM430      0.0000
      4  CHC       19.2700    8.3690   44.8430 C.2   430  HEM430      0.0000
      5  CHD       20.4910    8.8490   40.2050 C.2   430  HEM430      0.0000
      6  NA        23.7870    6.7790   43.4270 N.2   430  HEM430      0.0000
      7  C1A       24.9320    6.6860   42.6050 C.2   430  HEM430      0.0000
      8  C2A       25.9810    5.9580   43.2550 C.2   430  HEM430      0.0000
      9  C3A       25.5690    5.6410   44.5170 C.2   430  HEM430      0.0000
     10  C4A       24.2040    6.1400   44.6120 C.2   430  HEM430      0.0000
     11  CMA       26.3870    4.9880   45.7010 C.3   430  HEM430      0.0000
     12  CAA       27.3980    5.6890   42.7220 C.3   430  HEM430      0.0000
     13  CBA       27.5300    4.3370   42.0230 C.3   430  HEM430      0.0000
     14  CGA       28.9680    4.0210   41.5450 C.2   430  HEM430      0.0000
     15  O1A       29.1220    2.9730   40.8560 O.co2 430  HEM430      0.0000
     16  O2A       29.9210    4.7880   41.8290 O.co2 430  HEM430      0.0000
     17  NB        21.4730    7.3510   44.9160 N.ar  430  HEM430      0.0000
     18  C1B       22.2150    6.7830   45.9940 C.ar  430  HEM430      0.0000
     19  C2B       21.4420    6.7610   47.2530 C.ar  430  HEM430      0.0000
     20  C3B       20.3100    7.3150   46.9630 C.ar  430  HEM430      0.0000
     21  C4B       20.3310    7.7050   45.5520 C.ar  430  HEM430      0.0000
     22  CMB       22.0400    6.2370   48.6420 C.3   430  HEM430      0.0000
     23  CAB       19.1550    7.6750   47.8160 C.2   430  HEM430      0.0000
     24  CBB       19.1150    7.6850   49.1400 C.2   430  HEM430      0.0000
     25  NC        20.2150    8.4820   42.6150 N.2   430  HEM430      0.0000
     26  C1C       19.1870    8.7170   43.4900 C.2   430  HEM430      0.0000
     27  C2C       18.0610    9.4640   42.8470 C.2   430  HEM430      0.0000
     28  C3C       18.4590    9.6170   41.5130 C.2   430  HEM430      0.0000
     29  C4C       19.7680    9.0210   41.3810 C.2   430  HEM430      0.0000
     30  CMC       16.8160   10.0700   43.6810 C.3   430  HEM430      0.0000
     31  CAC       17.7000    9.9350   40.3810 C.2   430  HEM430      0.0000
     32  CBC       16.9600   11.0320   40.0970 C.2   430  HEM430      0.0000
     33  ND        22.5560    7.8210   41.1170 N.ar  430  HEM430      0.0000
     34  C1D       21.7710    8.2440   40.0680 C.ar  430  HEM430      0.0000
     35  C2D       22.5000    8.1810   38.8430 C.ar  430  HEM430      0.0000
     36  C3D       23.7140    7.7100   39.1290 C.ar  430  HEM430      0.0000
     37  C4D       23.7480    7.4980   40.5600 C.ar  430  HEM430      0.0000
     38  CMD       21.9360    8.6410   37.4510 C.3   430  HEM430      0.0000
     39  CAD       24.8720    7.5120   38.1240 C.3   430  HEM430      0.0000
     40  CBD       25.9300    8.6290   38.1580 C.3   430  HEM430      0.0000
     41  CGD       27.1560    8.3560   37.2810 C.2   430  HEM430      0.0000
     42  O1D       27.8150    9.3570   36.8710 O.co2 430  HEM430      0.0000
     43  O2D       27.4790    7.1500   37.0360 O.co2 430  HEM430      0.0000
@<TRIPOS>BOND
     1    42    41   ar
     2    43    41   ar
     3    41    40    1
     4    38    35    1
     5    39    40    1
     6    39    36    1
     7    35    36   ar
     8    35    34   ar
     9    36    37   ar
    10    34     5    2
    11    34    33   ar
    12    32    31    2
    13     5    29    1
    14    31    28    1
    15    37    33   ar
    16    37     2    2
    17    15    14   ar
    18    33     1    1
    19     2     7    1
    20    29    28    1
    21    29    25    2
    22    28    27    2
    23    14    16   ar
    24    14    13    1
    25    13    12    1
    26     7     8    1
    27     7     6    2
    28    25     1    1
    29    25    26    1
    30    12     8    1
    31    27    26    1
    32    27    30    1
    33     1     6    1
    34     1    17    1
    35     8     9    2
    36     6    10    1
    37    26     4    2
    38     9    10    1
    39     9    11    1
    40    10     3    2
    41     4    21    1
    42    17    21   ar
    43    17    18   ar
    44    21    20   ar
    45     3    18    1
    46    18    19   ar
    47    20    19   ar
    48    20    23    1
    49    19    22    1
    50    23    24    2
