@<TRIPOS>MOLECULE
1lga_HEM_A_1.pdb
 43 50 0 0 0
SMALL
GASTEIGER

@<TRIPOS>ATOM
      1  CHA        7.9810   22.3490    2.2380 C.2   396  HEM396      0.0000
      2  CHB       11.5830   25.2980    1.0120 C.2   396  HEM396      0.0000
      3  CHC       14.5370   21.5630    0.8220 C.2   396  HEM396      0.0000
      4  CHD       11.0090   18.6170    2.1330 C.2   396  HEM396      0.0000
      5  C1A        8.7010   23.4760    1.9130 C.ar  396  HEM396      0.0000
      6  C2A        8.2200   24.8220    2.0790 C.ar  396  HEM396      0.0000
      7  C3A        9.2140   25.6520    1.6980 C.ar  396  HEM396      0.0000
      8  C4A       10.3360   24.8080    1.3670 C.ar  396  HEM396      0.0000
      9  CMA        9.1730   27.1920    1.6840 C.3   396  HEM396      0.0000
     10  CAA        6.9070   25.2400    2.7560 C.3   396  HEM396      0.0000
     11  CBA        7.0760   25.6140    4.2240 C.3   396  HEM396      0.0000
     12  CGA        5.8270   26.1950    4.8460 C.2   396  HEM396      0.0000
     13  O1A        4.9730   26.7630    4.1520 O.co2 396  HEM396      0.0000
     14  O2A        5.6870   26.0570    6.0630 O.co2 396  HEM396      0.0000
     15  C1B       12.6870   24.5260    0.7560 C.2   396  HEM396      0.0000
     16  C2B       13.9960   25.0490    0.4250 C.2   396  HEM396      0.0000
     17  C3B       14.8420   23.9760    0.4030 C.2   396  HEM396      0.0000
     18  C4B       14.0240   22.8210    0.6380 C.2   396  HEM396      0.0000
     19  CMB       14.3390   26.5150    0.1580 C.3   396  HEM396      0.0000
     20  CAB       16.2400   23.9270    0.2910 C.3   396  HEM396      0.0000
     21  CBB       17.0040   24.5300   -0.7680 C.3   396  HEM396      0.0000
     22  C1C       13.8410   20.4450    1.2260 C.ar  396  HEM396      0.0000
     23  C2C       14.4110   19.1350    1.3760 C.ar  396  HEM396      0.0000
     24  C3C       13.4530   18.3210    1.8790 C.ar  396  HEM396      0.0000
     25  C4C       12.2610   19.1210    1.8680 C.ar  396  HEM396      0.0000
     26  CMC       15.8580   18.7520    1.0570 C.3   396  HEM396      0.0000
     27  CAC       13.5970   17.1550    2.6430 C.3   396  HEM396      0.0000
     28  CBC       14.1080   15.8980    2.2190 C.3   396  HEM396      0.0000
     29  C1D        9.8420   19.3680    2.1680 C.2   396  HEM396      0.0000
     30  C2D        8.5230   18.8140    2.4180 C.2   396  HEM396      0.0000
     31  C3D        7.7110   19.8870    2.5000 C.2   396  HEM396      0.0000
     32  C4D        8.4860   21.0580    2.2470 C.2   396  HEM396      0.0000
     33  CMD        8.1630   17.3290    2.4530 C.3   396  HEM396      0.0000
     34  CAD        6.2150   19.8880    2.7120 C.3   396  HEM396      0.0000
     35  CBD        5.8100   19.9710    4.1480 C.3   396  HEM396      0.0000
     36  CGD        4.3010   19.8930    4.3280 C.2   396  HEM396      0.0000
     37  O1D        3.8500   20.2170    5.4150 O.co2 396  HEM396      0.0000
     38  O2D        3.5670   19.4980    3.4330 O.co2 396  HEM396      0.0000
     39  NA        10.0260   23.4620    1.5240 N.ar  396  HEM396      0.0000
     40  NB        12.6970   23.1530    0.8660 N.2   396  HEM396      0.0000
     41  NC        12.5130   20.4310    1.5080 N.ar  396  HEM396      0.0000
     42  ND         9.7990   20.7270    1.9910 N.2   396  HEM396      0.0000
     43 FE         11.2380   21.9080    1.3990 Fe    396  HEM396      0.0000
@<TRIPOS>BOND
     1    21    20    1
     2    19    16    1
     3    20    17    1
     4    17    16    2
     5    17    18    1
     6    16    15    1
     7    18     3    2
     8    18    40    1
     9    15    40    2
    10    15     2    1
    11     3    22    1
    12    40    43    1
    13     2     8    2
    14    26    23    1
    15    22    23   ar
    16    22    41   ar
    17     8    39   ar
    18     8     7   ar
    19    23    24   ar
    20    43    41    1
    21    43    39    1
    22    43    42    1
    23    41    25   ar
    24    39     5   ar
    25     9     7    1
    26     7     6   ar
    27    25    24   ar
    28    25     4    1
    29    24    27    1
    30     5     6   ar
    31     5     1    2
    32    42    29    1
    33    42    32    2
    34     6    10    1
    35     4    29    2
    36    29    30    1
    37    28    27    1
    38     1    32    1
    39    32    31    1
    40    30    33    1
    41    30    31    2
    42    31    34    1
    43    34    35    1
    44    10    11    1
    45    38    36   ar
    46    35    36    1
    47    13    12   ar
    48    11    12    1
    49    36    37   ar
    50    12    14   ar
