@<TRIPOS>MOLECULE
1lgb_FUC_C_1.pdb
 10 10 0 0 0
SMALL
GASTEIGER

@<TRIPOS>ATOM
      1  C1       -11.4630   22.1650   80.5860 C.3   510  FUC510      0.1776
      2  C2       -10.7550   23.1830   79.7140 C.3   510  FUC510      0.2141
      3  C3        -9.3050   23.3350   80.0600 C.3   510  FUC510      0.2172
      4  C4        -8.6030   21.9860   80.1110 C.3   510  FUC510      0.2116
      5  C5        -9.4000   20.9360   80.9040 C.3   510  FUC510      0.1483
      6  C6        -8.8600   19.5290   80.6770 C.3   510  FUC510      0.0349
      7  O2       -11.3800   24.4410   79.8280 O.3   510  FUC510     -0.2176
      8  O3        -8.7170   24.1180   79.0370 O.3   510  FUC510     -0.2175
      9  O4        -8.3580   21.5430   78.7930 O.3   510  FUC510     -0.2177
     10  O5       -10.7920   20.9160   80.5100 O.3   510  FUC510     -0.3508
@<TRIPOS>BOND
     1     9     4    1
     2     8     3    1
     3     2     7    1
     4     2     3    1
     5     2     1    1
     6     3     4    1
     7     4     5    1
     8    10     1    1
     9    10     5    1
    10     6     5    1
