@<TRIPOS>MOLECULE
1lgb_MAN_C_1.pdb
 11 11 0 0 0
SMALL
GASTEIGER

@<TRIPOS>ATOM
      1  C1       -12.6230   31.9040   74.6800 C.3   501  MAN501      0.1777
      2  C2       -12.2670   32.6580   73.4150 C.3   501  MAN501      0.2141
      3  C3       -11.5430   31.7110   72.4610 C.3   501  MAN501      0.2173
      4  C4       -10.3610   31.0130   73.1440 C.3   501  MAN501      0.2142
      5  C5       -10.6490   30.5320   74.5840 C.3   501  MAN501      0.1810
      6  C6        -9.3440   30.3760   75.3470 C.3   501  MAN501      0.2141
      7  O2       -11.4250   33.7830   73.7400 O.3   501  MAN501     -0.2176
      8  O3       -11.0700   32.4250   71.3180 O.3   501  MAN501     -0.2175
      9  O4        -9.9680   29.8880   72.3600 O.3   501  MAN501     -0.2176
     10  O5       -11.4310   31.4910   75.3240 O.3   501  MAN501     -0.3481
     11  O6        -9.5550   30.1990   76.7370 O.3   501  MAN501     -0.2176
@<TRIPOS>BOND
     1     8     3    1
     2     9     4    1
     3     3     4    1
     4     3     2    1
     5     4     5    1
     6     2     7    1
     7     2     1    1
     8     5    10    1
     9     5     6    1
    10     1    10    1
    11     6    11    1
