@<TRIPOS>MOLECULE
1lgc_FUC_I_1.pdb
 10 10 0 0 0
SMALL
GASTEIGER

@<TRIPOS>ATOM
      1  C1         8.8640   79.6170   74.2530 C.3   510  FUC510      0.1776
      2  C2         9.5450   80.6660   73.3860 C.3   510  FUC510      0.2141
      3  C3         9.2760   80.4240   71.9120 C.3   510  FUC510      0.2172
      4  C4         7.7890   80.3060   71.6730 C.3   510  FUC510      0.2116
      5  C5         7.2220   79.2030   72.5490 C.3   510  FUC510      0.1483
      6  C6         5.7180   79.0600   72.4080 C.3   510  FUC510      0.0349
      7  O2        10.9470   80.6300   73.6170 O.3   510  FUC510     -0.2176
      8  O3         9.7800   81.5220   71.1730 O.3   510  FUC510     -0.2175
      9  O4         7.1780   81.5400   72.0090 O.3   510  FUC510     -0.2177
     10  O5         7.4860   79.5070   73.9260 O.3   510  FUC510     -0.3508
@<TRIPOS>BOND
     1     8     3    1
     2     4     3    1
     3     4     9    1
     4     4     5    1
     5     3     2    1
     6     6     5    1
     7     5    10    1
     8     2     7    1
     9     2     1    1
    10    10     1    1
