@<TRIPOS>MOLECULE
1lgc_MAN_H_1.pdb
 11 11 0 0 0
SMALL
GASTEIGER

@<TRIPOS>ATOM
      1  C1        62.8610  117.9810   40.3600 C.3   514  MAN514      0.1777
      2  C2        62.5050  116.5260   40.6630 C.3   514  MAN514      0.2141
      3  C3        61.7600  115.9460   39.4520 C.3   514  MAN514      0.2173
      4  C4        60.6170  116.8330   38.9880 C.3   514  MAN514      0.2142
      5  C5        61.0100  118.3060   38.8880 C.3   514  MAN514      0.1810
      6  C6        59.7790  119.1890   38.7370 C.3   514  MAN514      0.2141
      7  O2        61.6800  116.4180   41.8470 O.3   514  MAN514     -0.2176
      8  O3        61.2390  114.6620   39.7600 O.3   514  MAN514     -0.2175
      9  O4        60.2050  116.3920   37.7100 O.3   514  MAN514     -0.2176
     10  O5        61.6880  118.7200   40.0900 O.3   514  MAN514     -0.3481
     11  O6        60.0700  120.5530   39.0060 O.3   514  MAN514     -0.2176
@<TRIPOS>BOND
     1     9     4    1
     2     6     5    1
     3     6    11    1
     4     5     4    1
     5     5    10    1
     6     4     3    1
     7     3     8    1
     8     3     2    1
     9    10     1    1
    10     1     2    1
    11     2     7    1
