@<TRIPOS>MOLECULE
1lgf_HEM_A_1.pdb
 43 50 0 0 0
SMALL
GASTEIGER

@<TRIPOS>ATOM
      1 FE         26.1140   30.8820   63.1950 Fe    430  HEM430      0.0000
      2  CHA       27.2590   27.9890   61.7490 C.2   430  HEM430      0.0000
      3  CHB       22.9870   29.4170   63.3570 C.2   430  HEM430      0.0000
      4  CHC       24.9410   33.6760   64.7830 C.2   430  HEM430      0.0000
      5  CHD       29.1190   32.3150   62.8910 C.2   430  HEM430      0.0000
      6  NA        25.2680   29.0630   62.5890 N.2   430  HEM430      0.0000
      7  C1A       25.9340   27.9830   62.0320 C.2   430  HEM430      0.0000
      8  C2A       25.0680   26.8630   61.8540 C.2   430  HEM430      0.0000
      9  C3A       23.8100   27.2820   62.2160 C.2   430  HEM430      0.0000
     10  C4A       23.9540   28.6550   62.7220 C.2   430  HEM430      0.0000
     11  CMA       22.4980   26.5080   62.1510 C.3   430  HEM430      0.0000
     12  CAA       25.5180   25.4850   61.3970 C.3   430  HEM430      0.0000
     13  CBA       25.3220   25.3460   59.8950 C.3   430  HEM430      0.0000
     14  CGA       25.6060   23.9570   59.4040 C.2   430  HEM430      0.0000
     15  O1A       25.5250   23.7270   58.1810 O.co2 430  HEM430      0.0000
     16  O2A       25.9100   23.0880   60.2420 O.co2 430  HEM430      0.0000
     17  NB        24.3920   31.4370   63.8560 N.ar  430  HEM430      0.0000
     18  C1B       23.1680   30.7040   63.8890 C.ar  430  HEM430      0.0000
     19  C2B       22.1140   31.4380   64.5810 C.ar  430  HEM430      0.0000
     20  C3B       22.6720   32.6390   64.9790 C.ar  430  HEM430      0.0000
     21  C4B       24.0640   32.6310   64.5260 C.ar  430  HEM430      0.0000
     22  CMB       20.6450   31.0010   64.8810 C.3   430  HEM430      0.0000
     23  CAB       21.9970   33.7250   65.5910 C.3   430  HEM430      0.0000
     24  CBB       20.9900   33.6490   66.5450 C.3   430  HEM430      0.0000
     25  NC        26.8580   32.7000   63.6420 N.2   430  HEM430      0.0000
     26  C1C       26.2570   33.7140   64.3680 C.2   430  HEM430      0.0000
     27  C2C       27.1790   34.7830   64.6700 C.2   430  HEM430      0.0000
     28  C3C       28.3450   34.4140   64.0390 C.2   430  HEM430      0.0000
     29  C4C       28.1240   33.1280   63.4450 C.2   430  HEM430      0.0000
     30  CMC       26.8370   36.0340   65.5160 C.3   430  HEM430      0.0000
     31  CAC       29.5650   35.0790   63.9590 C.3   430  HEM430      0.0000
     32  CBC       30.0520   35.8910   64.9750 C.3   430  HEM430      0.0000
     33  ND        27.7600   30.2790   62.5240 N.ar  430  HEM430      0.0000
     34  C1D       28.9530   31.0110   62.4240 C.ar  430  HEM430      0.0000
     35  C2D       30.0160   30.2540   61.7680 C.ar  430  HEM430      0.0000
     36  C3D       29.5000   29.0340   61.5270 C.ar  430  HEM430      0.0000
     37  C4D       28.1110   29.0510   61.9800 C.ar  430  HEM430      0.0000
     38  CMD       31.4510   30.6470   61.3900 C.3   430  HEM430      0.0000
     39  CAD       30.2870   27.8530   60.8910 C.3   430  HEM430      0.0000
     40  CBD       30.9770   26.9360   61.8840 C.3   430  HEM430      0.0000
     41  CGD       31.5850   25.7000   61.2200 C.2   430  HEM430      0.0000
     42  O1D       32.3700   24.9910   61.8940 O.co2 430  HEM430      0.0000
     43  O2D       31.2690   25.4370   60.0330 O.co2 430  HEM430      0.0000
@<TRIPOS>BOND
     1    15    14   ar
     2    14    13    1
     3    14    16   ar
     4    13    12    1
     5    43    41   ar
     6    39    36    1
     7    39    40    1
     8    41    40    1
     9    41    42   ar
    10    38    35    1
    11    12     8    1
    12    36    35   ar
    13    36    37   ar
    14     2    37    2
    15     2     7    1
    16    35    34   ar
    17     8     7    1
    18     8     9    2
    19    37    33   ar
    20     7     6    2
    21    11     9    1
    22     9    10    1
    23    34    33   ar
    24    34     5    2
    25    33     1    1
    26     6    10    1
    27     6     1    1
    28    10     3    2
    29     5    29    1
    30     1    25    1
    31     1    17    1
    32     3    18    1
    33    29    25    2
    34    29    28    1
    35    25    26    1
    36    17    18   ar
    37    17    21   ar
    38    18    19   ar
    39    31    28    1
    40    31    32    1
    41    28    27    2
    42    26    27    1
    43    26     4    2
    44    21     4    1
    45    21    20   ar
    46    19    22    1
    47    19    20   ar
    48    27    30    1
    49    20    23    1
    50    23    24    1
