@<TRIPOS>MOLECULE
1lgn_DA_A_1.pdb
 22 24 0 0 0
SMALL
GASTEIGER

@<TRIPOS>ATOM
      1  OP3      169.4770   46.4370   27.8270 O.3   401  DA401      -0.1145
      2  P        169.5220   44.9580   28.1290 P.3   401  DA401       0.5327
      3  OP1      169.5670   44.1680   26.8600 O.2   401  DA401      -0.2224
      4  OP2      170.5950   44.5990   29.1360 O.3   401  DA401      -0.1145
      5  O5'      168.1590   44.4860   28.7910 O.3   401  DA401      -0.2675
      6  C5'      167.6810   44.9470   30.0260 C.3   401  DA401       0.1859
      7  C4'      166.1500   44.9860   29.9530 C.3   401  DA401       0.1796
      8  O4'      165.6970   46.1920   29.2940 O.3   401  DA401      -0.3155
      9  C3'      165.6220   43.8360   29.1180 C.3   401  DA401       0.1883
     10  O3'      164.3700   43.4690   29.6480 O.3   401  DA401      -0.2202
     11  C2'      165.3460   44.4230   27.7620 C.3   401  DA401       0.1151
     12  C1'      165.0130   45.8510   28.0760 C.3   401  DA401       0.2873
     13  N9       165.5260   46.7320   27.0490 N.pl3 401  DA401      -0.1460
     14  C8       166.7640   46.7800   26.4920 C.3   401  DA401       0.3377
     15  N7       166.9310   47.7020   25.5860 N.2   401  DA401      -0.2095
     16  C5       165.7110   48.3160   25.5400 C.2   401  DA401       0.2526
     17  C6       165.2180   49.4000   24.7800 C.2   401  DA401       0.4393
     18  N6       165.9490   50.0840   23.8950 N.pl3 401  DA401       0.2180
     19  N1       163.9250   49.7720   24.9550 N.2   401  DA401       0.0021
     20  C2       163.1920   49.0890   25.8520 C.3   401  DA401       0.5254
     21  N3       163.5630   48.0590   26.6460 N.2   401  DA401      -0.0055
     22  C4       164.8390   47.7260   26.4320 C.2   401  DA401       0.3518
@<TRIPOS>BOND
     1    18    17    1
     2    17    19    2
     3    17    16    1
     4    19    20    1
     5    16    15    2
     6    16    22    1
     7    15    14    1
     8    20    21    1
     9    22    21    2
    10    22    13    1
    11    14    13    1
    12     3     2    2
    13    13    12    1
    14    11    12    1
    15    11     9    1
    16     1     2    1
    17    12     8    1
    18     2     5    1
    19     2     4    1
    20     5     6    1
    21     9    10    1
    22     9     7    1
    23     8     7    1
    24     7     6    1
