@<TRIPOS>MOLECULE
1lgr_AMP_A_1.pdb
 23 25 0 0 0
SMALL
GASTEIGER

@<TRIPOS>ATOM
      1  P        -89.1910   16.6080  -83.8880 P.3   471  AMP471      0.5327
      2  O1P      -89.7040   16.9440  -85.3590 O.2   471  AMP471     -0.2224
      3  O2P      -90.2010   17.0520  -82.8970 O.3   471  AMP471     -0.1145
      4  O3P      -87.8250   17.1610  -83.7010 O.3   471  AMP471     -0.1145
      5  O5'      -89.1150   15.0130  -83.9200 O.3   471  AMP471     -0.2675
      6  C5'      -89.9230   14.4360  -84.9370 C.3   471  AMP471      0.1860
      7  C4'      -90.0380   12.9110  -84.8960 C.3   471  AMP471      0.1823
      8  O4'      -91.4480   12.5660  -84.7940 O.3   471  AMP471     -0.3135
      9  C3'      -89.5600   12.1800  -86.1390 C.3   471  AMP471      0.2184
     10  O3'      -88.2290   11.9120  -85.9050 O.3   471  AMP471     -0.2174
     11  C2'      -90.3580   10.8840  -86.0740 C.3   471  AMP471      0.2570
     12  O2'      -89.8160   10.0100  -85.0960 O.3   471  AMP471     -0.2130
     13  C1'      -91.7060   11.3720  -85.5340 C.3   471  AMP471      0.3186
     14  N9       -92.6950   11.6810  -86.5910 N.pl3 471  AMP471     -0.1439
     15  C8       -92.5630   12.5370  -87.6450 C.3   471  AMP471      0.3377
     16  N7       -93.6170   12.6020  -88.4010 N.2   471  AMP471     -0.2095
     17  C5       -94.5080   11.7230  -87.8090 C.2   471  AMP471      0.2526
     18  C6       -95.8200   11.3300  -88.1290 C.2   471  AMP471      0.4393
     19  N6       -96.4890   11.8040  -89.1960 N.pl3 471  AMP471      0.2180
     20  N1       -96.4170   10.4390  -87.3220 N.2   471  AMP471      0.0021
     21  C2       -95.7440    9.9630  -86.2710 C.3   471  AMP471      0.5254
     22  N3       -94.5180   10.2560  -85.8650 N.2   471  AMP471     -0.0055
     23  C4       -93.9610   11.1530  -86.6930 C.2   471  AMP471      0.3518
@<TRIPOS>BOND
     1    19    18    1
     2    16    17    2
     3    16    15    1
     4    18    17    1
     5    18    20    2
     6    17    23    1
     7    15    14    1
     8    20    21    1
     9    23    14    1
    10    23    22    2
    11    14    13    1
    12    21    22    1
    13     9    11    1
    14     9    10    1
    15     9     7    1
    16    11    13    1
    17    11    12    1
    18    13     8    1
    19     2     1    2
    20     6     7    1
    21     6     5    1
    22     7     8    1
    23     5     1    1
    24     1     4    1
    25     1     3    1
