@<TRIPOS>MOLECULE
1lgt_BP3_A_1.pdb
 15 16 0 0 0
SMALL
GASTEIGER

@<TRIPOS>ATOM
      1  CA1       22.4900   21.7710   16.5330 C.ar  300  BP3300      0.0430
      2  CA2       21.1240   22.0060   16.2810 C.ar  300  BP3300      0.2342
      3  OA2       20.6090   23.2810   16.2370 O.3   300  BP3300     -0.2831
      4  CA3       20.2170   20.9380   16.0630 C.ar  300  BP3300      0.2343
      5  OA3       18.8840   21.2250   15.8220 O.3   300  BP3300     -0.2831
      6  CA4       20.6740   19.6030   16.0920 C.ar  300  BP3300      0.0454
      7  CA5       22.0460   19.3510   16.3410 C.ar  300  BP3300      0.0035
      8  CA6       22.9460   20.4330   16.5610 C.ar  300  BP3300      0.0034
      9  CB1       23.4290   22.9220   16.7670 C.ar  300  BP3300      0.0138
     10  CB2       23.3790   23.7050   17.9610 C.ar  300  BP3300      0.0577
     11  CB3       24.2730   24.7930   18.1600 C.ar  300  BP3300      0.0114
     12  CB4       25.2340   25.1130   17.1680 C.ar  300  BP3300      0.0009
     13  CB5       25.2930   24.3410   15.9820 C.ar  300  BP3300      0.0001
     14  CB6       24.3940   23.2580   15.7910 C.ar  300  BP3300      0.0009
     15 CL1        22.2520   23.4230   19.2720 Cl    300  BP3300     -0.0822
@<TRIPOS>BOND
     1    14    13   ar
     2    14     9   ar
     3     5     4    1
     4    13    12   ar
     5     4     6   ar
     6     4     2   ar
     7     6     7   ar
     8     3     2    1
     9     2     1   ar
    10     7     8   ar
    11     1     8   ar
    12     1     9    1
    13     9    10   ar
    14    12    11   ar
    15    10    11   ar
    16    10    15    1
