@<TRIPOS>MOLECULE
1lh0_PRP_B_1.pdb
 22 22 0 0 0
SMALL
GASTEIGER

@<TRIPOS>ATOM
      1  C1        30.1990   57.4030    9.3060 C.3   5002  PRP5002     0.2742
      2  C2        31.2230   57.6940   10.4300 C.3   5002  PRP5002     0.2408
      3  C3        31.6040   59.1400   10.1710 C.3   5002  PRP5002     0.2167
      4  C4        31.5090   59.2820    8.6710 C.3   5002  PRP5002     0.1808
      5  C5        32.8190   59.2640    7.9950 C.3   5002  PRP5002     0.1859
      6  O1        28.8880   57.8640    9.7560 O.3   5002  PRP5002    -0.2857
      7  O2        30.6130   57.4610   11.7140 O.3   5002  PRP5002    -0.2149
      8  O3        30.6420   59.9820   10.8470 O.3   5002  PRP5002    -0.2175
      9  O4        30.6280   58.1650    8.2180 O.3   5002  PRP5002    -0.3255
     10  O5        32.7330   59.5830    6.6030 O.3   5002  PRP5002    -0.2675
     11  P         32.6470   61.1090    6.0490 P.3   5002  PRP5002     0.5327
     12  O1P       33.8740   61.8510    6.5640 O.3   5002  PRP5002    -0.1145
     13  O2P       31.3290   61.7240    6.4790 O.3   5002  PRP5002    -0.1145
     14  O3P       32.7080   60.8990    4.5290 O.2   5002  PRP5002    -0.2224
     15  PA        27.5420   57.1520    9.2710 P.3   5002  PRP5002     0.2249
     16  O1A       26.4330   58.1310    9.3210 O.3   5002  PRP5002    -0.4370
     17  O2A       27.8020   56.5310    7.9360 O.2   5002  PRP5002    -0.5169
     18  O3A       27.3850   56.0350   10.4080 O.3   5002  PRP5002    -0.2260
     19  PB        26.5770   56.0500   11.8520 P.3   5002  PRP5002     0.5373
     20  O1B       26.8860   54.6630   12.4090 O.3   5002  PRP5002    -0.1143
     21  O2B       25.1070   56.2680   11.5730 O.2   5002  PRP5002    -0.2221
     22  O3B       27.1880   57.1370   12.6680 O.3   5002  PRP5002    -0.1143
@<TRIPOS>BOND
     1    14    11    2
     2    11    13    1
     3    11    12    1
     4    11    10    1
     5    10     5    1
     6    17    15    2
     7     5     4    1
     8     9     4    1
     9     9     1    1
    10     4     3    1
    11    15    16    1
    12    15     6    1
    13    15    18    1
    14     1     6    1
    15     1     2    1
    16     3     2    1
    17     3     8    1
    18    18    19    1
    19     2     7    1
    20    21    19    2
    21    19    20    1
    22    19    22    1
