@<TRIPOS>MOLECULE
1lh1_HEM_A_1.pdb
 43 50 0 0 0
SMALL
GASTEIGER

@<TRIPOS>ATOM
      1 FE         18.7310   28.6100   29.7720 Fe    155  HEM155      0.0000
      2  CHA       16.8620   26.1360   27.7580 C.2   155  HEM155      0.0000
      3  CHB       20.4930   29.9320   26.8980 C.2   155  HEM155      0.0000
      4  CHC       20.2160   31.3400   31.5410 C.2   155  HEM155      0.0000
      5  CHD       17.2470   27.1330   32.5060 C.2   155  HEM155      0.0000
      6  NA        18.6970   28.0890   27.7520 N.ar  155  HEM155      0.0000
      7  C1A       17.8050   27.0800   27.1320 C.ar  155  HEM155      0.0000
      8  C2A       18.0960   27.1130   25.7070 C.ar  155  HEM155      0.0000
      9  C3A       19.1590   28.1000   25.4740 C.ar  155  HEM155      0.0000
     10  C4A       19.5120   28.7680   26.7550 C.ar  155  HEM155      0.0000
     11  CMA       19.8960   28.5330   24.1450 C.3   155  HEM155      0.0000
     12  CAA       17.3820   26.0770   24.7040 C.3   155  HEM155      0.0000
     13  CBA       18.4400   25.1560   24.2600 C.3   155  HEM155      0.0000
     14  CGA       17.7930   24.0250   23.3390 C.2   155  HEM155      0.0000
     15  O1A       16.8750   24.2300   22.5410 O.co2 155  HEM155      0.0000
     16  O2A       18.4190   23.0500   23.1200 O.co2 155  HEM155      0.0000
     17  NB        20.1570   30.3260   29.2920 N.2   155  HEM155      0.0000
     18  C1B       20.7620   30.6590   28.0800 C.2   155  HEM155      0.0000
     19  C2B       21.7200   31.8810   28.2280 C.2   155  HEM155      0.0000
     20  C3B       21.6180   32.3210   29.5180 C.2   155  HEM155      0.0000
     21  C4B       20.6040   31.3260   30.1850 C.2   155  HEM155      0.0000
     22  CMB       22.6920   32.4630   27.1090 C.3   155  HEM155      0.0000
     23  CAB       22.4570   33.5660   30.2020 C.3   155  HEM155      0.0000
     24  CBB       23.0340   34.6630   29.5080 C.3   155  HEM155      0.0000
     25  NC        18.7360   29.1220   31.6670 N.ar  155  HEM155      0.0000
     26  C1C       19.3850   30.3390   32.2270 C.ar  155  HEM155      0.0000
     27  C2C       19.1360   30.3170   33.6630 C.ar  155  HEM155      0.0000
     28  C3C       18.3770   29.0940   33.9370 C.ar  155  HEM155      0.0000
     29  C4C       18.0820   28.3660   32.6740 C.ar  155  HEM155      0.0000
     30  CMC       19.6750   31.4360   34.6830 C.3   155  HEM155      0.0000
     31  CAC       17.9090   28.5720   35.3230 C.2   155  HEM155      0.0000
     32  CBC       18.4920   27.6320   35.9290 C.2   155  HEM155      0.0000
     33  ND        17.2340   27.0070   30.0520 N.2   155  HEM155      0.0000
     34  C1D       16.8170   26.5200   31.3110 C.2   155  HEM155      0.0000
     35  C2D       15.8440   25.2570   31.1670 C.2   155  HEM155      0.0000
     36  C3D       15.7620   24.9870   29.8350 C.2   155  HEM155      0.0000
     37  C4D       16.6180   26.0770   29.1260 C.2   155  HEM155      0.0000
     38  CMD       15.1570   24.4020   32.3390 C.3   155  HEM155      0.0000
     39  CAD       14.9310   23.7610   29.1420 C.3   155  HEM155      0.0000
     40  CBD       15.7660   22.6130   29.1190 C.3   155  HEM155      0.0000
     41  CGD       14.8010   21.3250   28.8330 C.2   155  HEM155      0.0000
     42  O1D       14.0840   20.7920   29.7870 O.co2 155  HEM155      0.0000
     43  O2D       15.1150   20.5860   27.9080 O.co2 155  HEM155      0.0000
@<TRIPOS>BOND
     1    15    14   ar
     2    16    14   ar
     3    14    13    1
     4    11     9    1
     5    13    12    1
     6    12     8    1
     7     9     8   ar
     8     9    10   ar
     9     8     7   ar
    10    10     3    2
    11    10     6   ar
    12     3    18    1
    13    22    19    1
    14     7     6   ar
    15     7     2    2
    16     6     1    1
    17     2    37    1
    18    43    41   ar
    19    18    19    1
    20    18    17    2
    21    19    20    2
    22    41    40    1
    23    41    42   ar
    24    40    39    1
    25    37    36    1
    26    37    33    2
    27    39    36    1
    28    17     1    1
    29    17    21    1
    30    24    23    1
    31    20    21    1
    32    20    23    1
    33     1    33    1
    34     1    25    1
    35    36    35    2
    36    33    34    1
    37    21     4    2
    38    35    34    1
    39    35    38    1
    40    34     5    2
    41     4    26    1
    42    25    26   ar
    43    25    29   ar
    44    26    27   ar
    45     5    29    1
    46    29    28   ar
    47    27    28   ar
    48    27    30    1
    49    28    31    1
    50    31    32    2
