@<TRIPOS>MOLECULE
1lh2_HEM_A_1.pdb
 43 50 0 0 0
SMALL
GASTEIGER

@<TRIPOS>ATOM
      1 FE         18.6230   28.5220   29.7010 Fe    154  HEM154      0.0000
      2  CHA       16.7970   26.1110   27.6870 C.2   154  HEM154      0.0000
      3  CHB       20.5450   29.8020   26.8530 C.2   154  HEM154      0.0000
      4  CHC       20.2710   31.1610   31.4790 C.2   154  HEM154      0.0000
      5  CHD       17.2320   27.0310   32.4560 C.2   154  HEM154      0.0000
      6  NA        18.6460   28.0370   27.6520 N.ar  154  HEM154      0.0000
      7  C1A       17.7620   27.0400   27.0380 C.ar  154  HEM154      0.0000
      8  C2A       18.0730   27.0600   25.6170 C.ar  154  HEM154      0.0000
      9  C3A       19.1650   28.0180   25.4040 C.ar  154  HEM154      0.0000
     10  C4A       19.5230   28.6760   26.6800 C.ar  154  HEM154      0.0000
     11  CMA       19.9070   28.4410   24.0920 C.3   154  HEM154      0.0000
     12  CAA       17.3790   26.0670   24.5760 C.3   154  HEM154      0.0000
     13  CBA       18.3240   24.9830   24.4590 C.3   154  HEM154      0.0000
     14  CGA       17.7680   23.9520   23.3950 C.2   154  HEM154      0.0000
     15  O1A       16.8490   24.2020   22.6190 O.co2 154  HEM154      0.0000
     16  O2A       18.3830   22.9790   23.1340 O.co2 154  HEM154      0.0000
     17  NB        20.1700   30.2210   29.2130 N.2   154  HEM154      0.0000
     18  C1B       20.7980   30.5420   28.0360 C.2   154  HEM154      0.0000
     19  C2B       21.7610   31.7480   28.2060 C.2   154  HEM154      0.0000
     20  C3B       21.6490   32.1920   29.4850 C.2   154  HEM154      0.0000
     21  C4B       20.6340   31.1850   30.1290 C.2   154  HEM154      0.0000
     22  CMB       22.7020   32.3500   27.0790 C.3   154  HEM154      0.0000
     23  CAB       22.5030   33.4270   30.1700 C.3   154  HEM154      0.0000
     24  CBB       22.9050   34.5760   29.4790 C.3   154  HEM154      0.0000
     25  NC        18.7710   29.0180   31.6560 N.ar  154  HEM154      0.0000
     26  C1C       19.4460   30.1930   32.1940 C.ar  154  HEM154      0.0000
     27  C2C       19.1800   30.1590   33.6400 C.ar  154  HEM154      0.0000
     28  C3C       18.3640   28.9630   33.9040 C.ar  154  HEM154      0.0000
     29  C4C       18.0700   28.2640   32.6410 C.ar  154  HEM154      0.0000
     30  CMC       19.7270   31.2340   34.6820 C.3   154  HEM154      0.0000
     31  CAC       17.8290   28.4160   35.2780 C.2   154  HEM154      0.0000
     32  CBC       18.4970   27.6130   35.9580 C.2   154  HEM154      0.0000
     33  ND        17.2670   26.8910   30.0220 N.2   154  HEM154      0.0000
     34  C1D       16.8270   26.3950   31.2640 C.2   154  HEM154      0.0000
     35  C2D       15.8100   25.1620   31.0820 C.2   154  HEM154      0.0000
     36  C3D       15.7070   24.9320   29.7510 C.2   154  HEM154      0.0000
     37  C4D       16.6010   26.0090   29.0660 C.2   154  HEM154      0.0000
     38  CMD       15.0020   24.3300   32.2020 C.3   154  HEM154      0.0000
     39  CAD       14.7850   23.7880   29.0340 C.3   154  HEM154      0.0000
     40  CBD       15.6080   22.6440   28.7620 C.3   154  HEM154      0.0000
     41  CGD       14.6630   21.2930   28.5970 C.2   154  HEM154      0.0000
     42  O1D       13.9750   20.8050   29.5850 O.co2 154  HEM154      0.0000
     43  O2D       15.0740   20.4730   27.8170 O.co2 154  HEM154      0.0000
@<TRIPOS>BOND
     1    15    14   ar
     2    16    14   ar
     3    14    13    1
     4    11     9    1
     5    13    12    1
     6    12     8    1
     7     9     8   ar
     8     9    10   ar
     9     8     7   ar
    10    10     3    2
    11    10     6   ar
    12     3    18    1
    13     7     6   ar
    14     7     2    2
    15    22    19    1
    16     6     1    1
    17     2    37    1
    18    43    41   ar
    19    18    19    1
    20    18    17    2
    21    19    20    2
    22    41    40    1
    23    41    42   ar
    24    40    39    1
    25    39    36    1
    26    37    36    1
    27    37    33    2
    28    17     1    1
    29    17    21    1
    30    24    23    1
    31    20    21    1
    32    20    23    1
    33     1    33    1
    34     1    25    1
    35    36    35    2
    36    33    34    1
    37    21     4    2
    38    35    34    1
    39    35    38    1
    40    34     5    2
    41     4    26    1
    42    25    26   ar
    43    25    29   ar
    44    26    27   ar
    45     5    29    1
    46    29    28   ar
    47    27    28   ar
    48    27    30    1
    49    28    31    1
    50    31    32    2
