@<TRIPOS>MOLECULE
1lh3_HEM_A_1.pdb
 43 50 0 0 0
SMALL
GASTEIGER

@<TRIPOS>ATOM
      1 FE         18.7480   28.6640   29.8530 Fe    155  HEM155      0.0000
      2  CHA       16.9460   26.1580   27.7710 C.2   155  HEM155      0.0000
      3  CHB       20.6940   29.9490   27.0030 C.2   155  HEM155      0.0000
      4  CHC       20.1890   31.4730   31.6230 C.2   155  HEM155      0.0000
      5  CHD       17.2130   27.2190   32.5110 C.2   155  HEM155      0.0000
      6  NA        18.7990   28.1780   27.7680 N.ar  155  HEM155      0.0000
      7  C1A       17.9010   27.1240   27.1450 C.ar  155  HEM155      0.0000
      8  C2A       18.3020   27.0790   25.7720 C.ar  155  HEM155      0.0000
      9  C3A       19.3690   28.1070   25.5680 C.ar  155  HEM155      0.0000
     10  C4A       19.6900   28.8050   26.8270 C.ar  155  HEM155      0.0000
     11  CMA       20.1690   28.4900   24.2730 C.3   155  HEM155      0.0000
     12  CAA       17.6560   26.0360   24.7650 C.3   155  HEM155      0.0000
     13  CBA       16.6680   26.7490   23.9480 C.3   155  HEM155      0.0000
     14  CGA       16.0790   25.8520   22.7940 C.2   155  HEM155      0.0000
     15  O1A       14.8550   25.3070   22.8640 O.co2 155  HEM155      0.0000
     16  O2A       16.7800   25.7210   21.7580 O.co2 155  HEM155      0.0000
     17  NB        20.1710   30.4280   29.3430 N.2   155  HEM155      0.0000
     18  C1B       20.8830   30.7130   28.1700 C.2   155  HEM155      0.0000
     19  C2B       21.8250   31.9430   28.3480 C.2   155  HEM155      0.0000
     20  C3B       21.6390   32.4260   29.6030 C.2   155  HEM155      0.0000
     21  C4B       20.5780   31.4490   30.2520 C.2   155  HEM155      0.0000
     22  CMB       22.7890   32.5610   27.2410 C.3   155  HEM155      0.0000
     23  CAB       22.3870   33.7220   30.2830 C.3   155  HEM155      0.0000
     24  CBB       23.0000   34.7690   29.5600 C.3   155  HEM155      0.0000
     25  NC        18.6840   29.2500   31.7230 N.ar  155  HEM155      0.0000
     26  C1C       19.3460   30.4460   32.3060 C.ar  155  HEM155      0.0000
     27  C2C       19.0680   30.3910   33.7210 C.ar  155  HEM155      0.0000
     28  C3C       18.3220   29.1620   33.9670 C.ar  155  HEM155      0.0000
     29  C4C       18.0380   28.4560   32.7040 C.ar  155  HEM155      0.0000
     30  CMC       19.5670   31.5070   34.7530 C.3   155  HEM155      0.0000
     31  CAC       17.8480   28.6080   35.3420 C.2   155  HEM155      0.0000
     32  CBC       18.4850   27.7380   35.9670 C.2   155  HEM155      0.0000
     33  ND        17.2100   27.0520   30.0700 N.2   155  HEM155      0.0000
     34  C1D       16.7920   26.5910   31.3080 C.2   155  HEM155      0.0000
     35  C2D       15.8550   25.2980   31.1680 C.2   155  HEM155      0.0000
     36  C3D       15.7600   25.0280   29.8600 C.2   155  HEM155      0.0000
     37  C4D       16.6560   26.0990   29.1430 C.2   155  HEM155      0.0000
     38  CMD       15.1720   24.4040   32.3250 C.3   155  HEM155      0.0000
     39  CAD       14.9350   23.7650   29.2550 C.3   155  HEM155      0.0000
     40  CBD       15.8740   22.7470   28.8940 C.3   155  HEM155      0.0000
     41  CGD       14.9140   21.4140   28.7140 C.2   155  HEM155      0.0000
     42  O1D       14.1500   20.9570   29.6630 O.co2 155  HEM155      0.0000
     43  O2D       15.0580   20.6610   27.7380 O.co2 155  HEM155      0.0000
@<TRIPOS>BOND
     1    16    14   ar
     2    14    15   ar
     3    14    13    1
     4    13    12    1
     5    11     9    1
     6    12     8    1
     7     9     8   ar
     8     9    10   ar
     9     8     7   ar
    10    10     3    2
    11    10     6   ar
    12     3    18    1
    13     7     6   ar
    14     7     2    2
    15    22    19    1
    16    43    41   ar
    17     6     1    1
    18     2    37    1
    19    18    19    1
    20    18    17    2
    21    19    20    2
    22    41    40    1
    23    41    42   ar
    24    40    39    1
    25    37    36    1
    26    37    33    2
    27    39    36    1
    28    17     1    1
    29    17    21    1
    30    24    23    1
    31    20    21    1
    32    20    23    1
    33     1    33    1
    34     1    25    1
    35    36    35    2
    36    33    34    1
    37    21     4    2
    38    35    34    1
    39    35    38    1
    40    34     5    2
    41     4    26    1
    42    25    26   ar
    43    25    29   ar
    44    26    27   ar
    45     5    29    1
    46    29    28   ar
    47    27    28   ar
    48    27    30    1
    49    28    31    1
    50    31    32    2
