@<TRIPOS>MOLECULE
1lh5_HEM_A_1.pdb
 43 50 0 0 0
SMALL
GASTEIGER

@<TRIPOS>ATOM
      1 FE         18.7130   28.3980   29.4810 Fe    155  HEM155      0.0000
      2  CHA       16.8600   25.9410   27.6870 C.2   155  HEM155      0.0000
      3  CHB       20.5500   29.7380   26.8430 C.2   155  HEM155      0.0000
      4  CHC       20.3860   31.1060   31.5040 C.2   155  HEM155      0.0000
      5  CHD       17.2660   26.9780   32.4260 C.2   155  HEM155      0.0000
      6  NA        18.6780   27.9500   27.6860 N.ar  155  HEM155      0.0000
      7  C1A       17.8170   26.8930   27.0700 C.ar  155  HEM155      0.0000
      8  C2A       18.1570   26.8870   25.6720 C.ar  155  HEM155      0.0000
      9  C3A       19.1950   27.9230   25.4400 C.ar  155  HEM155      0.0000
     10  C4A       19.5340   28.6030   26.7020 C.ar  155  HEM155      0.0000
     11  CMA       19.9000   28.3380   24.0940 C.3   155  HEM155      0.0000
     12  CAA       17.4890   25.8360   24.6640 C.3   155  HEM155      0.0000
     13  CBA       18.5320   24.8810   24.2990 C.3   155  HEM155      0.0000
     14  CGA       17.8710   23.7820   23.3480 C.2   155  HEM155      0.0000
     15  O1A       16.9270   24.0110   22.5940 O.co2 155  HEM155      0.0000
     16  O2A       18.4350   22.7630   23.1280 O.co2 155  HEM155      0.0000
     17  NB        20.2550   30.1640   29.2230 N.2   155  HEM155      0.0000
     18  C1B       20.8290   30.4950   28.0020 C.2   155  HEM155      0.0000
     19  C2B       21.8050   31.7080   28.1410 C.2   155  HEM155      0.0000
     20  C3B       21.7450   32.1370   29.4540 C.2   155  HEM155      0.0000
     21  C4B       20.7230   31.1260   30.1250 C.2   155  HEM155      0.0000
     22  CMB       22.7210   32.2900   26.9860 C.3   155  HEM155      0.0000
     23  CAB       22.5780   33.3930   30.1470 C.3   155  HEM155      0.0000
     24  CBB       23.1670   34.4780   29.4210 C.3   155  HEM155      0.0000
     25  NC        18.8260   28.9810   31.5930 N.ar  155  HEM155      0.0000
     26  C1C       19.5160   30.1390   32.1850 C.ar  155  HEM155      0.0000
     27  C2C       19.2150   30.1140   33.6140 C.ar  155  HEM155      0.0000
     28  C3C       18.3910   28.9390   33.8590 C.ar  155  HEM155      0.0000
     29  C4C       18.1120   28.2260   32.5910 C.ar  155  HEM155      0.0000
     30  CMC       19.7380   31.1630   34.6980 C.3   155  HEM155      0.0000
     31  CAC       17.8660   28.4360   35.2510 C.2   155  HEM155      0.0000
     32  CBC       18.3930   27.4620   35.8950 C.2   155  HEM155      0.0000
     33  ND        17.3180   26.7350   30.0010 N.2   155  HEM155      0.0000
     34  C1D       16.8950   26.2930   31.2520 C.2   155  HEM155      0.0000
     35  C2D       15.8920   25.0450   31.1180 C.2   155  HEM155      0.0000
     36  C3D       15.7480   24.8060   29.7730 C.2   155  HEM155      0.0000
     37  C4D       16.6590   25.8370   29.0700 C.2   155  HEM155      0.0000
     38  CMD       15.1340   24.2880   32.3110 C.3   155  HEM155      0.0000
     39  CAD       14.7980   23.6760   29.0670 C.3   155  HEM155      0.0000
     40  CBD       15.6290   22.5170   28.9070 C.3   155  HEM155      0.0000
     41  CGD       14.6480   21.2160   28.6560 C.2   155  HEM155      0.0000
     42  O1D       13.9090   20.7310   29.6070 O.co2 155  HEM155      0.0000
     43  O2D       14.9560   20.4180   27.7790 O.co2 155  HEM155      0.0000
@<TRIPOS>BOND
     1    15    14   ar
     2    16    14   ar
     3    14    13    1
     4    11     9    1
     5    13    12    1
     6    12     8    1
     7     9     8   ar
     8     9    10   ar
     9     8     7   ar
    10    10     3    2
    11    10     6   ar
    12     3    18    1
    13    22    19    1
    14     7     6   ar
    15     7     2    2
    16     6     1    1
    17     2    37    1
    18    43    41   ar
    19    18    19    1
    20    18    17    2
    21    19    20    2
    22    41    40    1
    23    41    42   ar
    24    40    39    1
    25    39    36    1
    26    37    36    1
    27    37    33    2
    28    17     1    1
    29    17    21    1
    30    24    23    1
    31    20    21    1
    32    20    23    1
    33     1    33    1
    34     1    25    1
    35    36    35    2
    36    33    34    1
    37    21     4    2
    38    35    34    1
    39    35    38    1
    40    34     5    2
    41     4    26    1
    42    25    26   ar
    43    25    29   ar
    44    26    27   ar
    45     5    29    1
    46    29    28   ar
    47    27    28   ar
    48    27    30    1
    49    28    31    1
    50    31    32    2
