@<TRIPOS>MOLECULE
1lh6_HEM_A_1.pdb
 43 50 0 0 0
SMALL
GASTEIGER

@<TRIPOS>ATOM
      1 FE         18.3610   29.1190   29.7530 Fe    154  HEM154      0.0000
      2  CHA       16.3230   26.7860   27.6970 C.2   154  HEM154      0.0000
      3  CHB       20.1490   30.3940   26.9140 C.2   154  HEM154      0.0000
      4  CHC       19.8720   31.8840   31.5740 C.2   154  HEM154      0.0000
      5  CHD       16.8300   27.6310   32.4650 C.2   154  HEM154      0.0000
      6  NA        18.2150   28.6730   27.6180 N.ar  154  HEM154      0.0000
      7  C1A       17.3310   27.6640   27.0130 C.ar  154  HEM154      0.0000
      8  C2A       17.7020   27.5620   25.6420 C.ar  154  HEM154      0.0000
      9  C3A       18.8130   28.5580   25.4440 C.ar  154  HEM154      0.0000
     10  C4A       19.1100   29.2840   26.6940 C.ar  154  HEM154      0.0000
     11  CMA       19.7530   28.8780   24.2200 C.3   154  HEM154      0.0000
     12  CAA       17.0470   26.3910   24.7080 C.3   154  HEM154      0.0000
     13  CBA       18.0810   25.4170   24.3420 C.3   154  HEM154      0.0000
     14  CGA       17.5950   24.3850   23.2500 C.2   154  HEM154      0.0000
     15  O1A       16.7760   24.6600   22.3800 O.co2 154  HEM154      0.0000
     16  O2A       18.3440   23.5340   22.9600 O.co2 154  HEM154      0.0000
     17  NB        19.7840   30.8770   29.3110 N.2   154  HEM154      0.0000
     18  C1B       20.4430   31.1210   28.1060 C.2   154  HEM154      0.0000
     19  C2B       21.5090   32.2930   28.2710 C.2   154  HEM154      0.0000
     20  C3B       21.3750   32.8090   29.5530 C.2   154  HEM154      0.0000
     21  C4B       20.2730   31.8540   30.2140 C.2   154  HEM154      0.0000
     22  CMB       22.5230   32.7490   27.1400 C.3   154  HEM154      0.0000
     23  CAB       22.1960   34.0600   30.2570 C.3   154  HEM154      0.0000
     24  CBB       22.8360   35.1380   29.5560 C.3   154  HEM154      0.0000
     25  NC        18.3640   29.6550   31.6330 N.ar  154  HEM154      0.0000
     26  C1C       19.0410   30.8480   32.2440 C.ar  154  HEM154      0.0000
     27  C2C       18.7650   30.7670   33.6750 C.ar  154  HEM154      0.0000
     28  C3C       18.0200   29.5370   33.9080 C.ar  154  HEM154      0.0000
     29  C4C       17.7250   28.8440   32.6350 C.ar  154  HEM154      0.0000
     30  CMC       19.2570   31.8390   34.7640 C.3   154  HEM154      0.0000
     31  CAC       17.5100   28.9860   35.2870 C.2   154  HEM154      0.0000
     32  CBC       18.2070   28.1880   35.9490 C.2   154  HEM154      0.0000
     33  ND        16.6570   27.6480   30.0380 N.2   154  HEM154      0.0000
     34  C1D       16.3030   27.1070   31.2740 C.2   154  HEM154      0.0000
     35  C2D       15.3160   25.8380   31.1240 C.2   154  HEM154      0.0000
     36  C3D       15.1950   25.6050   29.7870 C.2   154  HEM154      0.0000
     37  C4D       16.0440   26.7390   29.0880 C.2   154  HEM154      0.0000
     38  CMD       14.6740   24.9800   32.3340 C.3   154  HEM154      0.0000
     39  CAD       14.4470   24.3380   29.0540 C.3   154  HEM154      0.0000
     40  CBD       15.3890   23.2930   28.9040 C.3   154  HEM154      0.0000
     41  CGD       14.4660   21.9910   28.5230 C.2   154  HEM154      0.0000
     42  O1D       14.3210   21.6440   27.3170 O.co2 154  HEM154      0.0000
     43  O2D       13.9770   21.1890   29.4380 O.co2 154  HEM154      0.0000
@<TRIPOS>BOND
     1    15    14   ar
     2    16    14   ar
     3    14    13    1
     4    11     9    1
     5    13    12    1
     6    12     8    1
     7     9     8   ar
     8     9    10   ar
     9     8     7   ar
    10    10     3    2
    11    10     6   ar
    12     3    18    1
    13     7     6   ar
    14     7     2    2
    15    22    19    1
    16    42    41   ar
    17     6     1    1
    18     2    37    1
    19    18    19    1
    20    18    17    2
    21    19    20    2
    22    41    40    1
    23    41    43   ar
    24    40    39    1
    25    39    36    1
    26    37    36    1
    27    37    33    2
    28    17     1    1
    29    17    21    1
    30    20    21    1
    31    20    23    1
    32    24    23    1
    33     1    33    1
    34     1    25    1
    35    36    35    2
    36    33    34    1
    37    21     4    2
    38    35    34    1
    39    35    38    1
    40    34     5    2
    41     4    26    1
    42    25    26   ar
    43    25    29   ar
    44    26    27   ar
    45     5    29    1
    46    29    28   ar
    47    27    28   ar
    48    27    30    1
    49    28    31    1
    50    31    32    2
