@<TRIPOS>MOLECULE
1lh7_HEM_A_1.pdb
 43 50 0 0 0
SMALL
GASTEIGER

@<TRIPOS>ATOM
      1 FE         18.9000   28.3690   29.6920 Fe    154  HEM154      0.0000
      2  CHA       17.2130   25.9220   27.6810 C.2   154  HEM154      0.0000
      3  CHB       20.8380   29.6920   26.8540 C.2   154  HEM154      0.0000
      4  CHC       20.3830   31.1580   31.4870 C.2   154  HEM154      0.0000
      5  CHD       17.4910   26.9060   32.3870 C.2   154  HEM154      0.0000
      6  NA        18.9650   27.9460   27.6900 N.ar  154  HEM154      0.0000
      7  C1A       18.1250   26.8850   27.0670 C.ar  154  HEM154      0.0000
      8  C2A       18.5240   26.8060   25.6580 C.ar  154  HEM154      0.0000
      9  C3A       19.5330   27.8630   25.4270 C.ar  154  HEM154      0.0000
     10  C4A       19.8600   28.5420   26.7070 C.ar  154  HEM154      0.0000
     11  CMA       20.2530   28.3620   24.1040 C.3   154  HEM154      0.0000
     12  CAA       17.8120   25.7560   24.6560 C.3   154  HEM154      0.0000
     13  CBA       18.6950   24.7230   24.1310 C.3   154  HEM154      0.0000
     14  CGA       17.8930   24.0400   22.9510 C.2   154  HEM154      0.0000
     15  O1A       16.7100   24.2800   22.7610 O.co2 154  HEM154      0.0000
     16  O2A       18.4870   23.5590   21.9990 O.co2 154  HEM154      0.0000
     17  NB        20.4230   30.1420   29.2240 N.2   154  HEM154      0.0000
     18  C1B       21.0350   30.4560   28.0340 C.2   154  HEM154      0.0000
     19  C2B       21.8800   31.7190   28.1610 C.2   154  HEM154      0.0000
     20  C3B       21.7580   32.2010   29.4360 C.2   154  HEM154      0.0000
     21  C4B       20.8020   31.1550   30.1150 C.2   154  HEM154      0.0000
     22  CMB       22.7160   32.3200   26.9770 C.3   154  HEM154      0.0000
     23  CAB       22.5170   33.5220   30.0990 C.3   154  HEM154      0.0000
     24  CBB       22.9120   34.6240   29.3250 C.3   154  HEM154      0.0000
     25  NC        18.9170   28.9820   31.5540 N.ar  154  HEM154      0.0000
     26  C1C       19.5430   30.1560   32.1550 C.ar  154  HEM154      0.0000
     27  C2C       19.2100   30.1340   33.5740 C.ar  154  HEM154      0.0000
     28  C3C       18.4680   28.9150   33.8510 C.ar  154  HEM154      0.0000
     29  C4C       18.2670   28.1800   32.5710 C.ar  154  HEM154      0.0000
     30  CMC       19.6260   31.2590   34.6170 C.3   154  HEM154      0.0000
     31  CAC       17.9400   28.4350   35.2660 C.2   154  HEM154      0.0000
     32  CBC       18.3920   27.4330   35.9180 C.2   154  HEM154      0.0000
     33  ND        17.5940   26.6460   29.9820 N.2   154  HEM154      0.0000
     34  C1D       17.1080   26.2220   31.2020 C.2   154  HEM154      0.0000
     35  C2D       16.0780   24.9910   31.0340 C.2   154  HEM154      0.0000
     36  C3D       16.0320   24.7150   29.7010 C.2   154  HEM154      0.0000
     37  C4D       16.9670   25.7730   29.0370 C.2   154  HEM154      0.0000
     38  CMD       15.3280   24.1870   32.2080 C.3   154  HEM154      0.0000
     39  CAD       15.1980   23.5020   29.0000 C.3   154  HEM154      0.0000
     40  CBD       16.0180   22.3370   28.8370 C.3   154  HEM154      0.0000
     41  CGD       15.0130   21.0230   28.6220 C.2   154  HEM154      0.0000
     42  O1D       14.0360   20.6840   29.4230 O.co2 154  HEM154      0.0000
     43  O2D       15.3260   20.1380   27.8290 O.co2 154  HEM154      0.0000
@<TRIPOS>BOND
     1    16    14   ar
     2    15    14   ar
     3    14    13    1
     4    11     9    1
     5    13    12    1
     6    12     8    1
     7     9     8   ar
     8     9    10   ar
     9     8     7   ar
    10    10     3    2
    11    10     6   ar
    12     3    18    1
    13    22    19    1
    14     7     2    2
    15     7     6   ar
    16     2    37    1
    17     6     1    1
    18    43    41   ar
    19    18    19    1
    20    18    17    2
    21    19    20    2
    22    41    40    1
    23    41    42   ar
    24    40    39    1
    25    39    36    1
    26    37    36    1
    27    37    33    2
    28    17     1    1
    29    17    21    1
    30    24    23    1
    31    20    23    1
    32    20    21    1
    33     1    33    1
    34     1    25    1
    35    36    35    2
    36    33    34    1
    37    21     4    2
    38    35    34    1
    39    35    38    1
    40    34     5    2
    41     4    26    1
    42    25    26   ar
    43    25    29   ar
    44    26    27   ar
    45     5    29    1
    46    29    28   ar
    47    27    28   ar
    48    27    30    1
    49    28    31    1
    50    31    32    2
