@<TRIPOS>MOLECULE
1lhc_DP7_H_1.pdb
 33 34 0 0 0
SMALL
GASTEIGER

@<TRIPOS>ATOM
      1  C1        14.9200  -11.6050   19.6240 C.3   400  DP7400      0.0000
      2  B2        15.1520  -10.7780   18.3210 B     400  DP7400      0.0000
      3  C3        13.8680  -10.9770   20.5780 C.3   400  DP7400      0.0000
      4  C4        13.0240  -11.9600   21.3870 C.3   400  DP7400      0.0000
      5  C5        12.4600  -11.3720   22.6580 C.3   400  DP7400      0.0000
      6  C6        10.6870  -12.0550   24.4080 C.cat 400  DP7400      0.0000
      7  C7        18.1490  -13.1300   21.2240 C.3   400  DP7400      0.0000
      8  C8        16.8130  -12.9650   20.4300 C.2   400  DP7400      0.0000
      9  C9        19.3610  -13.0570   20.2790 C.3   400  DP7400      0.0000
     10  C10       20.0420  -14.4220   20.2840 C.3   400  DP7400      0.0000
     11  C11       19.4810  -15.1750   21.4100 C.3   400  DP7400      0.0000
     12  C12       17.4530  -14.8930   22.8660 C.2   400  DP7400      0.0000
     13  C13       18.1530  -16.1470   25.0630 C.3   400  DP7400      0.0000
     14  C14       17.6100  -16.2780   23.5950 C.3   400  DP7400      0.0000
     15  C15       15.8020  -17.8590   22.8860 C.2   400  DP7400      0.0000
     16  C16       14.3440  -18.2790   23.1070 C.3   400  DP7400      0.0000
     17  C17       21.9520  -15.6830   24.6230 C.ar  400  DP7400      0.0000
     18  C18       22.2020  -14.5660   25.4200 C.ar  400  DP7400      0.0000
     19  C19       21.1590  -13.9760   26.1020 C.ar  400  DP7400      0.0000
     20  C20       19.8530  -14.4670   25.9800 C.ar  400  DP7400      0.0000
     21  C21       19.5890  -15.5820   25.1850 C.ar  400  DP7400      0.0000
     22  C22       20.6570  -16.2080   24.4980 C.ar  400  DP7400      0.0000
     23  N1        16.2060  -11.7670   20.3800 N.am  400  DP7400      0.0000
     24  N2        11.6320  -12.3340   23.3950 N.pl3 400  DP7400      0.3300
     25  N3         9.9480  -12.9740   24.8340 N.pl3 400  DP7400      0.3300
     26  N4        10.5540  -10.7490   24.9570 N.pl3 400  DP7400      0.3300
     27  N5        18.3140  -14.4440   21.9170 N.am  400  DP7400      0.0000
     28  N6        16.2400  -16.8490   23.6650 N.am  400  DP7400      0.0000
     29  O1        16.3120  -11.0190   17.5080 O.3   400  DP7400      0.0000
     30  O2        14.0400  -10.6470   17.3290 O.3   400  DP7400      0.0000
     31  O3        16.3480  -13.9610   19.8640 O.2   400  DP7400      0.0000
     32  O4        16.4820  -14.1910   23.2090 O.2   400  DP7400      0.0000
     33  O5        16.5130  -18.4380   22.0500 O.2   400  DP7400      0.0000
@<TRIPOS>BOND
     1    30     2    1
     2    29     2    1
     3     2     1    1
     4     1    23    1
     5     1     3    1
     6    31     8    2
     7     9    10    1
     8     9     7    1
     9    10    11    1
    10    23     8   am
    11     8     7    1
    12     3     4    1
    13     7    27    1
    14     4     5    1
    15    11    27    1
    16    27    12   am
    17    33    15    2
    18     5    24    1
    19    12    32    2
    20    12    14    1
    21    15    16    1
    22    15    28   am
    23    24     6    2
    24    14    28    1
    25    14    13    1
    26     6    25    1
    27     6    26    1
    28    22    17   ar
    29    22    21   ar
    30    17    18   ar
    31    13    21    1
    32    21    20   ar
    33    18    19   ar
    34    20    19   ar
