@<TRIPOS>MOLECULE
1lhd_DI2_H_1.pdb
 31 32 0 0 0
SMALL
GASTEIGER

@<TRIPOS>ATOM
      1  B1        14.9900  -10.5580   17.9990 B     400  DI2400      0.0000
      2  C         14.6830  -11.5260   19.2030 C.3   400  DI2400      0.0000
      3  C2        13.4780  -10.9310   19.9430 C.3   400  DI2400      0.0000
      4  C3        13.0880  -11.4400   21.3240 C.3   400  DI2400      0.0000
      5  C4        11.8770  -12.3720   21.2930 C.3   400  DI2400      0.0000
      6  C5        11.5610  -12.8790   22.6160 C.3   400  DI2400      0.0000
      7  C6        17.8510  -12.8450   21.0770 C.3   400  DI2400      0.0000
      8  C7        16.6100  -12.8020   20.1260 C.2   400  DI2400      0.0000
      9  C8        19.1610  -12.6170   20.3060 C.3   400  DI2400      0.0000
     10  C9        19.8350  -13.9710   20.1480 C.3   400  DI2400      0.0000
     11  C10       19.2410  -14.8870   21.2040 C.3   400  DI2400      0.0000
     12  C11       17.1280  -14.7320   22.5490 C.2   400  DI2400      0.0000
     13  C12       17.8200  -16.0930   24.6890 C.3   400  DI2400      0.0000
     14  C13       17.2670  -16.1400   23.2010 C.3   400  DI2400      0.0000
     15  C14       15.7500  -18.0070   22.6010 C.2   400  DI2400      0.0000
     16  C15       14.3320  -18.5780   22.6250 C.3   400  DI2400      0.0000
     17  C16       21.6040  -15.3850   24.3510 C.ar  400  DI2400      0.0000
     18  C17       21.7350  -14.2320   25.1080 C.ar  400  DI2400      0.0000
     19  C18       20.6200  -13.6810   25.7410 C.ar  400  DI2400      0.0000
     20  C19       19.3620  -14.2660   25.6000 C.ar  400  DI2400      0.0000
     21  C20       19.2180  -15.4300   24.8350 C.ar  400  DI2400      0.0000
     22  C21       20.3520  -15.9950   24.2120 C.ar  400  DI2400      0.0000
     23  N         15.8820  -11.6610   20.1200 N.am  400  DI2400      0.0000
     24  N1        10.4250  -12.6060   23.3970 N.3   400  DI2400      0.0000
     25  N2        18.0470  -14.2130   21.6970 N.am  400  DI2400      0.0000
     26  N3        15.9360  -16.8030   23.1770 N.am  400  DI2400      0.0000
     27  O         13.8200  -10.4880   17.1570 O.3   400  DI2400      0.0000
     28  O1        16.0910  -10.8680   17.1680 O.3   400  DI2400      0.0000
     29  O2        16.3970  -13.7940   19.4070 O.2   400  DI2400      0.0000
     30  O3        16.1370  -14.0530   22.8650 O.2   400  DI2400      0.0000
     31  O4        16.6560  -18.6510   22.0380 O.2   400  DI2400      0.0000
@<TRIPOS>BOND
     1    27     1    1
     2    28     1    1
     3     1     2    1
     4     2     3    1
     5     2    23    1
     6    29     8    2
     7     3     4    1
     8    23     8   am
     9     8     7    1
    10    10     9    1
    11    10    11    1
    12     9     7    1
    13     7    25    1
    14    11    25    1
    15     5     4    1
    16     5     6    1
    17    25    12   am
    18    31    15    2
    19    12    30    2
    20    12    14    1
    21    15    16    1
    22    15    26   am
    23     6    24    1
    24    26    14    1
    25    14    13    1
    26    22    17   ar
    27    22    21   ar
    28    17    18   ar
    29    13    21    1
    30    21    20   ar
    31    18    19   ar
    32    20    19   ar
