@<TRIPOS>MOLECULE
1lhe_DI3_H_1.pdb
 33 34 0 0 0
SMALL
GASTEIGER

@<TRIPOS>ATOM
      1  B1        15.2270  -10.7390   18.4200 B     400  DI3400      0.0000
      2  C         15.0200  -11.8020   19.5500 C.3   400  DI3400      0.0000
      3  C2        13.6510  -11.6490   20.1690 C.3   400  DI3400      0.0000
      4  C3        13.4030  -10.7600   21.3730 C.3   400  DI3400      0.0000
      5  C4        11.9890  -11.0260   21.9850 C.3   400  DI3400      0.0000
      6  C5        12.1060  -12.0620   23.1440 C.3   400  DI3400      0.0000
      7  C6        11.0570  -11.8970   24.2260 C.2   400  DI3400      0.0000
      8  C7        18.3690  -13.0150   21.2070 C.3   400  DI3400      0.0000
      9  C8        17.0600  -12.9310   20.3290 C.2   400  DI3400      0.0000
     10  C9        19.5740  -12.9860   20.2100 C.3   400  DI3400      0.0000
     11  C10       20.3510  -14.2750   20.3420 C.2   400  DI3400      0.0000
     12  C11       19.6450  -15.1480   21.3590 C.2   400  DI3400      0.0000
     13  C12       17.6880  -14.7610   22.8690 C.2   400  DI3400      0.0000
     14  C13       18.4080  -16.1500   24.9750 C.3   400  DI3400      0.0000
     15  C14       17.7970  -16.1760   23.5460 C.3   400  DI3400      0.0000
     16  C15       16.0080  -17.8050   22.9200 C.2   400  DI3400      0.0000
     17  C16       14.5280  -18.1840   23.0170 C.3   400  DI3400      0.0000
     18  C17       22.1770  -15.3420   24.8130 C.ar  400  DI3400      0.0000
     19  C18       22.2570  -14.2100   25.6020 C.ar  400  DI3400      0.0000
     20  C19       21.1000  -13.6840   26.1890 C.ar  400  DI3400      0.0000
     21  C20       19.8640  -14.2960   25.9680 C.ar  400  DI3400      0.0000
     22  C21       19.7670  -15.4480   25.1890 C.ar  400  DI3400      0.0000
     23  C22       20.9440  -15.9660   24.6050 C.ar  400  DI3400      0.0000
     24  N         16.2180  -11.8740   20.4520 N.am  400  DI3400      0.0000
     25  N1        10.3560  -12.8830   24.5780 N.pl3 400  DI3400      0.5000
     26  N2        10.8390  -10.6520   24.8590 N.pl3 400  DI3400      0.5000
     27  N3        18.5440  -14.3470   21.8890 N.am  400  DI3400      0.0000
     28  N4        16.3990  -16.6990   23.5790 N.am  400  DI3400      0.0000
     29  O         13.9810  -10.6210   17.6720 O.3   400  DI3400      0.0000
     30  O1        16.2960  -11.0270   17.5220 O.3   400  DI3400      0.0000
     31  O2        16.8750  -13.8740   19.5370 O.2   400  DI3400      0.0000
     32  O3        16.7520  -14.0420   23.2410 O.2   400  DI3400      0.0000
     33  O4        16.7980  -18.5230   22.2770 O.2   400  DI3400      0.0000
@<TRIPOS>BOND
     1    30     1    1
     2    29     1    1
     3     1     2    1
     4    31     9    2
     5     2     3    1
     6     2    24    1
     7     3     4    1
     8    10    11    1
     9    10     8    1
    10     9    24   am
    11     9     8    1
    12    11    12    2
    13     8    27    1
    14    12    27    1
    15     4     5    1
    16    27    13   am
    17     5     6    1
    18    33    16    2
    19    13    32    2
    20    13    15    1
    21    16    17    1
    22    16    28   am
    23     6     7    1
    24    15    28    1
    25    15    14    1
    26     7    25    2
    27     7    26    1
    28    23    18   ar
    29    23    22   ar
    30    18    19   ar
    31    14    22    1
    32    22    21   ar
    33    19    20   ar
    34    21    20   ar
