@<TRIPOS>MOLECULE
1lhf_DI4_H_1.pdb
 32 33 0 0 0
SMALL
GASTEIGER

@<TRIPOS>ATOM
      1  B1        14.6550  -10.0450   18.7550 B     400  DI4400      0.0000
      2  C         14.4440  -11.0370   19.9240 C.3   400  DI4400      0.0000
      3  C2        13.3030  -10.4970   20.8200 C.3   400  DI4400      0.0000
      4  C3        12.2350  -11.5050   21.2300 C.3   400  DI4400      0.0000
      5  C4        12.3410  -12.0080   22.6520 C.3   400  DI4400      0.0000
      6  C5        11.1360  -11.6510   23.4080 C.3   400  DI4400      0.0000
      7  C6        10.6410  -12.3570   24.5400 C.3   400  DI4400      0.0000
      8  C7        17.6240  -12.8060   21.3610 C.3   400  DI4400      0.0000
      9  C8        16.3620  -12.5120   20.4970 C.2   400  DI4400      0.0000
     10  C9        18.9070  -12.7450   20.4950 C.3   400  DI4400      0.0000
     11  C10       19.3970  -14.1690   20.2580 C.3   400  DI4400      0.0000
     12  C11       18.6330  -15.0630   21.2110 C.3   400  DI4400      0.0000
     13  C12       16.9010  -14.5890   22.9670 C.2   400  DI4400      0.0000
     14  C13       17.4120  -15.9780   25.1380 C.3   400  DI4400      0.0000
     15  C14       17.0000  -16.0110   23.6160 C.3   400  DI4400      0.0000
     16  C15       15.6330  -17.9490   22.9330 C.2   400  DI4400      0.0000
     17  C16       14.2660  -18.6080   22.8930 C.3   400  DI4400      0.0000
     18  C17       21.2150  -15.3010   24.9640 C.ar  400  DI4400      0.0000
     19  C18       21.3540  -14.2650   25.8730 C.ar  400  DI4400      0.0000
     20  C19       20.2370  -13.7750   26.5520 C.ar  400  DI4400      0.0000
     21  C20       18.9770  -14.3250   26.3080 C.ar  400  DI4400      0.0000
     22  C21       18.8250  -15.3760   25.4060 C.ar  400  DI4400      0.0000
     23  C22       19.9550  -15.8530   24.7180 C.ar  400  DI4400      0.0000
     24  N         15.6600  -11.3750   20.7340 N.am  400  DI4400      0.0000
     25  N1        10.2990  -11.6700   25.7300 N.3   400  DI4400      0.0000
     26  N2        17.6880  -14.1870   21.9360 N.am  400  DI4400      0.0000
     27  N3        15.6990  -16.6910   23.4190 N.am  400  DI4400      0.0000
     28  O         13.4340  -10.0080   17.9590 O.3   400  DI4400      0.0000
     29  O1        15.7240  -10.3260   17.8300 O.3   400  DI4400      0.0000
     30  O2        16.0480  -13.3280   19.6110 O.2   400  DI4400      0.0000
     31  O3        16.0840  -13.8150   23.4640 O.2   400  DI4400      0.0000
     32  O4        16.6510  -18.5460   22.5280 O.2   400  DI4400      0.0000
@<TRIPOS>BOND
     1    29     1    1
     2    28     1    1
     3     1     2    1
     4    30     9    2
     5     2    24    1
     6     2     3    1
     7    11    10    1
     8    11    12    1
     9    10     8    1
    10     9    24   am
    11     9     8    1
    12     3     4    1
    13    12    26    1
    14     4     5    1
    15     8    26    1
    16    26    13   am
    17    32    16    2
    18     5     6    1
    19    17    16    1
    20    16    27   am
    21    13    31    2
    22    13    15    1
    23     6     7    1
    24    27    15    1
    25    15    14    1
    26     7    25    1
    27    23    18   ar
    28    23    22   ar
    29    18    19   ar
    30    14    22    1
    31    22    21   ar
    32    19    20   ar
    33    21    20   ar
