@<TRIPOS>MOLECULE
1lhg_DI5_H_1.pdb
 30 31 0 0 0
SMALL
GASTEIGER

@<TRIPOS>ATOM
      1  B1        14.8880  -10.4790   18.7170 B     400  DI5400      0.0000
      2  C         14.6200  -11.4890   19.9120 C.3   400  DI5400      0.0000
      3  C2        13.6290  -10.7770   20.8570 C.3   400  DI5400      0.0000
      4  C3        13.2030  -11.4530   22.1520 C.3   400  DI5400      0.0000
      5  C4        12.2630  -12.6450   21.9840 C.3   400  DI5400      0.0000
      6  C6        16.5330  -12.9830   20.6010 C.2   400  DI5400      0.0000
      7  C5        17.9160  -13.0830   21.3250 C.3   400  DI5400      0.0000
      8  C7        19.0650  -12.9950   20.2910 C.3   400  DI5400      0.0000
      9  C8        19.7670  -14.3580   20.2560 C.3   400  DI5400      0.0000
     10  C9        19.3660  -15.0820   21.5340 C.3   400  DI5400      0.0000
     11  C10       17.3930  -14.8080   23.0500 C.2   400  DI5400      0.0000
     12  C11       18.3180  -15.8480   25.2350 C.3   400  DI5400      0.0000
     13  C12       17.6650  -16.1640   23.8280 C.3   400  DI5400      0.0000
     14  C13       15.8550  -17.7690   23.2010 C.2   400  DI5400      0.0000
     15  C14       14.4490  -18.3140   23.4510 C.3   400  DI5400      0.0000
     16  C15       22.1240  -15.6250   24.5470 C.ar  400  DI5400      0.0000
     17  C16       22.4880  -14.5720   25.3720 C.ar  400  DI5400      0.0000
     18  C17       21.5220  -13.9200   26.1550 C.ar  400  DI5400      0.0000
     19  C18       20.1890  -14.3230   26.0870 C.ar  400  DI5400      0.0000
     20  C19       19.8020  -15.3890   25.2570 C.ar  400  DI5400      0.0000
     21  C20       20.7960  -16.0430   24.4940 C.ar  400  DI5400      0.0000
     22  N         15.9100  -11.7920   20.6190 N.am  400  DI5400      0.0000
     23  N1        11.2060  -12.5960   23.0310 N.3   400  DI5400      0.0000
     24  N2        18.1880  -14.3690   22.0470 N.am  400  DI5400      0.0000
     25  N3        16.3270  -16.7940   24.0120 N.am  400  DI5400      0.0000
     26  O         13.6950  -10.2820   17.9260 O.3   400  DI5400      0.0000
     27  O1        15.9160  -10.9090   17.8120 O.3   400  DI5400      0.0000
     28  O2        16.0630  -13.9780   20.0480 O.2   400  DI5400      0.0000
     29  O3        16.4230  -14.1440   23.4190 O.2   400  DI5400      0.0000
     30  O4        16.5180  -18.2580   22.2730 O.2   400  DI5400      0.0000
@<TRIPOS>BOND
     1    27     1    1
     2    26     1    1
     3     1     2    1
     4     2    22    1
     5     2     3    1
     6    28     6    2
     7     9     8    1
     8     9    10    1
     9     8     7    1
    10     6    22   am
    11     6     7    1
    12     3     4    1
    13     7    24    1
    14    10    24    1
    15     5     4    1
    16     5    23    1
    17    24    11   am
    18    30    14    2
    19    11    29    2
    20    11    13    1
    21    14    15    1
    22    14    25   am
    23    13    25    1
    24    13    12    1
    25    21    16   ar
    26    21    20   ar
    27    16    17   ar
    28    12    20    1
    29    20    19   ar
    30    17    18   ar
    31    19    18   ar
