@<TRIPOS>MOLECULE
1lhn_AON_A_1.pdb
 21 24 0 0 0
SMALL
GASTEIGER

@<TRIPOS>ATOM
      1  C1        23.7310    9.9380   30.9730 C.3   301  AON301      0.0026
      2  C10       23.0970   10.6580   32.2060 C.3   301  AON301      0.0002
      3  C11       21.1160    8.9290   32.3030 C.3   301  AON301      0.0001
      4  C12       19.5610    8.7480   32.3230 C.3   301  AON301      0.0024
      5  C13       18.9290    9.4890   33.5220 C.3   301  AON301      0.0282
      6  C14       19.3150   11.0070   33.4180 C.3   301  AON301      0.0024
      7  C15       18.4300   11.6960   34.4860 C.3   301  AON301      0.0027
      8  C16       17.1370   10.7990   34.5060 C.3   301  AON301      0.0329
      9  C17       17.4010    9.6570   33.5000 C.3   301  AON301      0.1519
     10  C18       19.3530    8.7900   34.8500 C.3   301  AON301      0.0025
     11  C19       23.7370   10.0350   33.5120 C.3   301  AON301      0.0000
     12  C2        25.2670   10.2060   30.8440 C.3   301  AON301      0.0329
     13  C3        25.5120   11.7420   30.7820 C.3   301  AON301      0.1520
     14  C4        24.9290   12.4820   32.0050 C.3   301  AON301      0.0329
     15  C5        23.4020   12.2190   32.1000 C.3   301  AON301      0.0025
     16  C6        22.7770   12.9630   33.3130 C.3   301  AON301      0.0001
     17  C7        21.2450   12.7270   33.3600 C.3   301  AON301      0.0000
     18  C8        20.8590   11.2250   33.4390 C.3   301  AON301      0.0001
     19  C9        21.5250   10.4360   32.2360 C.3   301  AON301      0.0000
     20  O3        26.9300   11.9900   30.6610 O.3   301  AON301     -0.2232
     21  O17       16.8390   10.0500   32.1840 O.3   301  AON301     -0.2232
@<TRIPOS>BOND
     1    20    13    1
     2    13    12    1
     3    13    14    1
     4    12     1    1
     5     1     2    1
     6    14    15    1
     7    15     2    1
     8    15    16    1
     9    21     9    1
    10     2    19    1
    11     2    11    1
    12    19     3    1
    13    19    18    1
    14     3     4    1
    15     4     5    1
    16    16    17    1
    17    17    18    1
    18     6    18    1
    19     6     5    1
    20     6     7    1
    21     9     5    1
    22     9     8    1
    23     5    10    1
    24     7     8    1
