@<TRIPOS>MOLECULE
1lho_AOM_A_1.pdb
 21 24 0 0 0
SMALL
GASTEIGER

@<TRIPOS>ATOM
      1  C1        23.9090    9.9710   30.8320 C.3   301  AOM301      0.0026
      2  C10       23.3110   10.6280   32.1130 C.3   301  AOM301      0.0002
      3  C11       21.2280    9.0200   32.0830 C.3   301  AOM301      0.0001
      4  C12       19.6640    8.9240   32.0890 C.3   301  AOM301      0.0024
      5  C13       19.0480    9.6620   33.2930 C.3   301  AOM301      0.0282
      6  C14       19.5520   11.1410   33.3070 C.3   301  AOM301      0.0024
      7  C15       18.6810   11.8100   34.4110 C.3   301  AOM301      0.0027
      8  C16       17.3040   11.0230   34.2930 C.3   301  AOM301      0.0329
      9  C17       17.5510    9.9770   33.1870 C.3   301  AOM301      0.1519
     10  C18       19.3570    8.8690   34.6140 C.3   301  AOM301      0.0025
     11  C19       23.8960    9.8600   33.3630 C.3   301  AOM301      0.0000
     12  C2        25.4600   10.1710   30.7200 C.3   301  AOM301      0.0329
     13  C3        25.7790   11.6910   30.7630 C.3   301  AOM301      0.1520
     14  C4        25.2450   12.3640   32.0570 C.3   301  AOM301      0.0329
     15  C5        23.7100   12.1830   32.1350 C.3   301  AOM301      0.0025
     16  C6        23.1250   12.8590   33.4040 C.3   301  AOM301      0.0001
     17  C7        21.5880   12.7150   33.4100 C.3   301  AOM301      0.0000
     18  C8        21.1030   11.2410   33.3810 C.3   301  AOM301      0.0001
     19  C9        21.7310   10.5040   32.1260 C.3   301  AOM301      0.0000
     20  O3        27.2040   11.8800   30.6560 O.3   301  AOM301     -0.2232
     21  O17       16.7000    8.8370   33.4000 O.3   301  AOM301     -0.2232
@<TRIPOS>BOND
     1    20    13    1
     2    12    13    1
     3    12     1    1
     4    13    14    1
     5     1     2    1
     6    14    15    1
     7     3     4    1
     8     3    19    1
     9     4     5    1
    10     2    19    1
    11     2    15    1
    12     2    11    1
    13    19    18    1
    14    15    16    1
    15     9     5    1
    16     9    21    1
    17     9     8    1
    18     5     6    1
    19     5    10    1
    20     6    18    1
    21     6     7    1
    22    18    17    1
    23    16    17    1
    24     8     7    1
