@<TRIPOS>MOLECULE
1lhr_ATP_A_1.pdb
 31 33 0 0 0
SMALL
GASTEIGER

@<TRIPOS>ATOM
      1  PG        26.3890   -1.6950   57.5700 P.3   401  ATP401      0.5373
      2  O1G       24.9660   -1.2970   57.4970 O.3   401  ATP401     -0.1143
      3  O2G       26.6850   -3.0810   57.1480 O.3   401  ATP401     -0.1143
      4  O3G       27.2650   -0.6480   56.8970 O.2   401  ATP401     -0.2221
      5  PB        27.1850   -2.8280   60.2350 P.3   401  ATP401      0.2277
      6  O1B       28.6790   -2.9230   60.2260 O.3   401  ATP401     -0.4368
      7  O2B       26.3600   -4.0600   60.0940 O.2   401  ATP401     -0.5168
      8  O3B       26.7680   -1.6840   59.1310 O.3   401  ATP401     -0.2258
      9  PA        25.8130   -1.9870   62.5810 P.3   401  ATP401      0.2189
     10  O1A       24.4630   -1.8190   61.9930 O.2   401  ATP401     -0.5170
     11  O2A       26.0930   -3.1270   63.4920 O.3   401  ATP401     -0.4371
     12  O3A       26.8350   -1.9690   61.4170 O.3   401  ATP401     -0.2700
     13  O5'       26.2330   -0.6500   63.2530 O.3   401  ATP401     -0.3112
     14  C5'       27.5120   -0.0090   63.0740 C.3   401  ATP401      0.1813
     15  C4'       27.5650    1.1540   64.0040 C.3   401  ATP401      0.1821
     16  O4'       26.4020    1.9640   63.6770 O.3   401  ATP401     -0.3135
     17  C3'       27.4430    0.7810   65.4780 C.3   401  ATP401      0.2184
     18  O3'       28.2840    1.6960   66.2100 O.3   401  ATP401     -0.2174
     19  C2'       25.9720    0.9530   65.7250 C.3   401  ATP401      0.2570
     20  O2'       25.6480    1.2710   67.0680 O.3   401  ATP401     -0.2130
     21  C1'       25.5340    2.0950   64.8080 C.3   401  ATP401      0.3186
     22  N9        24.1080    1.9770   64.3650 N.pl3 401  ATP401     -0.1439
     23  C8        23.5790    1.4950   63.1800 C.3   401  ATP401      0.3377
     24  N7        22.2790    1.5320   63.1080 N.2   401  ATP401     -0.2095
     25  C5        21.9230    2.0840   64.3350 C.2   401  ATP401      0.2526
     26  C6        20.6640    2.4000   64.9280 C.2   401  ATP401      0.4393
     27  N6        19.5250    2.1910   64.2810 N.pl3 401  ATP401      0.2180
     28  N1        20.6500    2.9430   66.1820 N.2   401  ATP401      0.0021
     29  C2        21.8080    3.1530   66.8310 C.3   401  ATP401      0.5254
     30  N3        23.0580    2.8990   66.3870 N.2   401  ATP401     -0.0055
     31  C4        23.0320    2.3480   65.1140 C.2   401  ATP401      0.3518
@<TRIPOS>BOND
     1     4     1    2
     2     3     1    1
     3     2     1    1
     4     1     8    1
     5     8     5    1
     6     7     5    2
     7     6     5    1
     8     5    12    1
     9    12     9    1
    10    10     9    2
    11     9    13    1
    12     9    11    1
    13    14    13    1
    14    14    15    1
    15    24    23    1
    16    24    25    2
    17    23    22    1
    18    16    15    1
    19    16    21    1
    20    15    17    1
    21    27    26    1
    22    25    26    1
    23    25    31    1
    24    22    21    1
    25    22    31    1
    26    21    19    1
    27    26    28    2
    28    31    30    2
    29    17    19    1
    30    17    18    1
    31    19    20    1
    32    28    29    1
    33    30    29    1
