@<TRIPOS>MOLECULE
1lhs_HEM_A_1.pdb
 43 50 0 0 0
SMALL
GASTEIGER

@<TRIPOS>ATOM
      1  CHA       12.3370    0.2700   22.4420 C.2   155  HEM155      0.0000
      2  CHB       14.5930    1.3520   18.3950 C.2   155  HEM155      0.0000
      3  CHC       11.5540   -1.3620   15.8140 C.2   155  HEM155      0.0000
      4  CHD        9.3950   -2.5760   19.9510 C.2   155  HEM155      0.0000
      5  C1A       13.1080    0.8980   21.4820 C.ar  155  HEM155      0.0000
      6  C2A       14.3350    1.5530   21.8190 C.ar  155  HEM155      0.0000
      7  C3A       14.9160    2.0310   20.7030 C.ar  155  HEM155      0.0000
      8  C4A       14.0790    1.4760   19.6530 C.ar  155  HEM155      0.0000
      9  CMA       16.0850    3.0510   20.4350 C.3   155  HEM155      0.0000
     10  CAA       14.7020    1.7170   23.3000 C.3   155  HEM155      0.0000
     11  CBA       16.1180    1.2230   23.6260 C.3   155  HEM155      0.0000
     12  CGA       16.2090   -0.2770   23.5970 C.2   155  HEM155      0.0000
     13  O1A       15.4270   -0.9300   24.3440 O.co2 155  HEM155      0.0000
     14  O2A       17.0740   -0.7580   22.8490 O.co2 155  HEM155      0.0000
     15  C1B       13.9110    0.8290   17.3140 C.2   155  HEM155      0.0000
     16  C2B       14.3270    0.8190   15.8910 C.2   155  HEM155      0.0000
     17  C3B       13.4490    0.0600   15.2150 C.2   155  HEM155      0.0000
     18  C4B       12.6760   -0.6430   16.2080 C.2   155  HEM155      0.0000
     19  CMB       15.4040    1.7150   15.1940 C.3   155  HEM155      0.0000
     20  CAB       13.1860    0.1650   13.6860 C.2   155  HEM155      0.0000
     21  CBB       13.8550   -0.5460   12.8970 C.2   155  HEM155      0.0000
     22  C1C       10.7290   -2.0680   16.6820 C.ar  155  HEM155      0.0000
     23  C2C        9.4840   -2.7090   16.3130 C.ar  155  HEM155      0.0000
     24  C3C        8.9320   -3.1040   17.4820 C.ar  155  HEM155      0.0000
     25  C4C        9.6870   -2.5490   18.5990 C.ar  155  HEM155      0.0000
     26  CMC        8.9340   -3.0170   14.9100 C.3   155  HEM155      0.0000
     27  CAC        7.7240   -4.0220   17.5920 C.2   155  HEM155      0.0000
     28  CBC        6.5960   -3.5180   18.0330 C.2   155  HEM155      0.0000
     29  C1D       10.1280   -2.0340   20.9960 C.2   155  HEM155      0.0000
     30  C2D        9.7730   -2.2260   22.4150 C.2   155  HEM155      0.0000
     31  C3D       10.5650   -1.4340   23.1140 C.2   155  HEM155      0.0000
     32  C4D       11.5560   -0.8440   22.1920 C.2   155  HEM155      0.0000
     33  CMD        8.7160   -3.2200   22.9720 C.3   155  HEM155      0.0000
     34  CAD       10.3890   -1.1910   24.6220 C.3   155  HEM155      0.0000
     35  CBD        9.7900    0.1830   24.9460 C.3   155  HEM155      0.0000
     36  CGD        9.6690    0.3530   26.4300 C.2   155  HEM155      0.0000
     37  O1D        8.5780    0.7200   26.8290 O.co2 155  HEM155      0.0000
     38  O2D       10.5350   -0.1310   27.1850 O.co2 155  HEM155      0.0000
     39  NA        13.2740    0.4910   20.1950 N.ar  155  HEM155      0.0000
     40  NB        12.9260   -0.0790   17.4920 N.2   155  HEM155      0.0000
     41  NC        10.7670   -1.9090   18.0930 N.ar  155  HEM155      0.0000
     42  ND        11.2680   -1.2430   20.9100 N.2   155  HEM155      0.0000
     43 FE         12.0270   -0.6810   19.2200 Fe    155  HEM155      0.0000
@<TRIPOS>BOND
     1    21    20    2
     2    20    17    1
     3    26    23    1
     4    19    16    1
     5    17    16    2
     6    17    18    1
     7     3    18    2
     8     3    22    1
     9    16    15    1
    10    18    40    1
    11    23    22   ar
    12    23    24   ar
    13    22    41   ar
    14    15    40    2
    15    15     2    1
    16    24    27    1
    17    24    25   ar
    18    40    43    1
    19    27    28    2
    20    41    25   ar
    21    41    43    1
    22     2     8    2
    23    25     4    1
    24    43    39    1
    25    43    42    1
    26     8    39   ar
    27     8     7   ar
    28     4    29    2
    29    39     5   ar
    30     9     7    1
    31     7     6   ar
    32    42    29    1
    33    42    32    2
    34    29    30    1
    35     5     6   ar
    36     5     1    2
    37     6    10    1
    38    32     1    1
    39    32    31    1
    40    30    33    1
    41    30    31    2
    42    14    12   ar
    43    31    34    1
    44    10    11    1
    45    12    11    1
    46    12    13   ar
    47    34    35    1
    48    35    36    1
    49    36    37   ar
    50    36    38   ar
