@<TRIPOS>MOLECULE
1lht_HEM_A_1.pdb
 43 50 0 0 0
SMALL
GASTEIGER

@<TRIPOS>ATOM
      1  CHA       12.3330    0.2630   22.2860 C.2   155  HEM155      0.0000
      2  CHB       14.4540    1.3820   18.3050 C.2   155  HEM155      0.0000
      3  CHC       11.5580   -1.4540   15.8130 C.2   155  HEM155      0.0000
      4  CHD        9.3220   -2.5890   19.9470 C.2   155  HEM155      0.0000
      5  C1A       13.2650    0.7090   21.4010 C.ar  155  HEM155      0.0000
      6  C2A       14.2460    1.6910   21.7810 C.ar  155  HEM155      0.0000
      7  C3A       14.8130    2.1340   20.6740 C.ar  155  HEM155      0.0000
      8  C4A       14.1300    1.3440   19.6380 C.ar  155  HEM155      0.0000
      9  CMA       16.0460    2.9950   20.3940 C.3   155  HEM155      0.0000
     10  CAA       14.5300    1.9100   23.3140 C.3   155  HEM155      0.0000
     11  CBA       15.8910    1.4370   23.8340 C.3   155  HEM155      0.0000
     12  CGA       15.9000   -0.0630   23.6720 C.2   155  HEM155      0.0000
     13  O1A       15.0620   -0.6950   24.3480 O.co2 155  HEM155      0.0000
     14  O2A       16.7010   -0.5930   22.9070 O.co2 155  HEM155      0.0000
     15  C1B       13.7800    0.7170   17.2900 C.2   155  HEM155      0.0000
     16  C2B       14.2420    0.7670   15.8910 C.2   155  HEM155      0.0000
     17  C3B       13.4590   -0.0620   15.1930 C.2   155  HEM155      0.0000
     18  C4B       12.6280   -0.6940   16.1860 C.2   155  HEM155      0.0000
     19  CMB       15.4440    1.7290   15.2890 C.3   155  HEM155      0.0000
     20  CAB       13.2640    0.0290   13.6250 C.2   155  HEM155      0.0000
     21  CBB       12.9810   -0.9930   13.0000 C.2   155  HEM155      0.0000
     22  C1C       10.7020   -2.0870   16.7020 C.ar  155  HEM155      0.0000
     23  C2C        9.5090   -2.8450   16.3600 C.ar  155  HEM155      0.0000
     24  C3C        8.8690   -3.0760   17.5100 C.ar  155  HEM155      0.0000
     25  C4C        9.6550   -2.5440   18.5730 C.ar  155  HEM155      0.0000
     26  CMC        9.0730   -3.1560   14.9170 C.3   155  HEM155      0.0000
     27  CAC        7.5810   -3.8480   17.8100 C.2   155  HEM155      0.0000
     28  CBC        6.8560   -4.2690   16.8520 C.2   155  HEM155      0.0000
     29  C1D       10.0940   -1.9430   20.9390 C.2   155  HEM155      0.0000
     30  C2D        9.7830   -2.1960   22.3530 C.2   155  HEM155      0.0000
     31  C3D       10.4710   -1.3480   22.9680 C.2   155  HEM155      0.0000
     32  C4D       11.4370   -0.7370   21.9690 C.2   155  HEM155      0.0000
     33  CMD        8.5790   -3.0930   22.8640 C.3   155  HEM155      0.0000
     34  CAD       10.3300   -0.9660   24.4570 C.3   155  HEM155      0.0000
     35  CBD        9.5580    0.3070   24.6360 C.3   155  HEM155      0.0000
     36  CGD        9.4200    0.6400   26.2270 C.2   155  HEM155      0.0000
     37  O1D        8.4530    0.2960   26.7850 O.co2 155  HEM155      0.0000
     38  O2D       10.2360    1.1570   26.7820 O.co2 155  HEM155      0.0000
     39  NA        13.1480    0.5640   20.0820 N.ar  155  HEM155      0.0000
     40  NB        12.8400   -0.2010   17.4880 N.2   155  HEM155      0.0000
     41  NC        10.8540   -1.9640   18.0640 N.ar  155  HEM155      0.0000
     42  ND        11.3050   -1.2480   20.7370 N.2   155  HEM155      0.0000
     43 FE         12.0160   -0.7150   19.1040 Fe    155  HEM155      0.0000
@<TRIPOS>BOND
     1    21    20    2
     2    20    17    1
     3    26    23    1
     4    17    16    2
     5    17    18    1
     6    19    16    1
     7     3    18    2
     8     3    22    1
     9    16    15    1
    10    18    40    1
    11    23    22   ar
    12    23    24   ar
    13    22    41   ar
    14    28    27    2
    15    15    40    2
    16    15     2    1
    17    40    43    1
    18    24    27    1
    19    24    25   ar
    20    41    25   ar
    21    41    43    1
    22     2     8    2
    23    25     4    1
    24    43    39    1
    25    43    42    1
    26     8    39   ar
    27     8     7   ar
    28     4    29    2
    29    39     5   ar
    30     9     7    1
    31     7     6   ar
    32    42    29    1
    33    42    32    2
    34    29    30    1
    35     5     6   ar
    36     5     1    2
    37     6    10    1
    38    32     1    1
    39    32    31    1
    40    30    33    1
    41    30    31    2
    42    14    12   ar
    43    31    34    1
    44    10    11    1
    45    12    11    1
    46    12    13   ar
    47    34    35    1
    48    35    36    1
    49    36    38   ar
    50    36    37   ar
