@<TRIPOS>MOLECULE
1lhu_EST_A_1.pdb
 20 23 0 0 0
SMALL
GASTEIGER

@<TRIPOS>ATOM
      1  C1        20.8340    8.7500   33.1660 C.ar  301  EST301     -0.0013
      2  C2        19.5420    8.2930   33.2950 C.ar  301  EST301      0.0417
      3  C3        18.4990    9.1910   33.5750 C.ar  301  EST301      0.1954
      4  O3        17.2330    8.6960   33.6900 O.3   301  EST301     -0.2866
      5  C4        18.8040   10.5710   33.7190 C.ar  301  EST301      0.0375
      6  C5        20.1150   11.0470   33.5880 C.ar  301  EST301     -0.0230
      7  C6        20.3720   12.5580   33.7540 C.3   301  EST301      0.0261
      8  C7        21.8630   12.9870   33.6970 C.3   301  EST301      0.0050
      9  C8        22.6880   12.1520   32.7090 C.3   301  EST301      0.0044
     10  C9        22.6420   10.6140   33.1440 C.3   301  EST301      0.0220
     11  C10       21.1850   10.1210   33.2980 C.ar  301  EST301     -0.0263
     12  C11       23.4760    9.7400   32.1680 C.3   301  EST301      0.0044
     13  C12       24.9130   10.2600   32.0010 C.3   301  EST301      0.0028
     14  C13       24.9570   11.7460   31.5500 C.3   301  EST301      0.0282
     15  C14       24.1760   12.5870   32.6000 C.3   301  EST301      0.0028
     16  C15       24.4940   14.0470   32.2090 C.3   301  EST301      0.0027
     17  C16       25.9340   13.9470   31.6090 C.3   301  EST301      0.0329
     18  C17       26.3000   12.4550   31.6550 C.3   301  EST301      0.1519
     19  O17       27.1830   12.1630   30.5530 O.3   301  EST301     -0.2232
     20  C18       24.3800   11.8400   30.1030 C.3   301  EST301      0.0025
@<TRIPOS>BOND
     1    20    14    1
     2    19    18    1
     3    14    18    1
     4    14    13    1
     5    14    15    1
     6    17    18    1
     7    17    16    1
     8    13    12    1
     9    12    10    1
    10    16    15    1
    11    15     9    1
    12     9    10    1
    13     9     8    1
    14    10    11    1
    15     1     2   ar
    16     1    11   ar
    17     2     3   ar
    18    11     6   ar
    19     3     4    1
    20     3     5   ar
    21     6     5   ar
    22     6     7    1
    23     8     7    1
