@<TRIPOS>MOLECULE
1lhv_NOG_A_1.pdb
 23 26 0 0 0
SMALL
GASTEIGER

@<TRIPOS>ATOM
      1  C1        24.3870    9.8500   30.6970 C.3   301  NOG301      0.0121
      2  C2        25.8070   10.2680   30.3260 C.3   301  NOG301      0.0695
      3  C3        26.1390   11.7200   30.5610 C.2   301  NOG301      0.1725
      4  C4        25.3140   12.4880   31.5200 C.2   301  NOG301      0.0290
      5  C5        24.2440   11.9660   32.1810 C.2   301  NOG301     -0.0417
      6  C6        23.4550   12.8040   33.1720 C.3   301  NOG301      0.0221
      7  C7        21.9170   12.7020   32.9620 C.3   301  NOG301      0.0044
      8  C8        21.4160   11.2390   32.8990 C.3   301  NOG301      0.0007
      9  C9        22.1820   10.4840   31.7820 C.3   301  NOG301      0.0037
     10  C10       23.7460   10.5010   31.9740 C.3   301  NOG301      0.0188
     11  C11       21.6630    9.0100   31.6260 C.3   301  NOG301      0.0004
     12  C12       20.1190    8.9350   31.4350 C.3   301  NOG301      0.0033
     13  C13       19.3660    9.6410   32.5950 C.3   301  NOG301      0.0366
     14  C14       19.8930   11.1350   32.6490 C.3   301  NOG301      0.0034
     15  C15       18.8980   11.8080   33.6140 C.3   301  NOG301      0.0037
     16  C16       17.5640   11.0280   33.4140 C.3   301  NOG301      0.0430
     17  C17       17.8360    9.9190   32.3720 C.3   301  NOG301      0.1797
     18  C18       19.5690    8.8630   33.9500 C.3   301  NOG301      0.0033
     19  C19       19.5490    7.3340   33.9450 C.3   301  NOG301      0.0001
     20  C20       17.5150   10.4140   30.9880 C.1   301  NOG301     -0.0491
     21  C21       17.2360   10.7760   29.9140 C.1   301  NOG301     -0.0117
     22  O3        27.0740   12.2190   29.9750 O.2   301  NOG301     -0.2914
     23  O17       17.0130    8.7790   32.6010 O.3   301  NOG301     -0.2124
@<TRIPOS>BOND
     1    21    20    3
     2    22     3    2
     3     2     3    1
     4     2     1    1
     5     3     4    1
     6     1    10    1
     7    20    17    1
     8    12    11    1
     9    12    13    1
    10     4     5    2
    11    11     9    1
    12     9    10    1
    13     9     8    1
    14    10     5    1
    15     5     6    1
    16    17    13    1
    17    17    23    1
    18    17    16    1
    19    13    14    1
    20    13    18    1
    21    14     8    1
    22    14    15    1
    23     8     7    1
    24     7     6    1
    25    16    15    1
    26    19    18    1
