@<TRIPOS>MOLECULE
1lhw_ESM_A_1.pdb
 22 25 0 0 0
SMALL
GASTEIGER

@<TRIPOS>ATOM
      1  C1        20.5540    9.0130   33.4050 C.ar  301  ESM301      0.0356
      2  C10       20.9210   10.3670   33.4410 C.ar  301  ESM301     -0.0232
      3  C11       23.1460    9.8710   32.3250 C.3   301  ESM301      0.0044
      4  C12       24.5870   10.3250   32.1460 C.3   301  ESM301      0.0028
      5  C13       24.7000   11.7870   31.6690 C.3   301  ESM301      0.0282
      6  C14       23.9390   12.6610   32.6610 C.3   301  ESM301      0.0028
      7  C15       24.3180   14.0970   32.2300 C.3   301  ESM301      0.0027
      8  C16       25.7490   13.9280   31.6970 C.3   301  ESM301      0.0329
      9  C17       26.0630   12.4400   31.7880 C.3   301  ESM301      0.1519
     10  C18       24.1420   11.8940   30.2190 C.3   301  ESM301      0.0025
     11  C2        19.2630    8.5960   33.5510 C.ar  301  ESM301      0.1770
     12  C3        18.2560    9.5210   33.7390 C.ar  301  ESM301      0.2289
     13  C4        18.5920   10.8680   33.7950 C.ar  301  ESM301      0.0406
     14  C5        19.8940   11.3040   33.6540 C.ar  301  ESM301     -0.0228
     15  C6        20.1630   12.8100   33.7270 C.3   301  ESM301      0.0262
     16  C7        21.6490   13.1860   33.7010 C.3   301  ESM301      0.0050
     17  C8        22.4460   12.2860   32.7540 C.3   301  ESM301      0.0044
     18  C9        22.3650   10.7990   33.2610 C.3   301  ESM301      0.0221
     19  O17       26.9810   12.0830   30.7200 O.3   301  ESM301     -0.2232
     20  O3        16.9710    9.0850   33.8630 O.3   301  ESM301     -0.2833
     21  O2        18.8040    7.2760   33.5290 O.3   301  ESM301     -0.4682
     22  C19       19.7890    6.2700   33.3550 C.3   301  ESM301      0.2526
@<TRIPOS>BOND
     1    10     5    1
     2    19     9    1
     3     5     9    1
     4     5     4    1
     5     5     6    1
     6     8     9    1
     7     8     7    1
     8     4     3    1
     9     7     6    1
    10     3    18    1
    11     6    17    1
    12    17    18    1
    13    17    16    1
    14    18     2    1
    15    22    21    1
    16     1     2   ar
    17     1    11   ar
    18     2    14   ar
    19    21    11    1
    20    11    12   ar
    21    14    15    1
    22    14    13   ar
    23    16    15    1
    24    12    13   ar
    25    12    20    1
