@<TRIPOS>MOLECULE
1li4_NAD_A_1.pdb
 44 48 0 0 0
SMALL
GASTEIGER

@<TRIPOS>ATOM
      1  PA        38.6750   -8.2360  105.7420 P.3   433  NAD433      0.2189
      2  O1A       38.0760   -8.0620  107.0480 O.3   433  NAD433     -0.4371
      3  O2A       39.7660   -7.3570  105.5280 O.2   433  NAD433     -0.5170
      4  O5B       37.3380   -8.3580  104.8700 O.3   433  NAD433     -0.3112
      5  C5B       36.2330   -8.5240  104.4190 C.3   433  NAD433      0.1813
      6  C4B       35.1510   -7.5920  104.2150 C.3   433  NAD433      0.1821
      7  O4B       34.0330   -8.1350  103.9570 O.3   433  NAD433     -0.3135
      8  C3B       34.9190   -6.5620  105.1260 C.3   433  NAD433      0.2184
      9  O3B       35.5490   -5.2430  104.6520 O.3   433  NAD433     -0.2174
     10  C2B       33.4680   -6.4270  105.3890 C.3   433  NAD433      0.2570
     11  O2B       33.0490   -5.1670  105.6300 O.3   433  NAD433     -0.2130
     12  C1B       33.0130   -7.0880  104.2620 C.3   433  NAD433      0.3186
     13  N9A       31.7780   -7.6980  104.3880 N.pl3 433  NAD433     -0.1439
     14  C8A       31.3190   -8.5210  105.6510 C.3   433  NAD433      0.3377
     15  N7A       30.0960   -8.9820  105.4920 N.2   433  NAD433     -0.2095
     16  C5A       29.7530   -8.5610  104.3270 C.2   433  NAD433      0.2526
     17  C6A       28.4560   -8.7650  103.5950 C.2   433  NAD433      0.4393
     18  N6A       27.4270   -9.4040  104.0020 N.pl3 433  NAD433      0.2180
     19  N1A       28.4060   -8.1310  102.2200 N.2   433  NAD433      0.0021
     20  C2A       29.5450   -7.3740  101.6650 C.3   433  NAD433      0.5254
     21  N3A       30.6800   -7.2040  102.3500 N.2   433  NAD433     -0.0055
     22  C4A       30.8300   -7.7430  103.6110 C.2   433  NAD433      0.3518
     23  O3        38.9800   -9.9340  105.7760 O.3   433  NAD433     -0.2703
     24  PN        40.1580  -10.4310  104.7490 P.3   433  NAD433      0.2189
     25  O1N       39.8890   -9.8180  103.4670 O.2   433  NAD433     -0.5170
     26  O2N       41.6320  -10.4100  105.2520 O.3   433  NAD433     -0.4371
     27  O5D       39.7820  -11.6710  104.6840 O.3   433  NAD433     -0.3112
     28  C5D       38.4790  -12.3270  104.2800 C.3   433  NAD433      0.1813
     29  C4D       38.2380  -13.8650  104.0710 C.3   433  NAD433      0.1799
     30  O4D       39.3600  -14.5390  103.2790 O.3   433  NAD433     -0.3327
     31  C3D       38.3750  -14.5730  105.5460 C.3   433  NAD433      0.2158
     32  O3D       37.6100  -15.7330  105.6440 O.3   433  NAD433     -0.2175
     33  C2D       39.8110  -14.9500  105.5620 C.3   433  NAD433      0.2309
     34  O2D       40.2140  -15.8770  106.5940 O.3   433  NAD433     -0.2158
     35  C1D       40.1040  -15.5130  104.1520 C.3   433  NAD433      0.2263
     36  N1N       41.4630  -15.5460  103.5760 N.pl3 433  NAD433     -0.2787
     37  C2N       41.5560  -16.4670  102.4610 C.3   433  NAD433      0.1244
     38  C3N       42.9050  -16.4850  101.9310 C.2   433  NAD433      0.0544
     39  C7N       42.9150  -17.5330  100.7600 C.2   433  NAD433      0.2818
     40  O7N       44.0560  -17.7310  100.4180 O.2   433  NAD433     -0.2670
     41  N7N       41.8260  -18.1920  100.3670 N.am  433  NAD433     -0.0839
     42  C4N       44.0770  -15.4470  102.3740 C.2   433  NAD433      0.0033
     43  C5N       43.7150  -14.4850  103.3470 C.2   433  NAD433      0.0157
     44  C6N       42.4300  -14.5630  104.0890 C.2   433  NAD433      0.0633
@<TRIPOS>BOND
     1    41    39   am
     2    40    39    2
     3    39    38    1
     4    20    19    1
     5    20    21    1
     6    38    42    2
     7    38    37    1
     8    19    17    2
     9    21    22    2
    10    42    43    1
    11    37    36    1
    12    30    29    1
    13    30    35    1
    14    43    44    2
    15    25    24    2
    16    36    44    1
    17    36    35    1
    18    17    18    1
    19    17    16    1
    20    22    16    1
    21    22    13    1
    22     7     6    1
    23     7    12    1
    24    29    28    1
    25    29    31    1
    26    35    33    1
    27     6     5    1
    28     6     8    1
    29    12    13    1
    30    12    10    1
    31    28    27    1
    32    16    15    2
    33    13    14    1
    34     5     4    1
    35     9     8    1
    36    27    24    1
    37    24    26    1
    38    24    23    1
    39     4     1    1
    40     8    10    1
    41    10    11    1
    42    15    14    1
    43     3     1    2
    44    31    33    1
    45    31    32    1
    46    33    34    1
    47     1    23    1
    48     1     2    1
