@<TRIPOS>MOLECULE
1li4_NOC_A_1.pdb
 19 21 0 0 0
SMALL
GASTEIGER

@<TRIPOS>ATOM
      1  C6'       42.9700  -18.8800  104.4030 C.3   434  NOC434      0.1896
      2  O6'       42.7730  -20.0430  105.2780 O.3   434  NOC434     -0.2200
      3  C5'       44.9400  -19.7130  103.1690 C.3   434  NOC434      0.0599
      4  C4'       44.3370  -18.8100  104.0190 C.3   434  NOC434      0.0973
      5  C3'       45.3030  -17.8470  104.5790 C.2   434  NOC434      0.1871
      6  O3'       45.0870  -16.8260  105.1880 O.2   434  NOC434     -0.2932
      7  C2'       46.4790  -17.9870  103.6650 C.3   434  NOC434      0.2508
      8  O2'       47.6540  -17.6860  104.4020 O.3   434  NOC434     -0.2108
      9  C1'       46.4280  -19.4820  103.1520 C.3   434  NOC434      0.1998
     10  N9        47.1500  -19.8960  101.9590 N.pl3 434  NOC434     -0.1686
     11  C8        47.0330  -19.3640  100.6760 C.3   434  NOC434      0.3358
     12  N7        47.7970  -19.9540   99.8240 N.2   434  NOC434     -0.2096
     13  C5        48.4810  -20.9420  100.5410 C.2   434  NOC434      0.2525
     14  C6        49.4730  -21.9390  100.2160 C.2   434  NOC434      0.4393
     15  N6        49.9870  -22.0920   98.9540 N.pl3 434  NOC434      0.2180
     16  N1        49.8890  -22.7510  101.2830 N.2   434  NOC434      0.0021
     17  C2        49.4060  -22.6100  102.5020 C.3   434  NOC434      0.5254
     18  N3        48.4820  -21.7170  102.9280 N.2   434  NOC434     -0.0055
     19  C4        48.0430  -20.8920  101.9050 C.2   434  NOC434      0.3500
@<TRIPOS>BOND
     1    15    14    1
     2    12    13    2
     3    12    11    1
     4    14    13    1
     5    14    16    2
     6    13    19    1
     7    11    10    1
     8    16    17    1
     9    19    10    1
    10    19    18    2
    11    10     9    1
    12    17    18    1
    13     9     3    1
    14     9     7    1
    15     3     4    1
    16     7     8    1
    17     7     5    1
    18     4     1    1
    19     4     5    1
    20     1     2    1
    21     5     6    2
