@<TRIPOS>MOLECULE
1lia_PUB_B_1.pdb
 43 46 0 0 0
SMALL
GASTEIGER

@<TRIPOS>ATOM
      1  CHC       37.5390   12.9580   44.6800 C.3   177  PUB177      0.1138
      2  NC        36.8080   15.3000   44.4520 N.2   177  PUB177     -0.4104
      3  C1C       36.6040   16.4010   45.3050 C.2   177  PUB177      0.1111
      4  C2C       36.6490   15.9540   46.6520 C.2   177  PUB177      0.0024
      5  C3C       36.8180   14.5190   46.6140 C.2   177  PUB177      0.0021
      6  C4C       37.1460   14.2020   45.2610 C.2   177  PUB177      0.1111
      7  CMC       36.6590   13.5370   47.7680 C.3   177  PUB177      0.0331
      8  CAC       36.5170   16.8140   47.8940 C.3   177  PUB177      0.0402
      9  CBC       35.1120   16.7780   48.4700 C.3   177  PUB177      0.1188
     10  CGC       34.7730   17.8400   49.5120 C.2   177  PUB177      0.3652
     11  O1C       34.0820   17.4980   50.4800 O.co2 177  PUB177     -0.2456
     12  O2C       35.2020   19.2320   49.3750 O.co2 177  PUB177     -0.2456
     13  ND        39.4050   12.2950   46.2720 N.2   177  PUB177     -0.3448
     14  C1D       38.5540   12.0500   45.1440 C.2   177  PUB177      0.1070
     15  C2D       38.9720   10.8170   44.5410 C.3   177  PUB177      0.0660
     16  C3D       39.7430   10.2070   45.6150 C.3   177  PUB177      0.1246
     17  C4D       39.8280   11.0970   46.6900 C.1   177  PUB177      0.1788
     18  CMD       38.6120   10.2880   43.1520 C.3   177  PUB177      0.0083
     19  CBD       40.7240    8.0270   44.9010 C.3   177  PUB177      0.0012
     20  OD        40.1550   10.8400   47.8530 O.2   177  PUB177     -0.2142
     21  NA        39.1580   19.1130   39.3300 N.2   177  PUB177     -0.3375
     22  C1A       39.4540   19.7300   38.1870 C.1   177  PUB177      0.2000
     23  C2A       38.9200   18.9730   37.1280 C.2   177  PUB177      0.0710
     24  C3A       38.1860   17.8630   37.6780 C.2   177  PUB177      0.0124
     25  C4A       38.1550   18.1150   39.0680 C.2   177  PUB177      0.1251
     26  CMA       39.1460   19.3270   35.6630 C.3   177  PUB177      0.0445
     27  CBA       37.9010   16.0130   36.5910 C.3   177  PUB177      0.0051
     28  OA        40.1000   20.7780   38.1160 O.2   177  PUB177     -0.2096
     29  CHA       37.1420   17.6390   39.9800 C.3   177  PUB177      0.1138
     30  CAA       37.2510   16.8320   37.0390 C.3   177  PUB177      0.0291
     31  CAD       40.1600    8.8040   46.0800 C.3   177  PUB177      0.0180
     32  NB        36.2590   17.3810   42.3460 N.2   177  PUB177     -0.4183
     33  C1B       36.8560   18.1440   41.2930 C.2   177  PUB177      0.0929
     34  C2B       36.7890   19.5130   41.6780 C.3   177  PUB177      0.0548
     35  C3B       36.8300   19.5050   43.1200 C.3   177  PUB177      0.0554
     36  C4B       36.4690   18.1650   43.5160 C.2   177  PUB177      0.0929
     37  CHB       36.3620   17.7140   44.8660 C.3   177  PUB177      0.1128
     38  CMB       36.6080   20.6910   40.7370 C.3   177  PUB177      0.0075
     39  CAB       37.2430   20.6780   44.0310 C.3   177  PUB177      0.0189
     40  CBB       38.7150   20.6390   44.5030 C.3   177  PUB177      0.1145
     41  CGB       39.7220   21.3930   43.6240 C.2   177  PUB177      0.3649
     42  O1B       39.5470   21.4130   42.4120 O.co2 177  PUB177     -0.2457
     43  O2B       40.8890   22.1100   44.0980 O.co2 177  PUB177     -0.2457
@<TRIPOS>BOND
     1    26    23    1
     2    27    30    1
     3    30    24    1
     4    23    24    2
     5    23    22    1
     6    24    25    1
     7    28    22    2
     8    22    21    2
     9    25    21    2
    10    25    29    1
    11    29    33    1
    12    38    34    1
    13    33    34    1
    14    33    32    2
    15    34    35    1
    16    32    36    2
    17    42    41   ar
    18    35    36    1
    19    35    39    1
    20    18    15    1
    21    36    37    1
    22    41    43   ar
    23    41    40    1
    24    39    40    1
    25     2     6    2
    26     2     3    2
    27    15    14    1
    28    15    16    1
    29     1    14    1
    30     1     6    1
    31    37     3    1
    32    19    31    1
    33    14    13    2
    34     6     5    1
    35     3     4    1
    36    16    31    1
    37    16    17    1
    38    13    17    2
    39     5     4    2
    40     5     7    1
    41     4     8    1
    42    17    20    2
    43     8     9    1
    44     9    10    1
    45    12    10   ar
    46    10    11   ar
