@<TRIPOS>MOLECULE
1lic_HDS_A_1.pdb
 20 19 0 0 0
SMALL
GASTEIGER

@<TRIPOS>ATOM
      1  C1       -46.0220   68.5020   -5.6230 C.3   133  HDS133      0.1052
      2  C2       -45.1060   69.5650   -6.2620 C.3   133  HDS133      0.0215
      3  C3       -45.5950   70.9810   -5.9950 C.3   133  HDS133      0.0017
      4  C4       -47.0200   71.1750   -6.4880 C.3   133  HDS133      0.0001
      5  C5       -47.4420   72.6290   -6.4110 C.3   133  HDS133      0.0000
      6  C6       -48.9410   72.8080   -6.6300 C.3   133  HDS133      0.0000
      7  C7       -49.3790   72.4250   -8.0370 C.3   133  HDS133      0.0000
      8  C8       -50.8820   72.5900   -8.1830 C.3   133  HDS133      0.0000
      9  C9       -51.3490   72.3590   -9.6090 C.3   133  HDS133      0.0000
     10  C10      -51.1860   70.9170  -10.0520 C.3   133  HDS133      0.0000
     11  C11      -51.5930   70.7720  -11.5080 C.3   133  HDS133      0.0000
     12  C12      -51.5140   69.3300  -11.9890 C.3   133  HDS133      0.0000
     13  C13      -51.7850   69.2370  -13.4850 C.3   133  HDS133      0.0000
     14  C14      -53.0950   69.9120  -13.8510 C.3   133  HDS133      0.0000
     15  C15      -53.2910   69.9690  -15.3490 C.3   133  HDS133      0.0000
     16  C16      -54.4850   70.8190  -15.7040 C.3   133  HDS133      0.0000
     17  S1       -45.5560   66.8670   -6.2820 S.3   133  HDS133     -0.1960
     18  O1S      -44.2830   67.0500   -6.9170 O.3   133  HDS133     -0.3075
     19  O2S      -46.4580   66.4050   -7.2810 O.3   133  HDS133     -0.3075
     20  O3S      -45.3310   65.8730   -5.3050 O.3   133  HDS133     -0.3075
@<TRIPOS>BOND
     1    16    15    1
     2    15    14    1
     3    14    13    1
     4    13    12    1
     5    12    11    1
     6    11    10    1
     7    10     9    1
     8     9     8    1
     9     8     7    1
    10     7     6    1
    11    19    17    1
    12    18    17    1
    13     6     5    1
    14     4     5    1
    15     4     3    1
    16    17     1    1
    17    17    20    1
    18     2     3    1
    19     2     1    1
