@<TRIPOS>MOLECULE
1lid_OLA_A_1.pdb
 20 19 0 0 0
SMALL
GASTEIGER

@<TRIPOS>ATOM
      1  C1       -45.2890   66.8090   -6.4260 C.2   132  OLA132      0.3649
      2  O1       -45.7680   65.7550   -6.0530 O.co2 132  OLA132     -0.2457
      3  O2       -44.1910   66.8290   -6.9630 O.co2 132  OLA132     -0.2457
      4  C2       -46.0660   68.1080   -6.2460 C.3   132  OLA132      0.1141
      5  C3       -45.2190   69.2020   -5.6280 C.3   132  OLA132      0.0118
      6  C4       -45.9630   70.5120   -5.5210 C.3   132  OLA132      0.0006
      7  C5       -46.0060   71.2060   -6.8590 C.3   132  OLA132      0.0000
      8  C6       -46.4060   72.6370   -6.5830 C.3   132  OLA132      0.0003
      9  C7       -47.8880   72.8300   -6.3920 C.3   132  OLA132      0.0047
     10  C8       -48.5350   72.9480   -7.7420 C.3   132  OLA132      0.0257
     11  C9       -49.9410   73.1790   -7.5840 C.2   132  OLA132     -0.0307
     12  C10      -50.8830   72.4170   -8.2380 C.2   132  OLA132     -0.0307
     13  C11      -50.5560   71.3300   -9.1340 C.3   132  OLA132      0.0257
     14  C12      -51.5740   71.3120  -10.2640 C.3   132  OLA132      0.0047
     15  C13      -51.2750   70.2680  -11.3300 C.3   132  OLA132      0.0003
     16  C14      -52.3350   70.4000  -12.4150 C.3   132  OLA132      0.0000
     17  C15      -51.8960   69.6740  -13.6820 C.3   132  OLA132      0.0000
     18  C16      -52.9550   69.7780  -14.7780 C.3   132  OLA132      0.0000
     19  C17      -53.3340   71.2060  -15.1430 C.3   132  OLA132      0.0000
     20  C18      -54.4130   71.1340  -16.2280 C.3   132  OLA132      0.0000
@<TRIPOS>BOND
     1    20    19    1
     2    19    18    1
     3    18    17    1
     4    17    16    1
     5    16    15    1
     6    15    14    1
     7    14    13    1
     8    13    12    1
     9    12    11    2
    10    10    11    1
    11    10     9    1
    12     3     1   ar
    13     7     8    1
    14     7     6    1
    15     8     9    1
    16     1     4    1
    17     1     2   ar
    18     4     5    1
    19     5     6    1
