@<TRIPOS>MOLECULE
1lie_PLM_A_1.pdb
 18 17 0 0 0
SMALL
GASTEIGER

@<TRIPOS>ATOM
      1  C1       -44.7970   67.1810   -6.0070 C.2   133  PLM133      0.3649
      2  O1       -45.1970   66.0110   -6.1500 O.co2 133  PLM133     -0.2457
      3  O2       -43.6010   67.5090   -6.1620 O.co2 133  PLM133     -0.2457
      4  C2       -45.8100   68.2430   -5.6090 C.3   133  PLM133      0.1141
      5  C3       -45.5430   69.6070   -6.2380 C.3   133  PLM133      0.0118
      6  C4       -46.4610   70.6540   -5.6220 C.3   133  PLM133      0.0006
      7  C5       -46.1770   72.0510   -6.1410 C.3   133  PLM133      0.0000
      8  C6       -46.9100   72.3140   -7.4370 C.3   133  PLM133      0.0000
      9  C7       -48.4120   72.3210   -7.2190 C.3   133  PLM133      0.0000
     10  C8       -49.1520   72.4290   -8.5340 C.3   133  PLM133      0.0000
     11  C9       -50.6540   72.3260   -8.3240 C.3   133  PLM133      0.0000
     12  CA       -51.4000   72.3690   -9.6420 C.3   133  PLM133      0.0000
     13  CB       -51.0900   71.1610  -10.5080 C.3   133  PLM133      0.0000
     14  CC       -51.6610   71.3430  -11.9040 C.3   133  PLM133      0.0000
     15  CD       -51.5770   70.0680  -12.7250 C.3   133  PLM133      0.0000
     16  CE       -51.9790   70.3190  -14.1790 C.3   133  PLM133      0.0000
     17  CF       -53.3530   70.9670  -14.2940 C.3   133  PLM133      0.0000
     18  CG       -53.6980   71.2810  -15.7430 C.3   133  PLM133      0.0000
@<TRIPOS>BOND
     1    18    17    1
     2    17    16    1
     3    16    15    1
     4    15    14    1
     5    14    13    1
     6    13    12    1
     7    12    11    1
     8    10    11    1
     9    10     9    1
    10     8     9    1
    11     8     7    1
    12     5     6    1
    13     5     4    1
    14     3     1   ar
    15     2     1   ar
    16     7     6    1
    17     1     4    1
