@<TRIPOS>MOLECULE
1lif_STE_A_1.pdb
 20 19 0 0 0
SMALL
GASTEIGER

@<TRIPOS>ATOM
      1  C1       -45.2260   66.9040   -6.4600 C.2   132  STE132      0.3649
      2  O1       -45.7840   65.8820   -6.1130 O.co2 132  STE132     -0.2457
      3  O2       -44.0990   66.8870   -6.9470 O.co2 132  STE132     -0.2457
      4  C2       -45.9730   68.2180   -6.3270 C.3   132  STE132      0.1141
      5  C3       -45.2850   69.1570   -5.3570 C.3   132  STE132      0.0118
      6  C4       -46.0060   70.4770   -5.2830 C.3   132  STE132      0.0006
      7  C5       -45.9110   71.1530   -6.6320 C.3   132  STE132      0.0000
      8  C6       -46.3570   72.5790   -6.4720 C.3   132  STE132      0.0000
      9  C7       -47.8420   72.7080   -6.2770 C.3   132  STE132      0.0000
     10  C8       -48.5270   72.7230   -7.6090 C.3   132  STE132      0.0000
     11  C9       -49.9800   72.8910   -7.2700 C.3   132  STE132      0.0000
     12  C10      -50.8130   72.6800   -8.5060 C.3   132  STE132      0.0000
     13  C11      -50.6070   71.3040   -9.1060 C.3   132  STE132      0.0000
     14  C12      -51.4760   71.2830  -10.3470 C.3   132  STE132      0.0000
     15  C13      -51.1350   70.1170  -11.2780 C.3   132  STE132      0.0000
     16  C14      -52.1140   70.2380  -12.4250 C.3   132  STE132      0.0000
     17  C15      -51.8250   69.3240  -13.6010 C.3   132  STE132      0.0000
     18  C16      -52.9310   69.5050  -14.6440 C.3   132  STE132      0.0000
     19  C17      -53.0900   70.9420  -15.1310 C.3   132  STE132      0.0000
     20  C18      -54.2660   71.0100  -16.1070 C.3   132  STE132      0.0000
@<TRIPOS>BOND
     1    20    19    1
     2    19    18    1
     3    18    17    1
     4    17    16    1
     5    16    15    1
     6    15    14    1
     7    14    13    1
     8    13    12    1
     9    12    11    1
    10    10    11    1
    11    10     9    1
    12     3     1   ar
    13     7     8    1
    14     7     6    1
    15     8     9    1
    16     1     4    1
    17     1     2   ar
    18     4     5    1
    19     5     6    1
