@<TRIPOS>MOLECULE
1lih_PHN_A_1.pdb
 14 16 0 0 0
SMALL
GASTEIGER

@<TRIPOS>ATOM
      1  N1        -1.6810   45.8820  169.2930 N.2     1  PHN1       -0.2641
      2  C2        -2.2010   44.8420  170.0710 C.3     1  PHN1        0.1516
      3  C3        -3.5610   44.9810  170.5380 C.2     1  PHN1       -0.0000
      4  C4        -4.2820   46.0900  170.0710 C.2     1  PHN1       -0.0014
      5  C4A       -3.7210   47.0600  169.2930 C.2     1  PHN1        0.0145
      6  C5        -4.4820   48.1000  168.9820 C.2     1  PHN1       -0.0198
      7  C6        -3.9210   49.0700  168.2040 C.3     1  PHN1        0.0539
      8  C6A       -2.6010   49.0010  167.7370 C.ar    1  PHN1        0.0014
      9  C7        -2.0410   49.9710  166.9590 C.ar    1  PHN1       -0.0008
     10  C8        -0.7200   49.9020  166.6480 C.ar    1  PHN1        0.0204
     11  C9         0.0000   48.7930  166.9590 C.ar    1  PHN1        0.0989
     12  N10       -0.5600   47.8230  167.7370 N.ar    1  PHN1       -0.2426
     13  C10       -1.8010   47.8920  168.2040 C.ar    1  PHN1        0.0948
     14  C1A       -2.4410   46.9220  168.9820 C.2     1  PHN1        0.0933
@<TRIPOS>BOND
     1    10     9   ar
     2    10    11   ar
     3     9     8   ar
     4    11    12   ar
     5     8     7    1
     6     8    13   ar
     7    12    13   ar
     8     7     6    1
     9    13    14    1
    10     6     5    2
    11    14     1    2
    12    14     5    1
    13     1     2    1
    14     5     4    1
    15     2     3    1
    16     4     3    2
