@<TRIPOS>MOLECULE
1lii_ACP_A_1.pdb
 31 33 0 0 0
SMALL
GASTEIGER

@<TRIPOS>ATOM
      1  PG       142.3040   20.6870   -7.5150 P.3   799  ACP799      0.1295
      2  O1G      142.4050   21.6040   -6.2770 O.3   799  ACP799     -0.3567
      3  O2G      142.4890   21.8400   -8.5150 O.2   799  ACP799     -0.4595
      4  O3G      141.2600   19.8010   -8.0480 O.3   799  ACP799     -0.3567
      5  PB       145.3980   19.6500   -8.2580 P.3   799  ACP799      0.3815
      6  O1B      144.7000   18.4750   -8.9160 O.3   799  ACP799     -0.1391
      7  O2B      146.1580   20.6090   -9.0880 O.2   799  ACP799     -0.2547
      8  C3B      143.8510   19.7500   -7.3610 C.3   799  ACP799      0.1768
      9  PA       148.3250   19.0090   -7.6000 P.3   799  ACP799      0.2209
     10  O1A      148.9400   18.4780   -8.8250 O.2   799  ACP799     -0.5170
     11  O2A      148.5950   20.4390   -7.2710 O.3   799  ACP799     -0.4371
     12  O3A      146.6460   18.9280   -7.3940 O.3   799  ACP799     -0.2483
     13  O5'      148.7300   18.0300   -6.5230 O.3   799  ACP799     -0.3111
     14  C5'      148.7940   18.5040   -5.1940 C.3   799  ACP799      0.1813
     15  C4'      149.1820   17.4360   -4.1740 C.3   799  ACP799      0.1821
     16  O4'      148.2810   16.2910   -4.2860 O.3   799  ACP799     -0.3135
     17  C3'      150.5540   16.8530   -4.4240 C.3   799  ACP799      0.2184
     18  O3'      151.5470   17.6600   -3.7840 O.3   799  ACP799     -0.2174
     19  C2'      150.4050   15.4860   -3.7800 C.3   799  ACP799      0.2570
     20  O2'      150.5590   15.6430   -2.4080 O.3   799  ACP799     -0.2130
     21  C1'      148.9600   15.0910   -4.0680 C.3   799  ACP799      0.3186
     22  N9       148.7810   14.3390   -5.2820 N.pl3 799  ACP799     -0.1439
     23  C8       148.2530   14.7300   -6.4830 C.3   799  ACP799      0.3377
     24  N7       148.2400   13.7540   -7.3660 N.2   799  ACP799     -0.2095
     25  C5       148.8110   12.6660   -6.6730 C.2   799  ACP799      0.2526
     26  C6       149.0640   11.3330   -7.0320 C.2   799  ACP799      0.4393
     27  N6       148.8150   10.8570   -8.2530 N.pl3 799  ACP799      0.2180
     28  N1       149.6030   10.5100   -6.0990 N.2   799  ACP799      0.0021
     29  C2       149.8600   10.9850   -4.8920 C.3   799  ACP799      0.5254
     30  N3       149.6690   12.2090   -4.4580 N.2   799  ACP799     -0.0055
     31  C4       149.1260   13.0060   -5.4010 C.2   799  ACP799      0.3518
@<TRIPOS>BOND
     1     7     5    2
     2     6     5    1
     3    10     9    2
     4     3     1    2
     5     5    12    1
     6     5     8    1
     7    27    26    1
     8     4     1    1
     9     9    12    1
    10     9    11    1
    11     9    13    1
    12     1     8    1
    13     1     2    1
    14    24    25    2
    15    24    23    1
    16    26    25    1
    17    26    28    2
    18    25    31    1
    19    13    14    1
    20    23    22    1
    21    28    29    1
    22    31    22    1
    23    31    30    2
    24    22    21    1
    25    14    15    1
    26    29    30    1
    27    17    15    1
    28    17    18    1
    29    17    19    1
    30    16    15    1
    31    16    21    1
    32    21    19    1
    33    19    20    1
