@<TRIPOS>MOLECULE
1lii_ADN_A_1.pdb
 19 21 0 0 0
SMALL
GASTEIGER

@<TRIPOS>ATOM
      1  O5'      140.3620   22.8180   -6.5350 O.3   699  ADN699     -0.2176
      2  C5'      139.1110   22.2380   -6.8870 C.3   699  ADN699      0.2143
      3  C4'      138.0470   23.2210   -6.4490 C.3   699  ADN699      0.1851
      4  O4'      138.1790   24.4200   -7.2240 O.3   699  ADN699     -0.3134
      5  C3'      136.5860   22.7780   -6.6060 C.3   699  ADN699      0.2186
      6  O3'      136.0620   22.4620   -5.3290 O.3   699  ADN699     -0.2174
      7  C2'      135.8740   23.9850   -7.2300 C.3   699  ADN699      0.2570
      8  O2'      134.7440   24.3990   -6.4930 O.3   699  ADN699     -0.2130
      9  C1'      136.9280   25.0750   -7.1180 C.3   699  ADN699      0.3186
     10  N9       136.8370   26.0900   -8.1350 N.pl3 699  ADN699     -0.1439
     11  C8       136.7070   25.9190   -9.4870 C.3   699  ADN699      0.3377
     12  N7       136.6420   27.0600  -10.1500 N.2   699  ADN699     -0.2095
     13  C5       136.7630   28.0290   -9.1600 C.2   699  ADN699      0.2526
     14  C6       136.7780   29.4270   -9.2140 C.2   699  ADN699      0.4393
     15  N6       136.6730   30.1380  -10.3540 N.pl3 699  ADN699      0.2180
     16  N1       136.9050   30.0780   -8.0490 N.2   699  ADN699      0.0021
     17  C2       137.0150   29.3670   -6.9290 C.3   699  ADN699      0.5254
     18  N3       137.0170   28.0680   -6.7430 N.2   699  ADN699     -0.0055
     19  C4       136.8800   27.4430   -7.9140 C.2   699  ADN699      0.3518
@<TRIPOS>BOND
     1    15    14    1
     2    12    11    1
     3    12    13    2
     4    11    10    1
     5    14    13    1
     6    14    16    2
     7    13    19    1
     8    10    19    1
     9    10     9    1
    10    16    17    1
    11    19    18    2
    12     7     9    1
    13     7     5    1
    14     7     8    1
    15     4     9    1
    16     4     3    1
    17    17    18    1
    18     2     1    1
    19     2     3    1
    20     5     3    1
    21     5     6    1
