@<TRIPOS>MOLECULE
1lij_ACP_A_1.pdb
 31 33 0 0 0
SMALL
GASTEIGER

@<TRIPOS>ATOM
      1  PG       142.4550   20.6590   -7.9000 P.3   799  ACP799      0.1295
      2  O1G      142.0870   21.0260   -6.4880 O.3   799  ACP799     -0.3567
      3  O2G      142.7300   21.8700   -8.7590 O.2   799  ACP799     -0.4595
      4  O3G      141.4130   19.7080   -8.4130 O.3   799  ACP799     -0.3567
      5  PB       145.3670   19.2440   -8.6500 P.3   799  ACP799      0.3815
      6  O1B      144.6490   18.3090   -9.5070 O.2   799  ACP799     -0.2547
      7  O2B      145.9860   20.5490   -9.1260 O.3   799  ACP799     -0.1391
      8  C3B      143.9840   19.7390   -7.6550 C.3   799  ACP799      0.1768
      9  PA       148.1900   18.5550   -7.6400 P.3   799  ACP799      0.2209
     10  O1A      148.9560   18.0530   -8.8150 O.2   799  ACP799     -0.5170
     11  O2A      148.4470   19.9710   -7.2540 O.3   799  ACP799     -0.4371
     12  O3A      146.5060   18.4600   -7.6780 O.3   799  ACP799     -0.2483
     13  O5'      148.5320   17.6770   -6.4710 O.3   799  ACP799     -0.3111
     14  C5'      148.8310   18.2610   -5.2140 C.3   799  ACP799      0.1813
     15  C4'      149.2520   17.2010   -4.2260 C.3   799  ACP799      0.1821
     16  O4'      148.2970   16.1120   -4.2580 O.3   799  ACP799     -0.3135
     17  C3'      150.6000   16.5640   -4.5190 C.3   799  ACP799      0.2184
     18  O3'      151.6350   17.3330   -3.9200 O.3   799  ACP799     -0.2174
     19  C2'      150.4380   15.2150   -3.8360 C.3   799  ACP799      0.2570
     20  O2'      150.5980   15.3110   -2.4360 O.3   799  ACP799     -0.2130
     21  C1'      148.9890   14.8770   -4.1990 C.3   799  ACP799      0.3186
     22  N9       148.8730   14.2220   -5.4970 N.pl3 799  ACP799     -0.1439
     23  C8       148.4690   14.5370   -6.7610 C.3   799  ACP799      0.3377
     24  N7       148.5780   13.5400   -7.6070 N.2   799  ACP799     -0.2095
     25  C5       149.0930   12.5020   -6.8430 C.2   799  ACP799      0.2526
     26  C6       149.4420   11.1660   -7.1470 C.2   799  ACP799      0.4393
     27  N6       149.3170   10.6300   -8.3620 N.pl3 799  ACP799      0.2180
     28  N1       149.9300   10.3960   -6.1520 N.2   799  ACP799      0.0021
     29  C2       150.0580   10.9280   -4.9350 C.3   799  ACP799      0.5254
     30  N3       149.7640   12.1620   -4.5300 N.2   799  ACP799     -0.0055
     31  C4       149.2830   12.9060   -5.5420 C.2   799  ACP799      0.3518
@<TRIPOS>BOND
     1     6     5    2
     2     7     5    1
     3    10     9    2
     4     3     1    2
     5     5    12    1
     6     5     8    1
     7     4     1    1
     8    27    26    1
     9     1     8    1
    10     1     2    1
    11    12     9    1
    12     9    11    1
    13     9    13    1
    14    24    25    2
    15    24    23    1
    16    26    25    1
    17    26    28    2
    18    25    31    1
    19    23    22    1
    20    13    14    1
    21    28    29    1
    22    31    22    1
    23    31    30    2
    24    22    21    1
    25    14    15    1
    26    29    30    1
    27    17    15    1
    28    17    18    1
    29    17    19    1
    30    16    15    1
    31    16    21    1
    32    21    19    1
    33    19    20    1
