@<TRIPOS>MOLECULE
1lij_RPP_A_1.pdb
 20 22 0 0 0
SMALL
GASTEIGER

@<TRIPOS>ATOM
      1  I        137.1390   27.0000  -12.4310 I     699  RPP699     -0.0211
      2  N1       136.8570   29.9000   -8.3520 N.2   699  RPP699     -0.0026
      3  C2       136.8310   29.1900   -7.2250 C.3   699  RPP699      0.5248
      4  N3       136.8570   27.8700   -7.0700 N.2   699  RPP699     -0.0087
      5  C4       136.9370   27.2400   -8.2570 C.2   699  RPP699      0.3431
      6  C5       136.9400   27.8230   -9.5080 C.3   699  RPP699      0.2694
      7  C6       136.9420   29.2470   -9.5350 C.2   699  RPP699      0.4086
      8  N6       136.9540   29.9810  -10.6500 N.pl3 699  RPP699      0.2118
      9  C7       136.9960   26.8250  -10.4790 C.2   699  RPP699      0.1519
     10  N8       137.0260   25.6980   -9.8140 N.2   699  RPP699     -0.0833
     11  N9       136.9340   25.8760   -8.4650 N.pl3 699  RPP699     -0.0529
     12  C1'      136.9000   24.9770   -7.3170 C.3   699  RPP699      0.3417
     13  C2'      135.8130   23.9010   -7.4050 C.3   699  RPP699      0.2592
     14  C3'      136.4460   22.7030   -6.6820 C.3   699  RPP699      0.2186
     15  C4'      137.9120   23.0860   -6.4800 C.3   699  RPP699      0.1851
     16  O4'      138.1100   24.2650   -7.2870 O.3   699  RPP699     -0.3119
     17  O2'      134.6300   24.3440   -6.7690 O.3   699  RPP699     -0.2129
     18  O3'      135.8320   22.4710   -5.4290 O.3   699  RPP699     -0.2174
     19  C5'      138.9080   22.0150   -6.8960 C.3   699  RPP699      0.2143
     20  O5'      140.2350   22.4340   -6.6050 O.3   699  RPP699     -0.2176
@<TRIPOS>BOND
     1     1     9    1
     2     8     7    1
     3     9    10    2
     4     9     6    1
     5    10    11    1
     6     7     6    1
     7     7     2    2
     8     6     5    1
     9    11     5    1
    10    11    12    1
    11     2     3    1
    12     5     4    2
    13    13    12    1
    14    13    17    1
    15    13    14    1
    16    12    16    1
    17    16    15    1
    18     3     4    1
    19    19    20    1
    20    19    15    1
    21    14    15    1
    22    14    18    1
