@<TRIPOS>MOLECULE
1lik_ADN_A_1.pdb
 19 21 0 0 0
SMALL
GASTEIGER

@<TRIPOS>ATOM
      1  O5'      140.4890   22.7350   -6.4310 O.3   699  ADN699     -0.2176
      2  C5'      139.2060   22.2820   -6.8380 C.3   699  ADN699      0.2143
      3  C4'      138.1450   23.3130   -6.5000 C.3   699  ADN699      0.1851
      4  O4'      138.2860   24.4760   -7.3360 O.3   699  ADN699     -0.3134
      5  C3'      136.6950   22.8520   -6.6460 C.3   699  ADN699      0.2186
      6  O3'      136.1650   22.5830   -5.3520 O.3   699  ADN699     -0.2174
      7  C2'      136.0000   24.0500   -7.3160 C.3   699  ADN699      0.2570
      8  O2'      134.8510   24.4440   -6.5980 O.3   699  ADN699     -0.2130
      9  C1'      137.0770   25.1540   -7.2430 C.3   699  ADN699      0.3186
     10  N9       137.0390   26.1150   -8.3260 N.pl3 699  ADN699     -0.1439
     11  C8       137.0010   25.8900   -9.6600 C.3   699  ADN699      0.3377
     12  N7       136.8360   26.9860  -10.3760 N.2   699  ADN699     -0.2095
     13  C5       137.1860   27.9960   -9.4460 C.2   699  ADN699      0.2526
     14  C6       137.1130   29.3900   -9.5700 C.2   699  ADN699      0.4393
     15  N6       136.9830   30.0300  -10.7440 N.pl3 699  ADN699      0.2180
     16  N1       137.3310   30.1010   -8.4350 N.2   699  ADN699      0.0021
     17  C2       137.3890   29.4600   -7.2750 C.3   699  ADN699      0.5254
     18  N3       137.3350   28.1520   -7.0290 N.2   699  ADN699     -0.0055
     19  C4       137.2340   27.4770   -8.1650 C.2   699  ADN699      0.3518
@<TRIPOS>BOND
     1    15    14    1
     2    12    11    1
     3    12    13    2
     4    11    10    1
     5    14    13    1
     6    14    16    2
     7    13    19    1
     8    16    17    1
     9    10    19    1
    10    10     9    1
    11    19    18    2
    12     4     9    1
    13     4     3    1
    14     7     9    1
    15     7     5    1
    16     7     8    1
    17    17    18    1
    18     2     3    1
    19     2     1    1
    20     5     3    1
    21     5     6    1
