@<TRIPOS>MOLECULE
1lin_TFP_A_1.pdb
 28 31 0 0 0
SMALL
GASTEIGER

@<TRIPOS>ATOM
      1  C1        15.5400    9.5040   19.3620 C.ar  153  TFP153      0.0727
      2  C2        14.8400   10.6730   19.4300 C.ar  153  TFP153      0.0044
      3  C3        14.2320   11.1790   18.3230 C.ar  153  TFP153      0.0077
      4  C4        14.3350   10.4920   17.1120 C.ar  153  TFP153      0.0431
      5  C5        15.0560    9.2930   17.0510 C.ar  153  TFP153      0.0576
      6  C6        15.6610    8.8070   18.2040 C.ar  153  TFP153      0.0192
      7  S         13.5980   11.1320   15.7440 S.3   153  TFP153     -0.0844
      8  C7        13.3230    9.7130   14.7790 C.ar  153  TFP153      0.0431
      9  C8        12.2830    9.7200   13.8450 C.ar  153  TFP153      0.0077
     10  C9        12.0860    8.6180   13.0490 C.ar  153  TFP153      0.0006
     11  C10       12.8930    7.5070   13.1550 C.ar  153  TFP153      0.0013
     12  C11       13.9200    7.4650   14.0630 C.ar  153  TFP153      0.0153
     13  C12       14.1490    8.5730   14.8930 C.ar  153  TFP153      0.0576
     14  N1        15.1790    8.5910   15.8460 N.pl3 153  TFP153     -0.2861
     15  C13       16.2100    7.5920   15.7020 C.3   153  TFP153      0.0970
     16  C14       17.0380    8.1560   14.5860 C.3   153  TFP153      0.0391
     17  C15       18.3260    7.4070   14.4200 C.3   153  TFP153      0.0739
     18  N2        19.1240    7.9810   13.3450 N.3   153  TFP153     -0.2703
     19  C16       20.2410    7.0620   13.1520 C.3   153  TFP153      0.0897
     20  C17       20.8750    7.2150   11.7810 C.3   153  TFP153      0.0897
     21  N3        19.9320    6.9220   10.7010 N.3   153  TFP153     -0.2691
     22  C18       18.5590    6.8710   11.2050 C.3   153  TFP153      0.0897
     23  C19       18.2620    8.0110   12.1630 C.3   153  TFP153      0.0897
     24  C20       19.9940    8.0480    9.7680 C.3   153  TFP153      0.0897
     25  C21       16.2180    8.9220   20.5900 C.3   153  TFP153      0.4186
     26  F1        15.8220    9.4170   21.6780 F     153  TFP153     -0.1659
     27  F2        17.4780    8.9830   20.6850 F     153  TFP153     -0.1659
     28  F3        16.0730    7.6800   20.8000 F     153  TFP153     -0.1659
@<TRIPOS>BOND
     1    24    21    1
     2    21    22    1
     3    21    20    1
     4    22    23    1
     5    20    19    1
     6    23    18    1
     7    10    11   ar
     8    10     9   ar
     9    19    18    1
    10    11    12   ar
    11    18    17    1
    12     9     8   ar
    13    12    13   ar
    14    17    16    1
    15    16    15    1
    16     8    13   ar
    17     8     7    1
    18    13    14    1
    19    15    14    1
    20     7     4    1
    21    14     5    1
    22     5     4   ar
    23     5     6   ar
    24     4     3   ar
    25     6     1   ar
    26     3     2   ar
    27     1     2   ar
    28     1    25    1
    29    25    27    1
    30    25    28    1
    31    25    26    1
