@<TRIPOS>MOLECULE
1lj0_HEM_A_1.pdb
 43 50 0 0 0
SMALL
GASTEIGER

@<TRIPOS>ATOM
      1 FE         22.1640    5.3260   14.2960 Fe    201  HEM201      0.0000
      2  CHA       25.1000    5.5170   16.0470 C.2   201  HEM201      0.0000
      3  CHB       20.6960    7.3400   16.5600 C.2   201  HEM201      0.0000
      4  CHC       19.1390    4.9580   12.6720 C.2   201  HEM201      0.0000
      5  CHD       23.6310    3.3390   11.9630 C.2   201  HEM201      0.0000
      6  NA        22.7820    6.2480   15.9500 N.2   201  HEM201      0.0000
      7  C1A       24.0330    6.1920   16.5590 C.2   201  HEM201      0.0000
      8  C2A       24.0410    6.8720   17.7810 C.2   201  HEM201      0.0000
      9  C3A       22.7990    7.4570   17.9220 C.2   201  HEM201      0.0000
     10  C4A       22.0180    7.0430   16.7850 C.2   201  HEM201      0.0000
     11  CMA       22.3820    8.2830   19.0010 C.3   201  HEM201      0.0000
     12  CAA       25.2130    6.9440   18.7770 C.3   201  HEM201      0.0000
     13  CBA       25.4740    5.6020   19.5650 C.3   201  HEM201      0.0000
     14  CGA       24.2510    5.1210   20.3220 C.2   201  HEM201      0.0000
     15  O1A       23.7970    3.9760   20.0600 O.co2 201  HEM201      0.0000
     16  O2A       23.6800    5.9410   21.0820 O.co2 201  HEM201      0.0000
     17  NB        20.3400    6.0110   14.5310 N.ar  201  HEM201      0.0000
     18  C1B       19.9150    6.8550   15.5310 C.ar  201  HEM201      0.0000
     19  C2B       18.4960    7.1810   15.3930 C.ar  201  HEM201      0.0000
     20  C3B       17.9900    6.4900   14.2880 C.ar  201  HEM201      0.0000
     21  C4B       19.1820    5.7770   13.7670 C.ar  201  HEM201      0.0000
     22  CMB       17.7760    8.1020   16.3780 C.3   201  HEM201      0.0000
     23  CAB       16.5830    6.4350   13.7240 C.3   201  HEM201      0.0000
     24  CBB       15.5350    7.4310   14.2250 C.3   201  HEM201      0.0000
     25  NC        21.4950    4.3630   12.6620 N.2   201  HEM201      0.0000
     26  C1C       20.2030    4.2820   12.1560 C.2   201  HEM201      0.0000
     27  C2C       20.1270    3.4040   11.0200 C.2   201  HEM201      0.0000
     28  C3C       21.3920    2.9570   10.7610 C.2   201  HEM201      0.0000
     29  C4C       22.2460    3.5640   11.7950 C.2   201  HEM201      0.0000
     30  CMC       18.8490    3.0100   10.2740 C.3   201  HEM201      0.0000
     31  CAC       21.8350    2.0220    9.6820 C.2   201  HEM201      0.0000
     32  CBC       21.4160    2.0540    8.4010 C.2   201  HEM201      0.0000
     33  ND        23.9600    4.6150   14.0450 N.ar  201  HEM201      0.0000
     34  C1D       24.4220    3.8110   13.0250 C.ar  201  HEM201      0.0000
     35  C2D       25.8340    3.4900   13.2040 C.ar  201  HEM201      0.0000
     36  C3D       26.2530    4.0890   14.3720 C.ar  201  HEM201      0.0000
     37  C4D       25.0880    4.7960   14.8730 C.ar  201  HEM201      0.0000
     38  CMD       26.6990    2.6190   12.2980 C.3   201  HEM201      0.0000
     39  CAD       27.6480    3.9920   15.0300 C.3   201  HEM201      0.0000
     40  CBD       27.7070    2.8930   16.1070 C.3   201  HEM201      0.0000
     41  CGD       28.6080    3.2170   17.3020 C.2   201  HEM201      0.0000
     42  O1D       28.0880    3.5470   18.3800 O.co2 201  HEM201      0.0000
     43  O2D       29.8090    2.8730   17.2090 O.co2 201  HEM201      0.0000
@<TRIPOS>BOND
     1    32    31    2
     2    31    28    1
     3    30    27    1
     4    28    27    2
     5    28    29    1
     6    27    26    1
     7    29     5    1
     8    29    25    2
     9     5    34    2
    10    26    25    1
    11    26     4    2
    12    38    35    1
    13    25     1    1
    14     4    21    1
    15    34    35   ar
    16    34    33   ar
    17    35    36   ar
    18    23    24    1
    19    23    20    1
    20    21    20   ar
    21    21    17   ar
    22    33     1    1
    23    33    37   ar
    24    20    19   ar
    25     1    17    1
    26     1     6    1
    27    36    37   ar
    28    36    39    1
    29    17    18   ar
    30    37     2    2
    31    39    40    1
    32    19    18   ar
    33    19    22    1
    34    18     3    1
    35     6     7    2
    36     6    10    1
    37     2     7    1
    38    40    41    1
    39     7     8    1
    40     3    10    2
    41    10     9    1
    42    43    41   ar
    43    41    42   ar
    44     8     9    2
    45     8    12    1
    46     9    11    1
    47    12    13    1
    48    13    14    1
    49    15    14   ar
    50    14    16   ar
