@<TRIPOS>MOLECULE
1lj1_HEM_A_1.pdb
 43 50 0 0 0
SMALL
GASTEIGER

@<TRIPOS>ATOM
      1 FE         33.9510   24.0860   10.0240 Fe    801  HEM801      0.0000
      2  CHA       33.7330   21.3680    8.0250 C.2   801  HEM801      0.0000
      3  CHB       37.0150   24.9260    8.6130 C.2   801  HEM801      0.0000
      4  CHC       33.8900   27.0260   11.7130 C.2   801  HEM801      0.0000
      5  CHD       31.4430   22.8490   11.9760 C.2   801  HEM801      0.0000
      6  NA        35.1510   23.2830    8.6420 N.ar  801  HEM801      0.0000
      7  C1A       34.8490   22.1870    7.8450 C.ar  801  HEM801      0.0000
      8  C2A       35.8640   22.0490    6.8200 C.ar  801  HEM801      0.0000
      9  C3A       36.7550   23.0160    6.9880 C.ar  801  HEM801      0.0000
     10  C4A       36.3250   23.8220    8.1160 C.ar  801  HEM801      0.0000
     11  CMA       38.0500   23.2900    6.1700 C.3   801  HEM801      0.0000
     12  CAA       35.8830   20.9160    5.7520 C.3   801  HEM801      0.0000
     13  CBA       36.8360   19.7820    6.1320 C.3   801  HEM801      0.0000
     14  CGA       37.0290   18.5980    5.2230 C.2   801  HEM801      0.0000
     15  O1A       38.0270   17.8620    5.4660 O.co2 801  HEM801      0.0000
     16  O2A       36.1920   18.3410    4.3130 O.co2 801  HEM801      0.0000
     17  NB        35.2220   25.6570   10.1390 N.2   801  HEM801      0.0000
     18  C1B       36.4080   25.8460    9.4540 C.2   801  HEM801      0.0000
     19  C2B       36.8890   27.1780    9.7620 C.2   801  HEM801      0.0000
     20  C3B       36.0210   27.7490   10.5900 C.2   801  HEM801      0.0000
     21  C4B       34.9660   26.8080   10.8630 C.2   801  HEM801      0.0000
     22  CMB       38.1880   27.7310    9.1510 C.3   801  HEM801      0.0000
     23  CAB       35.9290   29.1640   11.1990 C.2   801  HEM801      0.0000
     24  CBB       36.0870   30.2630   10.4120 C.2   801  HEM801      0.0000
     25  NC        32.9140   24.7860   11.5770 N.ar  801  HEM801      0.0000
     26  C1C       32.9560   26.0650   12.0820 C.ar  801  HEM801      0.0000
     27  C2C       31.8640   26.2680   13.0020 C.ar  801  HEM801      0.0000
     28  C3C       31.1790   25.1220   13.0570 C.ar  801  HEM801      0.0000
     29  C4C       31.8230   24.1700   12.1760 C.ar  801  HEM801      0.0000
     30  CMC       31.6040   27.6080   13.7320 C.3   801  HEM801      0.0000
     31  CAC       29.8860   24.8140   13.8350 C.2   801  HEM801      0.0000
     32  CBC       28.9560   25.7890   14.0620 C.2   801  HEM801      0.0000
     33  ND        32.8380   22.3780   10.0330 N.2   801  HEM801      0.0000
     34  C1D       31.8040   22.0750   10.9090 C.2   801  HEM801      0.0000
     35  C2D       31.1600   20.8340   10.4730 C.2   801  HEM801      0.0000
     36  C3D       31.7970   20.4220    9.3850 C.2   801  HEM801      0.0000
     37  C4D       32.8400   21.3720    9.0780 C.2   801  HEM801      0.0000
     38  CMD       29.9510   20.2080   11.2300 C.3   801  HEM801      0.0000
     39  CAD       31.4460   19.2030    8.4910 C.3   801  HEM801      0.0000
     40  CBD       30.7230   19.6990    7.1850 C.3   801  HEM801      0.0000
     41  CGD       29.6290   20.7370    7.3020 C.2   801  HEM801      0.0000
     42  O1D       29.6560   21.7750    6.5600 O.co2 801  HEM801      0.0000
     43  O2D       28.7020   20.5770    8.1390 O.co2 801  HEM801      0.0000
@<TRIPOS>BOND
     1    16    14   ar
     2    14    15   ar
     3    14    13    1
     4    12    13    1
     5    12     8    1
     6    11     9    1
     7    42    41   ar
     8     8     9   ar
     9     8     7   ar
    10     9    10   ar
    11    40    41    1
    12    40    39    1
    13    41    43   ar
    14     7     2    2
    15     7     6   ar
    16     2    37    1
    17    10     3    2
    18    10     6   ar
    19    39    36    1
    20     3    18    1
    21     6     1    1
    22    37    36    1
    23    37    33    2
    24    22    19    1
    25    36    35    2
    26    18    19    1
    27    18    17    2
    28    19    20    2
    29     1    33    1
    30     1    17    1
    31     1    25    1
    32    33    34    1
    33    17    21    1
    34    24    23    2
    35    35    34    1
    36    35    38    1
    37    20    21    1
    38    20    23    1
    39    21     4    2
    40    34     5    2
    41    25    26   ar
    42    25    29   ar
    43     4    26    1
    44     5    29    1
    45    26    27   ar
    46    29    28   ar
    47    27    28   ar
    48    27    30    1
    49    28    31    1
    50    31    32    2
