@<TRIPOS>MOLECULE
1lj8_NAD_A_1.pdb
 44 48 0 0 0
SMALL
GASTEIGER

@<TRIPOS>ATOM
      1  PA        46.6650   33.0620   21.9120 P.3   1500  NAD1500     0.2189
      2  O1A       46.7730   34.3680   21.3140 O.2   1500  NAD1500    -0.5170
      3  O2A       47.6830   32.5090   22.8500 O.3   1500  NAD1500    -0.4371
      4  O5B       46.5250   31.9470   20.7780 O.3   1500  NAD1500    -0.3112
      5  C5B       45.4870   32.0790   19.7580 C.3   1500  NAD1500     0.1813
      6  C4B       45.8410   30.8890   18.8430 C.3   1500  NAD1500     0.1821
      7  O4B       44.8150   30.8640   17.7660 O.3   1500  NAD1500    -0.3135
      8  C3B       47.1730   31.0230   18.0230 C.3   1500  NAD1500     0.2184
      9  O3B       47.7080   29.6920   17.9070 O.3   1500  NAD1500    -0.2174
     10  C2B       46.7000   31.6120   16.6860 C.3   1500  NAD1500     0.2570
     11  O2B       47.6060   31.3700   15.6170 O.3   1500  NAD1500    -0.2130
     12  C1B       45.4120   30.8390   16.4750 C.3   1500  NAD1500     0.3186
     13  N9A       44.4830   31.4270   15.5630 N.pl3 1500  NAD1500    -0.1439
     14  C8A       43.9910   32.7130   15.4620 C.3   1500  NAD1500     0.3377
     15  N7A       43.1090   32.8400   14.4970 N.2   1500  NAD1500    -0.2095
     16  C5A       43.0270   31.5700   13.9460 C.2   1500  NAD1500     0.2526
     17  C6A       42.2270   31.1140   12.8920 C.2   1500  NAD1500     0.4393
     18  N6A       41.3480   31.8450   12.2050 N.pl3 1500  NAD1500     0.2180
     19  N1A       42.3480   29.7830   12.5180 N.2   1500  NAD1500     0.0021
     20  C2A       43.2270   28.9220   13.1730 C.3   1500  NAD1500     0.5254
     21  N3A       44.0150   29.3470   14.2360 N.2   1500  NAD1500    -0.0055
     22  C4A       43.8720   30.6950   14.5770 C.2   1500  NAD1500     0.3518
     23  O3        45.2360   33.0300   22.6020 O.3   1500  NAD1500    -0.2703
     24  PN        44.6680   32.1690   23.8350 P.3   1500  NAD1500     0.2189
     25  O1N       44.8300   32.9420   25.0700 O.3   1500  NAD1500    -0.4371
     26  O2N       45.2970   30.8470   23.7680 O.2   1500  NAD1500    -0.5170
     27  O5D       43.1200   32.1330   23.5370 O.3   1500  NAD1500    -0.3112
     28  C5D       42.6930   31.4120   22.3890 C.3   1500  NAD1500     0.1813
     29  C4D       41.2520   31.2070   22.5630 C.3   1500  NAD1500     0.1799
     30  O4D       40.9100   30.2780   23.6120 O.3   1500  NAD1500    -0.3327
     31  C3D       40.3430   32.4650   22.8090 C.3   1500  NAD1500     0.2158
     32  O3D       40.1260   33.2190   21.6220 O.3   1500  NAD1500    -0.2175
     33  C2D       39.1100   31.8800   23.4690 C.3   1500  NAD1500     0.2309
     34  O2D       38.1440   31.4830   22.5050 O.3   1500  NAD1500    -0.2158
     35  C1D       39.6730   30.6760   24.2660 C.3   1500  NAD1500     0.2263
     36  N1N       39.8960   30.9440   25.7000 N.pl3 1500  NAD1500    -0.2787
     37  C2N       40.9510   31.7130   26.2250 C.3   1500  NAD1500     0.1244
     38  C3N       40.9650   31.9460   27.5760 C.2   1500  NAD1500     0.0544
     39  C7N       42.0930   32.8170   28.1610 C.2   1500  NAD1500     0.2818
     40  O7N       41.9680   33.1800   29.3400 O.2   1500  NAD1500    -0.2670
     41  N7N       43.1010   33.2230   27.4180 N.am  1500  NAD1500    -0.0839
     42  C4N       39.8960   31.4250   28.4550 C.2   1500  NAD1500     0.0033
     43  C5N       38.8680   30.6210   27.8750 C.2   1500  NAD1500     0.0157
     44  C6N       38.8440   30.3630   26.4750 C.2   1500  NAD1500     0.0633
@<TRIPOS>BOND
     1    18    17    1
     2    19    17    2
     3    19    20    1
     4    17    16    1
     5    20    21    1
     6    16    15    2
     7    16    22    1
     8    21    22    2
     9    15    14    1
    10    22    13    1
    11    14    13    1
    12    13    12    1
    13    11    10    1
    14    12    10    1
    15    12     7    1
    16    10     8    1
    17     7     6    1
    18     9     8    1
    19     8     6    1
    20     6     5    1
    21     5     4    1
    22     4     1    1
    23     2     1    2
    24    32    31    1
    25     1    23    1
    26     1     3    1
    27    28    29    1
    28    28    27    1
    29    34    33    1
    30    29    31    1
    31    29    30    1
    32    23    24    1
    33    31    33    1
    34    33    35    1
    35    27    24    1
    36    30    35    1
    37    26    24    2
    38    24    25    1
    39    35    36    1
    40    36    37    1
    41    36    44    1
    42    37    38    1
    43    44    43    2
    44    41    39   am
    45    38    39    1
    46    38    42    2
    47    43    42    1
    48    39    40    2
