@<TRIPOS>MOLECULE
1ljn_CBS_A_1.pdb
 29 30 0 0 0
SMALL
GASTEIGER

@<TRIPOS>ATOM
      1  C1A        3.4300   16.6920   32.9240 C.3   130  CBS130      0.2586
      2  C2A        1.9640   16.4240   32.6140 C.3   130  CBS130      0.1842
      3  C3A        1.1010   17.4910   33.2820 C.3   130  CBS130      0.2094
      4  C4A        1.4650   17.7240   34.7400 C.3   130  CBS130      0.2136
      5  C5A        2.9650   17.9010   34.9440 C.3   130  CBS130      0.1834
      6  C6A        3.3460   17.9620   36.4200 C.3   130  CBS130      0.2142
      7  C7A        1.4360   15.2250   30.5090 C.2   130  CBS130      0.2420
      8  C8A        1.3620   15.3680   29.0010 C.3   130  CBS130      0.0964
      9  N2A        1.7560   16.4580   31.1750 N.am  130  CBS130     -0.1992
     10  O1A        4.2020   15.5780   32.4580 O.3   130  CBS130     -0.3264
     11  O3A       -0.2760   17.1240   33.1750 O.3   130  CBS130     -0.2183
     12  O4A        0.7780   18.8810   35.2240 O.3   130  CBS130     -0.2176
     13  O5A        3.6020   16.7270   34.3630 O.3   130  CBS130     -0.3262
     14  O6A        2.9020   16.8060   37.1330 O.3   130  CBS130     -0.2176
     15  O7A        1.2610   14.2300   31.1410 O.2   130  CBS130     -0.2733
     16  C1B        8.2060   14.5820   31.7610 C.3   130  CBS130      0.2917
     17  C2B        7.7770   14.7280   33.2220 C.3   130  CBS130      0.1870
     18  C3B        6.2500   14.6480   33.3460 C.3   130  CBS130      0.2063
     19  C4B        5.6280   15.6970   32.4220 C.3   130  CBS130      0.1795
     20  C5B        6.1140   15.5270   30.9900 C.3   130  CBS130      0.1803
     21  C6B        5.5810   16.6330   30.0890 C.3   130  CBS130      0.2141
     22  C7B        8.9100   13.8840   35.2830 C.2   130  CBS130      0.2420
     23  C8B        9.4210   12.5780   35.8780 C.3   130  CBS130      0.0964
     24  N2B        8.4010   13.6580   33.9670 N.am  130  CBS130     -0.1991
     25  O1B        7.7600   13.3320   31.2490 O.3   130  CBS130     -0.1879
     26  O3B        5.8880   14.9790   34.6910 O.3   130  CBS130     -0.2184
     27  O5B        7.5590   15.6340   30.9970 O.3   130  CBS130     -0.3243
     28  O6B        5.9720   16.3840   28.7410 O.3   130  CBS130     -0.2176
     29  O7B        8.9140   14.9430   35.8280 O.2   130  CBS130     -0.2733
@<TRIPOS>BOND
     1    28    21    1
     2     8     7    1
     3    21    20    1
     4     7    15    2
     5     7     9   am
     6    20    27    1
     7    20    19    1
     8    27    16    1
     9     9     2    1
    10    25    16    1
    11    16    17    1
    12    19    10    1
    13    19    18    1
    14    10     1    1
    15     2     1    1
    16     2     3    1
    17     1    13    1
    18    11     3    1
    19    17    18    1
    20    17    24    1
    21     3     4    1
    22    18    26    1
    23    24    22   am
    24    13     5    1
    25     4     5    1
    26     4    12    1
    27     5     6    1
    28    22    29    2
    29    22    23    1
    30     6    14    1
