@<TRIPOS>MOLECULE
1ljr_GSH_A_1.pdb
 20 19 0 0 0
SMALL
GASTEIGER

@<TRIPOS>ATOM
      1  N1        15.3300   71.3240    3.8300 N.3   245  GSH245     -0.1208
      2  CA1       15.4340   71.3680    2.3350 C.3   245  GSH245      0.1948
      3  C1        15.0830   72.7860    1.8420 C.2   245  GSH245      0.3819
      4  O11       15.8670   73.3320    1.0250 O.co2 245  GSH245     -0.2441
      5  O12       14.0280   73.3290    2.2670 O.co2 245  GSH245     -0.2441
      6  CB1       14.4760   70.3310    1.7220 C.3   245  GSH245      0.0402
      7  CG1       14.4590   70.2400    0.2010 C.3   245  GSH245      0.0889
      8  CD1       13.4780   69.2060   -0.3450 C.2   245  GSH245      0.2418
      9  OE1       13.1310   68.2170    0.3370 O.2   245  GSH245     -0.2733
     10  N2        13.0310   69.4240   -1.5890 N.am  245  GSH245     -0.1968
     11  CA2       12.0920   68.5110   -2.2460 C.3   245  GSH245      0.1843
     12  C2        12.8870   67.3890   -2.9060 C.2   245  GSH245      0.2627
     13  O2        13.9270   67.6450   -3.5360 O.2   245  GSH245     -0.2714
     14  CB2       11.2100   69.2550   -3.2530 C.3   245  GSH245      0.0997
     15  SG2        9.7200   69.9610   -2.5240 S.3   245  GSH245     -0.0797
     16  N3        12.3950   66.1510   -2.7380 N.am  245  GSH245     -0.1917
     17  CA3       13.0560   64.9740   -3.2930 C.3   245  GSH245      0.2285
     18  C3        14.0440   64.2690   -2.3760 C.2   245  GSH245      0.3865
     19  O31       14.2750   63.0440   -2.5670 O.co2 245  GSH245     -0.2437
     20  O32       14.5900   64.9480   -1.4660 O.co2 245  GSH245     -0.2437
@<TRIPOS>BOND
     1    13    12    2
     2    17    16    1
     3    17    18    1
     4    14    15    1
     5    14    11    1
     6    12    16   am
     7    12    11    1
     8    19    18   ar
     9    18    20   ar
    10    11    10    1
    11    10     8   am
    12     8     7    1
    13     8     9    2
    14     7     6    1
    15     4     3   ar
    16     6     2    1
    17     3     5   ar
    18     3     2    1
    19     2     1    1
