@<TRIPOS>MOLECULE
1ljt_HDI_A_1.pdb
 17 18 0 0 0
SMALL
GASTEIGER

@<TRIPOS>ATOM
      1  C12      -44.2650   43.1200   11.8820 C.3   115  HDI115      0.2556
      2  C11      -42.8590   42.6230    9.9600 C.2   115  HDI115      0.3209
      3  O3       -42.3970   43.7390    9.6980 O.2   115  HDI115     -0.2500
      4  O4       -44.0190   42.3620   10.6770 O.3   115  HDI115     -0.4443
      5  C10      -42.1790   41.3400    9.5080 C.3   115  HDI115      0.1561
      6  N1       -40.6100   41.7180    6.4310 N.2   115  HDI115     -0.0875
      7  O2       -41.0800   42.3130    7.4950 O.2   115  HDI115     -0.3805
      8  C9       -40.8800   41.5740    8.7110 C.3   115  HDI115      0.2134
      9  C8       -40.1680   40.3040    8.2300 C.3   115  HDI115      0.0960
     10  C7       -40.0890   40.6050    6.7550 C.2   115  HDI115      0.1007
     11  O1       -37.5930   37.0540    3.0540 O.3   115  HDI115     -0.2866
     12  C5       -39.6370   39.8230    4.3580 C.ar  115  HDI115      0.0046
     13  C6       -39.4390   39.6630    5.7450 C.ar  115  HDI115      0.0170
     14  C1       -38.6160   38.6210    6.2030 C.ar  115  HDI115      0.0046
     15  C2       -38.0080   37.7600    5.3100 C.ar  115  HDI115      0.0421
     16  C3       -38.2040   37.9170    3.9350 C.ar  115  HDI115      0.1957
     17  C4       -39.0270   38.9580    3.4620 C.ar  115  HDI115      0.0421
@<TRIPOS>BOND
     1    11    16    1
     2    17    16   ar
     3    17    12   ar
     4    16    15   ar
     5    12    13   ar
     6    15    14   ar
     7    13    14   ar
     8    13    10    1
     9     6    10    2
    10     6     7    1
    11    10     9    1
    12     7     8    1
    13     9     8    1
    14     8     5    1
    15     5     2    1
    16     3     2    2
    17     2     4    1
    18     4     1    1
