@<TRIPOS>MOLECULE
1ljw_HEM_A_1.pdb
 43 50 0 0 0
SMALL
GASTEIGER

@<TRIPOS>ATOM
      1  CHA       27.9290   10.6980   65.3870 C.2   143  HEM143      0.0000
      2  CHB       32.2010   12.7010   64.5440 C.2   143  HEM143      0.0000
      3  CHC       30.1060   16.0320   61.7050 C.2   143  HEM143      0.0000
      4  CHD       25.7540   14.2100   62.8540 C.2   143  HEM143      0.0000
      5  C1A       29.2600   11.0030   65.4750 C.2   143  HEM143      0.0000
      6  C2A       30.2290   10.1570   66.1380 C.2   143  HEM143      0.0000
      7  C3A       31.4410   10.7180   65.8410 C.2   143  HEM143      0.0000
      8  C4A       31.1990   11.9010   65.0460 C.2   143  HEM143      0.0000
      9  CMA       32.7750   10.3590   66.5250 C.3   143  HEM143      0.0000
     10  CAA       29.9460    8.9670   67.1250 C.3   143  HEM143      0.0000
     11  CBA       30.5790    7.6350   66.6880 C.3   143  HEM143      0.0000
     12  CGA       29.7770    6.4210   67.1190 C.2   143  HEM143      0.0000
     13  O1A       29.2060    6.4510   68.2220 O.co2 143  HEM143      0.0000
     14  O2A       29.7240    5.4310   66.3630 O.co2 143  HEM143      0.0000
     15  C1B       32.0320   13.7410   63.6210 C.ar  143  HEM143      0.0000
     16  C2B       33.1280   14.5100   63.0350 C.ar  143  HEM143      0.0000
     17  C3B       32.5350   15.4310   62.2240 C.ar  143  HEM143      0.0000
     18  C4B       31.0870   15.2300   62.3320 C.ar  143  HEM143      0.0000
     19  CMB       34.6110   14.3070   63.3320 C.3   143  HEM143      0.0000
     20  CAB       33.1500   16.3720   61.4250 C.3   143  HEM143      0.0000
     21  CBB       33.8920   17.4930   61.9480 C.3   143  HEM143      0.0000
     22  C1C       28.7400   15.8020   61.7590 C.2   143  HEM143      0.0000
     23  C2C       27.7460   16.6890   61.1280 C.2   143  HEM143      0.0000
     24  C3C       26.4820   16.2320   61.5380 C.2   143  HEM143      0.0000
     25  C4C       26.7640   15.0170   62.3190 C.2   143  HEM143      0.0000
     26  CMC       27.9950   17.6010   59.9570 C.3   143  HEM143      0.0000
     27  CAC       25.1950   16.7110   61.1140 C.3   143  HEM143      0.0000
     28  CBC       24.7820   18.0830   61.3460 C.3   143  HEM143      0.0000
     29  C1D       25.9720   13.1020   63.6570 C.ar  143  HEM143      0.0000
     30  C2D       24.9490   12.2830   64.2390 C.ar  143  HEM143      0.0000
     31  C3D       25.5240   11.2330   64.8530 C.ar  143  HEM143      0.0000
     32  C4D       26.9520   11.4610   64.7200 C.ar  143  HEM143      0.0000
     33  CMD       23.4360   12.5910   64.2710 C.3   143  HEM143      0.0000
     34  CAD       24.8200   10.1020   65.6730 C.3   143  HEM143      0.0000
     35  CBD       24.5960   10.6060   67.1000 C.3   143  HEM143      0.0000
     36  CGD       23.8760    9.5830   67.9780 C.2   143  HEM143      0.0000
     37  O1D       22.6890    9.3080   67.7290 O.co2 143  HEM143      0.0000
     38  O2D       24.4910    9.0470   68.9100 O.co2 143  HEM143      0.0000
     39  NA        29.8440   12.0580   64.8440 N.2   143  HEM143      0.0000
     40  NB        30.8050   14.1700   63.1380 N.ar  143  HEM143      0.0000
     41  NC        28.1140   14.7760   62.4450 N.2   143  HEM143      0.0000
     42  ND        27.1990   12.6230   63.9970 N.ar  143  HEM143      0.0000
     43 FE         28.9860   13.3730   63.6100 Fe    143  HEM143      0.0000
@<TRIPOS>BOND
     1    26    23    1
     2    27    28    1
     3    27    24    1
     4    23    24    2
     5    23    22    1
     6    20    21    1
     7    20    17    1
     8    24    25    1
     9     3    22    2
    10     3    18    1
    11    22    41    1
    12    17    18   ar
    13    17    16   ar
    14    25    41    2
    15    25     4    1
    16    18    40   ar
    17    41    43    1
    18     4    29    2
    19    16    19    1
    20    16    15   ar
    21    40    43    1
    22    40    15   ar
    23    43    42    1
    24    43    39    1
    25    15     2    1
    26    29    42   ar
    27    29    30   ar
    28    42    32   ar
    29    30    33    1
    30    30    31   ar
    31     2     8    2
    32    32    31   ar
    33    32     1    2
    34    39     8    1
    35    39     5    2
    36    31    34    1
    37     8     7    1
    38     1     5    1
    39     5     6    1
    40    34    35    1
    41     7     6    2
    42     7     9    1
    43     6    10    1
    44    14    12   ar
    45    11    12    1
    46    11    10    1
    47    35    36    1
    48    12    13   ar
    49    37    36   ar
    50    36    38   ar
