@<TRIPOS>MOLECULE
1ljy_NAG_A_1.pdb
 14 14 0 0 0
SMALL
GASTEIGER

@<TRIPOS>ATOM
      1  C1        12.8740  -17.8410   45.6270 C.3   411  NAG411      0.1665
      2  C2        14.2010  -18.0670   44.9430 C.3   411  NAG411      0.1576
      3  C3        13.9390  -19.2870   44.1760 C.3   411  NAG411      0.2069
      4  C4        13.2440  -20.3720   44.9330 C.3   411  NAG411      0.2134
      5  C5        12.1970  -19.9550   45.9900 C.3   411  NAG411      0.1809
      6  C6        11.6150  -20.8870   47.0410 C.3   411  NAG411      0.2141
      7  C7        15.4890  -16.8550   43.3040 C.2   411  NAG411      0.2420
      8  C8        15.5430  -15.6690   42.3640 C.3   411  NAG411      0.0964
      9  N2        14.3830  -16.9680   44.0240 N.am  411  NAG411     -0.2019
     10  O3        15.0730  -19.8130   43.5170 O.3   411  NAG411     -0.2184
     11  O4        12.5070  -20.8270   43.8550 O.3   411  NAG411     -0.2176
     12  O5        12.6760  -18.8310   46.6330 O.3   411  NAG411     -0.3489
     13  O6        12.3240  -22.1040   47.1370 O.3   411  NAG411     -0.2176
     14  O7        16.4370  -17.6320   43.3810 O.2   411  NAG411     -0.2733
@<TRIPOS>BOND
     1     8     7    1
     2     7    14    2
     3     7     9   am
     4    10     3    1
     5    11     4    1
     6     9     2    1
     7     3     4    1
     8     3     2    1
     9     4     5    1
    10     2     1    1
    11     1    12    1
    12     5    12    1
    13     5     6    1
    14     6    13    1
