@<TRIPOS>MOLECULE
1lk2_FUC_A_1.pdb
 10 10 0 0 0
SMALL
GASTEIGER

@<TRIPOS>ATOM
      1  C1        60.4500   55.2290   19.4500 C.3   3003  FUC3003     0.1776
      2  C2        59.7450   56.3660   18.7350 C.3   3003  FUC3003     0.2141
      3  C3        58.9630   55.6320   17.6510 C.3   3003  FUC3003     0.2172
      4  C4        58.1150   54.5170   18.2900 C.3   3003  FUC3003     0.2116
      5  C5        58.9690   53.6000   19.1750 C.3   3003  FUC3003     0.1483
      6  C6        58.1870   52.4860   19.8500 C.3   3003  FUC3003     0.0349
      7  O2        60.6970   57.2280   18.1500 O.3   3003  FUC3003    -0.2176
      8  O3        58.1870   56.5580   16.9480 O.3   3003  FUC3003    -0.2175
      9  O4        57.1280   55.1060   19.0620 O.3   3003  FUC3003    -0.2177
     10  O5        59.6420   54.3480   20.1850 O.3   3003  FUC3003    -0.3508
@<TRIPOS>BOND
     1     8     3    1
     2     3     4    1
     3     3     2    1
     4     7     2    1
     5     4     9    1
     6     4     5    1
     7     2     1    1
     8     5     6    1
     9     5    10    1
    10     1    10    1
