@<TRIPOS>MOLECULE
1lk6_III_C_1.pdb
 40 39 0 0 0
SMALL
GASTEIGER

@<TRIPOS>ATOM
      1  C         15.0820    0.4830   -2.6690 C.2     1  ACE1        0.2423
      2  O         14.6260   -0.1180   -1.6880 O.2     1  ACE1       -0.2733
      3  CH3       14.3130    0.5070   -3.9810 C.3     1  ACE1        0.0964
      4  N         16.3120    0.9940   -2.6990 N.am    2  SER2       -0.1950
      5  CA        17.1840    0.9630   -1.5320 C.3     2  SER2        0.2054
      6  C         17.8930    2.2830   -1.3220 C.2     2  SER2        0.2643
      7  O         18.3910    2.8970   -2.2750 O.2     2  SER2       -0.2714
      8  CB        18.2490   -0.1250   -1.6700 C.3     2  SER2        0.2130
      9  OG        17.6810   -1.4100   -1.5990 O.3     2  SER2       -0.2179
     10  N         17.9440    2.7050   -0.0620 N.am    3  GLU3       -0.1963
     11  CA        18.6260    3.9330    0.3230 C.3     3  GLU3        0.1733
     12  C         19.5010    3.5850    1.5310 C.2     3  GLU3        0.2616
     13  O         18.9990    3.1610    2.5760 O.2     3  GLU3       -0.2715
     14  CB        17.6080    5.0230    0.6840 C.3     3  GLU3        0.0429
     15  CG        18.2150    6.3740    1.0480 C.3     3  GLU3        0.1163
     16  CD        17.1810    7.3500    1.5890 C.2     3  GLU3        0.3649
     17  OE1       16.1540    6.8810    2.1310 O.co2   3  GLU3       -0.2457
     18  OE2       17.3980    8.5770    1.4930 O.co2   3  GLU3       -0.2457
     19  N         20.8110    3.7330    1.3680 N.am    4  ALA4       -0.1963
     20  CA        21.7550    3.4360    2.4390 C.3     4  ALA4        0.1728
     21  C         22.7440    4.5870    2.6310 C.2     4  ALA4        0.2616
     22  O         23.1200    5.2740    1.6710 O.2     4  ALA4       -0.2715
     23  CB        22.5210    2.1220    2.1380 C.3     4  ALA4        0.0334
     24  N         23.1630    4.7850    3.8780 N.am    5  ALA5       -0.1963
     25  CA        24.0980    5.8450    4.2140 C.3     5  ALA5        0.1728
     26  C         24.8830    5.4390    5.4410 C.2     5  ALA5        0.2616
     27  O         24.4320    4.6090    6.2310 O.2     5  ALA5       -0.2715
     28  CB        23.3350    7.1340    4.4840 C.3     5  ALA5        0.0334
     29  N         26.0600    6.0280    5.6080 N.am    6  ALA6       -0.1963
     30  CA        26.9020    5.7100    6.7550 C.3     6  ALA6        0.1728
     31  C         27.9090    6.8030    7.0380 C.2     6  ALA6        0.2617
     32  O         28.2420    7.6230    6.1820 O.2     6  ALA6       -0.2715
     33  CB        27.6450    4.3880    6.5110 C.3     6  ALA6        0.0334
     34  N         28.3880    6.8110    8.2670 N.am    7  SER7       -0.1914
     35  CA        29.4020    7.7640    8.6590 C.3     7  SER7        0.2304
     36  C         30.0410    7.3290    9.9650 C.2     7  SER7        0.3869
     37  O         29.5370    6.3540   10.5690 O.co2   7  SER7       -0.2437
     38  CB        28.8060    9.1560    8.8110 C.3     7  SER7        0.2152
     39  OG        29.8590   10.0960    8.9370 O.3     7  SER7       -0.2179
     40  OXT       31.0350    7.9730   10.3640 O.co2   7  SER7       -0.2437
@<TRIPOS>BOND
     1     3     1    1
     2     4     1   am
     3     4     5    1
     4     1     2    2
     5     7     6    2
     6     8     9    1
     7     8     5    1
     8     5     6    1
     9     6    10   am
    10    10    11    1
    11    11    14    1
    12    11    12    1
    13    14    15    1
    14    15    16    1
    15    19    12   am
    16    19    20    1
    17    18    16   ar
    18    12    13    2
    19    16    17   ar
    20    22    21    2
    21    23    20    1
    22    20    21    1
    23    21    24   am
    24    24    25    1
    25    25    28    1
    26    25    26    1
    27    26    29   am
    28    26    27    2
    29    29    30    1
    30    32    31    2
    31    33    30    1
    32    30    31    1
    33    31    34   am
    34    34    35    1
    35    35    38    1
    36    35    36    1
    37    38    39    1
    38    36    40   ar
    39    36    37   ar
