@<TRIPOS>MOLECULE
1lk7_DER_A_1.pdb
 13 12 0 0 0
SMALL
GASTEIGER

@<TRIPOS>ATOM
      1  OH2       15.3090   10.5100   90.6770 O.co2 1001  DER1001    -0.2427
      2  C1        16.3410   11.1430   90.9290 C.2   1001  DER1001     0.3973
      3  OH1       16.2950   12.1710   91.6100 O.co2 1001  DER1001    -0.2427
      4  C2        17.6640   10.6730   90.3750 C.3   1001  DER1001     0.2864
      5  O2        18.6940   10.6620   91.3580 O.3   1001  DER1001    -0.2080
      6  C3        18.0260   11.6680   89.2820 C.3   1001  DER1001     0.2233
      7  O3        18.1360   12.9290   89.9020 O.3   1001  DER1001    -0.2171
      8  C4        19.3310   11.3190   88.5940 C.3   1001  DER1001     0.1897
      9  O4        19.2900    9.9640   88.1220 O.3   1001  DER1001    -0.2674
     10  P         20.4240    9.5400   87.0690 P.3   1001  DER1001     0.5327
     11  O1P       19.9600    8.3440   86.2910 O.3   1001  DER1001    -0.1145
     12  O2P       21.6430    9.2950   87.9200 O.3   1001  DER1001    -0.1145
     13  O3P       20.5230   10.7050   86.1190 O.2   1001  DER1001    -0.2224
@<TRIPOS>BOND
     1    13    10    2
     2    11    10    1
     3    10    12    1
     4    10     9    1
     5     9     8    1
     6     8     6    1
     7     6     7    1
     8     6     4    1
     9     4     2    1
    10     4     5    1
    11     1     2   ar
    12     2     3   ar
