@<TRIPOS>MOLECULE
1lkc_PLP_A_1.pdb
 15 15 0 0 0
SMALL
GASTEIGER

@<TRIPOS>ATOM
      1  N1        23.5190   29.9480   69.9820 N.ar  800  PLP800     -0.2452
      2  C2        23.1910   29.4280   71.1830 C.ar  800  PLP800      0.0978
      3  C2A       22.1550   30.0590   72.0220 C.3   800  PLP800      0.0555
      4  C3        23.9070   28.2400   71.5580 C.ar  800  PLP800      0.2049
      5  O3        23.6390   27.6970   72.6950 O.3   800  PLP800     -0.2857
      6  C4        24.8790   27.7070   70.6750 C.ar  800  PLP800      0.0182
      7  C4A       25.5620   26.4580   71.1170 C.3   800  PLP800      0.0342
      8  C5        25.1580   28.3270   69.4450 C.ar  800  PLP800      0.0261
      9  C6        24.4500   29.4790   69.0970 C.ar  800  PLP800      0.0965
     10  C5A       26.1420   27.8770   68.4200 C.3   800  PLP800      0.1815
     11  O4P       25.9300   26.5070   67.9570 O.3   800  PLP800     -0.2653
     12  P         26.8370   25.8450   66.8260 P.3   800  PLP800      0.5329
     13  O1P       25.8350   25.2290   65.8200 O.2   800  PLP800     -0.2224
     14  O2P       27.6530   24.6600   67.4820 O.3   800  PLP800     -0.1145
     15  O3P       27.8280   26.9540   66.3570 O.3   800  PLP800     -0.1145
@<TRIPOS>BOND
     1    13    12    2
     2    15    12    1
     3    12    14    1
     4    12    11    1
     5    11    10    1
     6    10     8    1
     7     9     8   ar
     8     9     1   ar
     9     8     6   ar
    10     1     2   ar
    11     6     7    1
    12     6     4   ar
    13     2     4   ar
    14     2     3    1
    15     4     5    1
