@<TRIPOS>MOLECULE
1lkd_BP6_A_1.pdb
 16 17 0 0 0
SMALL
GASTEIGER

@<TRIPOS>ATOM
      1  CA1       22.5130   21.8300   16.5860 C.ar  300  BP6300      0.0438
      2  CA2       21.1540   22.0200   16.2690 C.ar  300  BP6300      0.2342
      3  OA2       20.5990   23.2740   16.1860 O.3   300  BP6300     -0.2831
      4  CA3       20.2850   20.9350   16.0240 C.ar  300  BP6300      0.2343
      5  OA3       18.9570   21.2270   15.7270 O.3   300  BP6300     -0.2831
      6  CA4       20.7760   19.6100   16.0880 C.ar  300  BP6300      0.0454
      7  CA5       22.1470   19.3970   16.4010 C.ar  300  BP6300      0.0035
      8  CA6       23.0080   20.5060   16.6500 C.ar  300  BP6300      0.0034
      9  CB1       23.3830   23.0370   16.8490 C.ar  300  BP6300      0.0243
     10  CB2       23.2300   23.7830   18.0640 C.ar  300  BP6300      0.0586
     11  CB3       24.0220   24.9270   18.3340 C.ar  300  BP6300      0.0114
     12  CB4       24.9880   25.3570   17.4010 C.ar  300  BP6300      0.0017
     13  CB5       25.1650   24.6370   16.1980 C.ar  300  BP6300      0.0114
     14  CB6       24.3730   23.4930   15.9260 C.ar  300  BP6300      0.0586
     15 CL1        22.0870   23.3850   19.3270 Cl    300  BP6300     -0.0822
     16 CL2        24.7260   22.7330   14.4020 Cl    300  BP6300     -0.0822
@<TRIPOS>BOND
     1    16    14    1
     2     5     4    1
     3    14    13   ar
     4    14     9   ar
     5     4     6   ar
     6     4     2   ar
     7     6     7   ar
     8     3     2    1
     9    13    12   ar
    10     2     1   ar
    11     7     8   ar
    12     1     8   ar
    13     1     9    1
    14     9    10   ar
    15    12    11   ar
    16    10    11   ar
    17    10    15    1
