@<TRIPOS>MOLECULE
1lke_DOG_A_1.pdb
 28 32 0 0 0
SMALL
GASTEIGER

@<TRIPOS>ATOM
      1  O23       15.2650  -21.2770   37.4530 O.2   500  DOG500     -0.2449
      2  C23       14.6030  -22.2720   37.4610 C.2   500  DOG500      0.3412
      3  C22       13.4710  -22.6250   36.6410 C.2   500  DOG500      0.0769
      4  O21       14.8390  -23.3060   38.2920 O.3   500  DOG500     -0.4408
      5  C21       13.9160  -24.3950   38.0480 C.3   500  DOG500      0.2314
      6  C20       13.0620  -23.8540   36.9790 C.2   500  DOG500      0.0053
      7  C17       11.9260  -24.6400   36.4590 C.3   500  DOG500      0.0268
      8  C16       12.1300  -26.1830   36.3780 C.3   500  DOG500      0.0068
      9  C13       10.5510  -24.4330   37.2170 C.3   500  DOG500      0.0575
     10  C18       10.5420  -23.2570   38.1900 C.3   500  DOG500      0.0053
     11  C12        9.4700  -24.2150   36.1290 C.3   500  DOG500      0.1544
     12  O12        9.6080  -22.8950   35.5440 O.3   500  DOG500     -0.2231
     13  C14       10.3040  -25.7990   37.9190 C.3   500  DOG500      0.1290
     14  C15       10.8390  -26.8230   36.9020 C.3   500  DOG500      0.0308
     15  O14       11.2120  -25.9320   39.0410 O.3   500  DOG500     -0.2256
     16  C8         8.8450  -26.0090   38.3570 C.3   500  DOG500      0.0282
     17  C7         8.6220  -27.4280   38.8860 C.3   500  DOG500      0.0024
     18  C9         7.7830  -25.6750   37.2840 C.3   500  DOG500      0.0049
     19  C11        8.0680  -24.2710   36.6520 C.3   500  DOG500      0.0331
     20  C10        6.3470  -25.8090   37.8600 C.3   500  DOG500      0.0003
     21  C19        6.0900  -24.7760   38.9900 C.3   500  DOG500      0.0000
     22  C5         6.1190  -27.2550   38.3960 C.3   500  DOG500      0.0025
     23  C6         7.2120  -27.6550   39.4110 C.3   500  DOG500      0.0002
     24  C4         6.0880  -28.3180   37.2770 C.3   500  DOG500      0.0329
     25  C3         5.0730  -27.9620   36.1890 C.3   500  DOG500      0.1520
     26  O32        3.7660  -28.0980   36.7460 O.3   500  DOG500     -0.2232
     27  C2         5.2890  -26.5800   35.6480 C.3   500  DOG500      0.0329
     28  C1         5.2750  -25.5600   36.7670 C.3   500  DOG500      0.0026
@<TRIPOS>BOND
     1    12    11    1
     2    27    25    1
     3    27    28    1
     4    11    19    1
     5    11     9    1
     6    25    26    1
     7    25    24    1
     8     8     7    1
     9     8    14    1
    10     7     6    1
    11     7     9    1
    12     3     6    2
    13     3     2    1
    14    19    18    1
    15    28    20    1
    16    14    13    1
    17     6     5    1
    18     9    13    1
    19     9    10    1
    20    24    22    1
    21    18    20    1
    22    18    16    1
    23     1     2    2
    24     2     4    1
    25    20    22    1
    26    20    21    1
    27    13    16    1
    28    13    15    1
    29     5     4    1
    30    16    17    1
    31    22    23    1
    32    17    23    1
