@<TRIPOS>MOLECULE
1lkl_III_B_1.pdb
 42 42 0 0 0
SMALL
GASTEIGER

@<TRIPOS>ATOM
      1  C         28.7210   -4.0850   -2.3300 C.2   251  ACE251      0.2423
      2  O         29.1730   -4.4970   -1.2560 O.2   251  ACE251     -0.2733
      3  CH3       28.9270   -4.9240   -3.5800 C.3   251  ACE251      0.0964
      4  N         28.0400   -2.9510   -2.4390 N.am  252  TYR252     -0.1974
      5  CA        27.8080   -2.0810   -1.3080 C.3   252  TYR252      0.1770
      6  C         26.3360   -1.9770   -0.9450 C.2   252  TYR252      0.2619
      7  O         25.4560   -2.0900   -1.8050 O.2   252  TYR252     -0.2715
      8  CB        28.3570   -0.6790   -1.5930 C.3   252  TYR252      0.0574
      9  CG        29.8720   -0.6260   -1.6670 C.ar  252  TYR252     -0.0198
     10  CD1       30.6320   -0.5030   -0.5070 C.ar  252  TYR252     -0.0011
     11  CD2       30.5390   -0.6550   -2.8980 C.ar  252  TYR252     -0.0011
     12  CE1       32.0190   -0.3960   -0.5570 C.ar  252  TYR252      0.0371
     13  CE2       31.9370   -0.5530   -2.9630 C.ar  252  TYR252      0.0371
     14  CZ        32.6650   -0.4180   -1.7850 C.ar  252  TYR252      0.1490
     15  OH        34.0280   -0.2590   -1.8330 O.3   252  TYR252     -0.3998
     16  P         35.0920   -1.4330   -1.5510 P.3   252  TYR252      0.5887
     17  O1P       35.6000   -1.9870   -2.8210 O.2   252  TYR252     -0.2114
     18  O2P       34.4900   -2.4960   -0.7480 O.3   252  TYR252     -0.1039
     19  O3P       36.1150   -0.7100   -0.7650 O.3   252  TYR252     -0.1039
     20  N         26.0940   -1.8170    0.3480 N.am  253  GLU253     -0.1963
     21  CA        24.7690   -1.6400    0.8820 C.3   253  GLU253      0.1733
     22  C         24.5470   -0.1420    0.9410 C.2   253  GLU253      0.2616
     23  O         25.5030    0.6280    0.9760 O.2   253  GLU253     -0.2715
     24  CB        24.6900   -2.2320    2.2880 C.3   253  GLU253      0.0429
     25  CG        24.3020   -3.6800    2.2990 C.3   253  GLU253      0.1163
     26  CD        22.8800   -3.8910    1.7910 C.2   253  GLU253      0.3649
     27  OE1       21.9330   -3.3720    2.4300 O.co2 253  GLU253     -0.2457
     28  OE2       22.7120   -4.5650    0.7560 O.co2 253  GLU253     -0.2457
     29  N         23.2860    0.2700    0.9080 N.am  254  GLU254     -0.1963
     30  CA        22.9300    1.6800    0.9760 C.3   254  GLU254      0.1733
     31  C         22.3670    1.9390    2.3690 C.2   254  GLU254      0.2617
     32  O         21.6290    1.1040    2.9040 O.2   254  GLU254     -0.2715
     33  CB        21.8400    2.0020   -0.0500 C.3   254  GLU254      0.0429
     34  CG        22.2220    1.7210   -1.4920 C.3   254  GLU254      0.1163
     35  CD        23.2090    2.7330   -2.0560 C.2   254  GLU254      0.3649
     36  OE1       23.1180    3.9320   -1.6970 O.co2 254  GLU254     -0.2457
     37  OE2       24.0630    2.3370   -2.8870 O.co2 254  GLU254     -0.2457
     38  N         22.7010    3.0930    2.9330 N.am  255  GLY255     -0.1917
     39  CA        22.2100    3.4680    4.2470 C.3   255  GLY255      0.2285
     40  C         21.1600    4.5540    4.0960 C.2   255  GLY255      0.3865
     41  O         20.3850    4.4870    3.1110 O.co2 255  GLY255     -0.2437
     42  OXT       21.1310    5.4880    4.9270 O.co2 255  GLY255     -0.2437
@<TRIPOS>BOND
     1     3     1    1
     2    13    11   ar
     3    13    14   ar
     4    11     9   ar
     5    37    35   ar
     6    17    16    2
     7     4     1   am
     8     4     5    1
     9     1     2    2
    10    35    36   ar
    11    35    34    1
    12    15    14    1
    13    15    16    1
    14     7     6    2
    15    14    12   ar
    16     9     8    1
    17     9    10   ar
    18     8     5    1
    19    16    19    1
    20    16    18    1
    21    34    33    1
    22     5     6    1
    23     6    20   am
    24    12    10   ar
    25    33    30    1
    26    20    21    1
    27    28    26   ar
    28    21    22    1
    29    21    24    1
    30    29    22   am
    31    29    30    1
    32    22    23    2
    33    30    31    1
    34    26    25    1
    35    26    27   ar
    36    24    25    1
    37    31    32    2
    38    31    38   am
    39    38    39    1
    40    41    40   ar
    41    40    39    1
    42    40    42   ar
