@<TRIPOS>MOLECULE
1lkx_ADP_A_1.pdb
 27 29 0 0 0
SMALL
GASTEIGER

@<TRIPOS>ATOM
      1  PB       127.7590   85.0890  -10.4070 P.3   791  ADP791      0.5373
      2  O1B      127.9770   86.0820   -9.3200 O.3   791  ADP791     -0.1143
      3  O2B      127.8390   85.5660  -11.7820 O.2   791  ADP791     -0.2221
      4  O3B      128.7730   83.9800  -10.0920 O.3   791  ADP791     -0.1143
      5  PA       125.0640   84.9780   -9.5550 P.3   791  ADP791      0.2231
      6  O1A      125.2220   84.9380   -8.0940 O.3   791  ADP791     -0.4370
      7  O2A      124.7850   86.2880  -10.2030 O.2   791  ADP791     -0.5169
      8  O3A      126.3470   84.4200  -10.3110 O.3   791  ADP791     -0.2261
      9  O5'      123.9350   83.9300   -9.8740 O.3   791  ADP791     -0.3111
     10  C5'      123.4060   83.9720  -11.2020 C.3   791  ADP791      0.1813
     11  C4'      121.9550   83.7400  -11.0700 C.3   791  ADP791      0.1821
     12  O4'      121.9070   82.4610  -10.5090 O.3   791  ADP791     -0.3135
     13  C3'      121.2810   84.5520  -10.0350 C.3   791  ADP791      0.2184
     14  O3'      121.1290   85.9490  -10.2690 O.3   791  ADP791     -0.2174
     15  C2'      120.0710   83.6950   -9.7750 C.3   791  ADP791      0.2570
     16  O2'      119.0390   83.8140  -10.7210 O.3   791  ADP791     -0.2130
     17  C1'      120.7540   82.3610   -9.6900 C.3   791  ADP791      0.3186
     18  N9       121.1970   81.9770   -8.3420 N.pl3 791  ADP791     -0.1439
     19  C8       122.4690   81.7890   -7.8670 C.3   791  ADP791      0.3377
     20  N7       122.5110   81.3100   -6.6670 N.2   791  ADP791     -0.2095
     21  C5       121.1820   81.1700   -6.3270 C.2   791  ADP791      0.2526
     22  C6       120.5790   80.6960   -5.1660 C.2   791  ADP791      0.4393
     23  N6       121.2970   80.3720   -4.1290 N.pl3 791  ADP791      0.2180
     24  N1       119.1750   80.6610   -5.1180 N.2   791  ADP791      0.0021
     25  C2       118.4370   81.1090   -6.2290 C.3   791  ADP791      0.5254
     26  N3       118.9430   81.5860   -7.3750 N.2   791  ADP791     -0.0055
     27  C4       120.3480   81.5780   -7.3520 C.2   791  ADP791      0.3518
@<TRIPOS>BOND
     1     3     1    2
     2    10    11    1
     3    10     9    1
     4    11    12    1
     5    11    13    1
     6    16    15    1
     7    12    17    1
     8     1     8    1
     9     1     4    1
    10     1     2    1
    11     8     5    1
    12    14    13    1
    13     7     5    2
    14    13    15    1
    15     9     5    1
    16    15    17    1
    17    17    18    1
    18     5     6    1
    19    18    19    1
    20    18    27    1
    21    19    20    1
    22    26    27    2
    23    26    25    1
    24    27    21    1
    25    20    21    2
    26    21    22    1
    27    25    24    1
    28    22    24    2
    29    22    23    1
