@<TRIPOS>MOLECULE
1ll2_UPG_A_1.pdb
 36 38 0 0 0
SMALL
GASTEIGER

@<TRIPOS>ATOM
      1  N1         7.2360  -32.7620   86.3490 N.am  334  UPG334     -0.1766
      2  C2         7.9070  -31.5760   86.7200 C.1   334  UPG334      0.2845
      3  N3         7.5860  -31.0640   87.9790 N.2   334  UPG334     -0.2452
      4  C4         6.6470  -31.6220   88.9190 C.1   334  UPG334      0.2182
      5  C5         5.9760  -32.8520   88.4920 C.2   334  UPG334      0.1242
      6  C6         6.2820  -33.3630   87.2630 C.2   334  UPG334      0.0929
      7  O2         8.7270  -31.0180   85.9880 O.2   334  UPG334     -0.1918
      8  O4         6.4770  -31.0350   89.9980 O.2   334  UPG334     -0.2085
      9  C1C        7.5350  -33.3760   84.9940 C.3   334  UPG334      0.2401
     10  C2C        8.7790  -34.2900   84.9350 C.3   334  UPG334      0.2319
     11  O2C        9.4300  -34.1550   83.6690 O.3   334  UPG334     -0.2157
     12  C3C        8.1700  -35.6490   85.2010 C.3   334  UPG334      0.2158
     13  C4C        6.9010  -35.5650   84.3370 C.3   334  UPG334      0.1799
     14  O4C        6.4340  -34.2040   84.5960 O.3   334  UPG334     -0.3320
     15  O3C        9.0690  -36.6640   84.7430 O.3   334  UPG334     -0.2175
     16  C5C        5.7540  -36.4980   84.7580 C.3   334  UPG334      0.1813
     17  O5C        5.6800  -36.6400   86.1850 O.3   334  UPG334     -0.3112
     18  PA         6.2190  -37.7790   87.1300 P.3   334  UPG334      0.2189
     19  O1A        7.4350  -38.3810   86.5100 O.2   334  UPG334     -0.5170
     20  O2A        6.4450  -37.1780   88.4830 O.3   334  UPG334     -0.4371
     21  O3A        4.9880  -38.7250   87.0190 O.3   334  UPG334     -0.2703
     22  PB         4.8100  -40.3120   87.0020 P.3   334  UPG334      0.2208
     23  O1B        5.7900  -40.8170   85.8460 O.2   334  UPG334     -0.5170
     24  O2B        5.3380  -40.9460   88.2210 O.3   334  UPG334     -0.4371
     25  O3B        3.3680  -40.4150   86.6350 O.3   334  UPG334     -0.2857
     26  C1'        2.5130  -39.8800   86.1200 C.3   334  UPG334      0.2742
     27  C2'        1.0940  -40.4830   86.1150 C.3   334  UPG334      0.2409
     28  C3'        1.0580  -41.8270   85.3530 C.3   334  UPG334      0.2198
     29  C4'        1.6060  -41.7180   83.9100 C.3   334  UPG334      0.2144
     30  C5'        2.9660  -40.9400   83.9240 C.3   334  UPG334      0.1835
     31  C6'        3.5430  -40.5600   82.5330 C.3   334  UPG334      0.2142
     32  O2'        0.5670  -40.7490   87.4520 O.3   334  UPG334     -0.2149
     33  O3'       -0.2890  -42.3710   85.3020 O.3   334  UPG334     -0.2174
     34  O4'        1.8030  -43.0300   83.3500 O.3   334  UPG334     -0.2176
     35  O5'        2.8630  -39.6920   84.7240 O.3   334  UPG334     -0.3254
     36  O6'        3.7330  -39.1070   82.3790 O.3   334  UPG334     -0.2176
@<TRIPOS>BOND
     1    36    31    1
     2    31    30    1
     3    34    29    1
     4    11    10    1
     5    29    30    1
     6    29    28    1
     7    30    35    1
     8    13    14    1
     9    13    16    1
    10    13    12    1
    11    14     9    1
    12    35    26    1
    13    15    12    1
    14    16    17    1
    15    10     9    1
    16    10    12    1
    17     9     1    1
    18    33    28    1
    19    28    27    1
    20    23    22    2
    21     7     2    2
    22    27    26    1
    23    27    32    1
    24    26    25    1
    25    17    18    1
    26     1     2   am
    27     1     6    1
    28    19    18    2
    29    25    22    1
    30     2     3    2
    31    22    21    1
    32    22    24    1
    33    21    18    1
    34    18    20    1
    35     6     5    2
    36     3     4    2
    37     5     4    1
    38     4     8    2
