@<TRIPOS>MOLECULE
1ll4_AMI_A_1.pdb
 15 16 0 0 0
SMALL
GASTEIGER

@<TRIPOS>ATOM
      1  C1        63.9060   26.9740   46.3660 C.3   503  AMI503      0.1987
      2  C2        64.9380   27.8070   45.6370 C.3   503  AMI503      0.1803
      3  C3        65.6800   28.4380   46.7530 C.3   503  AMI503      0.2082
      4  C4        64.5710   28.9510   47.5730 C.3   503  AMI503      0.1902
      5  C5        63.6500   27.7420   47.6730 C.3   503  AMI503      0.1081
      6  C6        62.1870   28.0400   47.9060 C.3   503  AMI503      0.1883
      7  C7        65.7670   25.7650   45.8000 C.2   503  AMI503      0.2833
      8  C8        67.8970   24.6950   45.4610 C.3   503  AMI503      0.1166
      9  C9        65.9780   23.3620   46.1240 C.3   503  AMI503      0.1166
     10  N2        65.9180   26.9160   45.0910 N.2   503  AMI503     -0.2198
     11  N7        66.5230   24.6380   45.8010 N.pl3 503  AMI503     -0.2607
     12  O3        66.5300   29.3300   46.0770 O.3   503  AMI503     -0.2182
     13  O4        65.0850   29.3750   48.8170 O.3   503  AMI503     -0.2201
     14  O6        62.0330   28.7320   49.1130 O.3   503  AMI503     -0.2202
     15  O7        64.6780   25.7850   46.6240 O.2   503  AMI503     -0.4514
@<TRIPOS>BOND
     1    10     2    1
     2    10     7    2
     3     8    11    1
     4     2     1    1
     5     2     3    1
     6     7    11    1
     7     7    15    1
     8    11     9    1
     9    12     3    1
    10     1    15    1
    11     1     5    1
    12     3     4    1
    13     4     5    1
    14     4    13    1
    15     5     6    1
    16     6    14    1
