@<TRIPOS>MOLECULE
1ll5_IM2_A_1.pdb
 20 20 0 0 0
SMALL
GASTEIGER

@<TRIPOS>ATOM
      1  C7        26.3460    5.1560   16.2040 C.2   370  IM2370      0.2115
      2  C2        22.3470    6.8570   18.2610 C.3   370  IM2370      0.0958
      3  C6        24.9670    5.7250   15.9530 C.3   370  IM2370      0.1175
      4  C5        24.4980    6.5580   17.1940 C.3   370  IM2370      0.1142
      5  C3        23.1910    6.1240   19.0630 C.2   370  IM2370      0.1428
      6  O7        27.3650    5.6160   15.7810 O.2   370  IM2370     -0.2882
      7  C61       24.9310    6.5430   14.6070 C.3   370  IM2370      0.1613
      8  O62       25.5070    5.8100   13.5420 O.3   370  IM2370     -0.2226
      9  C62       25.5880    7.9430   14.6780 C.3   370  IM2370      0.0360
     10  N4        24.3760    5.7870   18.3780 N.2   370  IM2370     -0.2688
     11  C31       23.0080    5.6410   20.5330 C.2   370  IM2370      0.4014
     12  O31       23.7020    4.5840   20.8650 O.co2 370  IM2370     -0.2392
     13  O32       22.2780    6.1990   21.3110 O.co2 370  IM2370     -0.2392
     14  S21       20.7430    7.4740   18.6870 S.3   370  IM2370     -0.1329
     15  C22       20.6660    9.0560   17.7760 C.3   370  IM2370      0.0812
     16  C23       19.2520    9.6220   17.6240 C.3   370  IM2370      0.1256
     17  N24       18.2460    8.6030   17.2960 N.pl3 370  IM2370     -0.2155
     18  C25       17.0340    8.6100   17.8160 C.2   370  IM2370      0.2043
     19  N26       16.0950    7.7530   17.5840 N.2   370  IM2370     -0.1271
     20  C1        23.0000    7.0690   16.9070 C.3   370  IM2370      0.0418
@<TRIPOS>BOND
     1     8     7    1
     2     7     9    1
     3     7     3    1
     4     6     1    2
     5     3     1    1
     6     3     4    1
     7    20     4    1
     8    20     2    1
     9     4    10    1
    10    17    16    1
    11    17    18    1
    12    19    18    2
    13    16    15    1
    14    15    14    1
    15     2    14    1
    16     2     5    1
    17    10     5    2
    18     5    11    1
    19    11    12   ar
    20    11    13   ar
