@<TRIPOS>MOLECULE
1ll9_AXL_B_1.pdb
 25 26 0 0 0
SMALL
GASTEIGER

@<TRIPOS>ATOM
      1  C1        77.4600    4.1040   28.7060 C.2   964  AXL964      0.2311
      2  O1        78.0250    3.2560   28.0710 O.2   964  AXL964     -0.2863
      3  C2        77.9280    5.4400   29.3360 C.3   964  AXL964      0.1856
      4  C3        78.5250    6.2650   28.1350 C.3   964  AXL964      0.1479
      5  S4        78.9600    7.9340   28.6060 S.3   964  AXL964     -0.1212
      6  C5        80.6790    7.8510   27.9240 C.3   964  AXL964      0.0658
      7  C51       81.5830    8.6290   28.8790 C.3   964  AXL964      0.0129
      8  C52       80.6710    8.4930   26.5510 C.3   964  AXL964      0.0129
      9  C6        81.0430    6.3190   27.9130 C.3   964  AXL964      0.1857
     10  C61       82.1130    5.8410   26.8790 C.2   964  AXL964      0.3811
     11  O62       81.7310    5.2480   25.8580 O.co2 964  AXL964     -0.2441
     12  O63       83.3070    6.0850   27.1360 O.co2 964  AXL964     -0.2441
     13  N7        79.7850    5.5670   27.8530 N.3   964  AXL964     -0.1957
     14  N8        78.7960    5.0500   30.4170 N.am  964  AXL964     -0.1953
     15  C9        79.1380    5.8470   31.4620 C.2   964  AXL964      0.2635
     16  O91       78.6110    6.9290   31.7040 O.2   964  AXL964     -0.2714
     17  C10       80.2560    5.3000   32.3360 C.3   964  AXL964      0.1915
     18  N11       79.8630    5.4780   33.7630 N.3   964  AXL964     -0.1182
     19  C12       81.6680    5.8030   31.9730 C.ar  964  AXL964      0.0040
     20  C13       82.1260    7.0390   32.4910 C.ar  964  AXL964      0.0009
     21  C14       83.4170    7.5120   32.1640 C.ar  964  AXL964      0.0418
     22  C15       84.2680    6.7350   31.3080 C.ar  964  AXL964      0.1957
     23  C16       83.8030    5.5240   30.8070 C.ar  964  AXL964      0.0418
     24  C17       82.5360    5.0450   31.1190 C.ar  964  AXL964      0.0009
     25  O18       85.5390    7.0770   30.9130 O.3   964  AXL964     -0.2866
@<TRIPOS>BOND
     1    11    10   ar
     2     8     6    1
     3    10    12   ar
     4    10     9    1
     5    13     9    1
     6    13     4    1
     7     9     6    1
     8     6     5    1
     9     6     7    1
    10     2     1    2
    11     4     5    1
    12     4     3    1
    13     1     3    1
    14     3    14    1
    15    14    15   am
    16    23    24   ar
    17    23    22   ar
    18    25    22    1
    19    24    19   ar
    20    22    21   ar
    21    15    16    2
    22    15    17    1
    23    19    17    1
    24    19    20   ar
    25    21    20   ar
    26    17    18    1
