@<TRIPOS>MOLECULE
1llb_PCN_B_1.pdb
 26 27 0 0 0
SMALL
GASTEIGER

@<TRIPOS>ATOM
      1  O1        78.4780    3.1490   29.0340 O.3   964  PCN964     -0.2184
      2  C1        77.6500    4.0720   29.4420 C.3   964  PCN964      0.2059
      3  C2        78.1190    5.3790   30.0230 C.3   964  PCN964      0.1546
      4  C3        77.9560    6.4710   28.9810 C.3   964  PCN964      0.1429
      5  S4        78.8280    8.0660   29.4490 S.3   964  PCN964     -0.1216
      6  C5        79.7850    8.1370   27.8440 C.3   964  PCN964      0.0658
      7  C51       81.1210    8.8530   28.1260 C.3   964  PCN964      0.0129
      8  C52       78.9500    8.8680   26.8240 C.3   964  PCN964      0.0129
      9  C6        79.9220    6.6460   27.5630 C.3   964  PCN964      0.1857
     10  C61       80.4700    6.3160   26.1490 C.2   964  PCN964      0.3811
     11  O62       81.6600    5.8970   26.0730 O.co2 964  PCN964     -0.2441
     12  O63       79.6640    6.4960   25.2050 O.co2 964  PCN964     -0.2441
     13  N7        78.5650    6.0830   27.6970 N.3   964  PCN964     -0.1961
     14  N8        79.4970    5.2040   30.4910 N.am  964  PCN964     -0.1969
     15  C9        79.9890    5.9290   31.6200 C.2   964  PCN964      0.2881
     16  O91       79.1920    6.6270   32.3030 O.2   964  PCN964     -0.2665
     17  C10       81.4070    5.7420   31.8660 C.2   964  PCN964      0.2001
     18  N11       82.4680    5.8250   30.9530 N.2   964  PCN964     -0.0759
     19  O12       82.1000    6.2100   29.5580 O.2   964  PCN964     -0.3729
     20  C13       83.2860    6.5860   28.8370 C.3   964  PCN964      0.2885
     21  C14       81.8960    5.4350   33.1900 C.2   964  PCN964      0.1478
     22  C15       81.2950    5.9180   34.4040 C.3   964  PCN964      0.1266
     23  S16       82.0550    5.3660   35.7630 S.3   964  PCN964     -0.0564
     24  C17       83.1720    4.5420   34.8390 C.2   964  PCN964      0.2461
     25  N18       82.8890    4.7240   33.5030 N.2   964  PCN964     -0.3794
     26  N19       84.2390    3.7660   35.3140 N.pl3 964  PCN964     -0.0867
@<TRIPOS>BOND
     1    12    10   ar
     2    11    10   ar
     3    10     9    1
     4     8     6    1
     5     9    13    1
     6     9     6    1
     7    13     4    1
     8     6     7    1
     9     6     5    1
    10    20    19    1
    11     4     5    1
    12     4     3    1
    13     1     2    1
    14     2     3    1
    15    19    18    1
    16     3    14    1
    17    14    15   am
    18    18    17    2
    19    15    17    1
    20    15    16    2
    21    17    21    1
    22    21    25    2
    23    21    22    1
    24    25    24    2
    25    22    23    1
    26    24    26    1
    27    24    23    1
