@<TRIPOS>MOLECULE
1llc_AFP_A_1.pdb
 20 20 0 0 0
SMALL
GASTEIGER

@<TRIPOS>ATOM
      1  P1        19.9940    1.9670    2.7580 P.3     1  AFP1        0.5328
      2  O1P       18.7980    1.3820    1.9790 O.3     1  AFP1       -0.1145
      3  O2P       21.2850    1.8140    1.9300 O.2     1  AFP1       -0.2224
      4  O3P       20.1620    1.1340    4.1430 O.3     1  AFP1       -0.1145
      5  O1        19.6880    3.7530    3.0570 O.3     1  AFP1       -0.2648
      6  C1        20.0380    5.0350    2.0660 C.3     1  AFP1        0.2152
      7  C2        19.4440    6.6120    2.4420 C.3     1  AFP1        0.2780
      8  O2        20.4430    7.4380    3.0740 O.3     1  AFP1       -0.1897
      9  C3        18.9370    7.4850    1.2290 C.3     1  AFP1        0.2408
     10  O3        19.5630    7.0790   -0.0020 O.3     1  AFP1       -0.2149
     11  C4        17.4240    7.2310    1.2010 C.3     1  AFP1        0.2167
     12  O4        16.6320    8.2020    0.4890 O.3     1  AFP1       -0.2175
     13  C5        17.1960    7.2610    2.6840 C.3     1  AFP1        0.1808
     14  O5        18.3550    6.6350    3.3090 O.3     1  AFP1       -0.3255
     15  C6        16.0100    6.5320    3.1930 C.3     1  AFP1        0.1859
     16  O6        16.4050    5.7780    4.3380 O.3     1  AFP1       -0.2675
     17  P6        15.4320    4.6780    4.8830 P.3     1  AFP1        0.5327
     18  O4P       13.9940    5.0280    4.4590 O.3     1  AFP1       -0.1145
     19  O5P       15.5340    4.6380    6.4190 O.3     1  AFP1       -0.1145
     20  O6P       15.8380    3.3140    4.2940 O.2     1  AFP1       -0.2224
@<TRIPOS>BOND
     1    10     9    1
     2    12    11    1
     3    11     9    1
     4    11    13    1
     5     9     7    1
     6     3     1    2
     7     2     1    1
     8     6     7    1
     9     6     5    1
    10     7     8    1
    11     7    14    1
    12    13    15    1
    13    13    14    1
    14     1     5    1
    15     1     4    1
    16    15    16    1
    17    20    17    2
    18    16    17    1
    19    18    17    1
    20    17    19    1
