@<TRIPOS>MOLECULE
1llf_NAG_A_1.pdb
 27 27 0 0 0
SMALL
GASTEIGER

@<TRIPOS>ATOM
      1  C1       -19.8110    4.4720   35.1290 C.3   535  NAG535      0.1078
      2  C2       -19.8420    3.0770   35.7580 C.3   535  NAG535      0.0802
      3  C3       -21.2210    2.8860   36.4300 C.3   535  NAG535      0.1076
      4  C4       -21.4920    4.0190   37.4100 C.3   535  NAG535      0.1493
      5  C5       -21.3370    5.3840   36.7210 C.3   535  NAG535      0.1137
      6  C6       -21.4240    6.5440   37.7020 C.3   535  NAG535      0.0730
      7  C7       -18.5860    1.2860   34.6400 C.2   535  NAG535      0.2103
      8  C8       -18.6330    0.2030   33.5810 C.3   535  NAG535      0.0122
      9  N2       -19.6470    2.0740   34.7400 N.am  535  NAG535     -0.3075
     10  O3       -21.1770    1.6340   37.0940 O.3   535  NAG535     -0.3871
     11  O4       -22.8570    4.0150   37.8720 O.3   535  NAG535     -0.2256
     12  O5       -20.0400    5.4480   36.1420 O.3   535  NAG535     -0.3638
     13  O6       -20.5740    6.2910   38.8390 O.3   535  NAG535     -0.3924
     14  O7       -17.6110    1.3730   35.3860 O.2   535  NAG535     -0.2761
     15  H1       -20.5350    4.5380   34.4410 H     535  NAG535      0.0642
     16  H2       -19.1200    3.0020   36.4460 H     535  NAG535      0.0551
     17  H3       -21.9350    2.8700   35.7300 H     535  NAG535      0.0641
     18  H4       -20.8680    3.9560   38.1890 H     535  NAG535      0.0682
     19  H5       -22.0330    5.4870   36.0090 H     535  NAG535      0.0647
     20  H61      -21.1420    7.3810   37.2550 H     535  NAG535      0.0584
     21  H62      -22.3600    6.6560   38.0050 H     535  NAG535      0.0584
     22  H81      -18.5760   -0.6760   34.0100 H     535  NAG535      0.0322
     23  H82      -17.8790    0.3160   32.9650 H     535  NAG535      0.0322
     24  H83      -19.4740    0.2690   33.0830 H     535  NAG535      0.0322
     25  HN2      -20.2820    1.9780   34.1390 H     535  NAG535      0.1491
     26  HO3      -21.3120    1.7480   37.9160 H     535  NAG535      0.2100
     27  HO6      -19.7780    6.2100   38.5810 H     535  NAG535      0.2095
@<TRIPOS>BOND
     1    23     8    1
     2    24     8    1
     3     8    22    1
     4     8     7    1
     5    25     9    1
     6    15     1    1
     7     7     9   am
     8     7    14    2
     9     9     2    1
    10     1     2    1
    11     1    12    1
    12    17     3    1
    13     2     3    1
    14     2    16    1
    15    19     5    1
    16    12     5    1
    17     3    10    1
    18     3     4    1
    19     5     4    1
    20     5     6    1
    21    10    26    1
    22    20     6    1
    23     4    11    1
    24     4    18    1
    25     6    21    1
    26     6    13    1
    27    27    13    1
