@<TRIPOS>MOLECULE
1llo_NAA_A_1.pdb
 14 14 0 0 0
SMALL
GASTEIGER

@<TRIPOS>ATOM
      1  C1        12.2250   47.1890   19.4980 C.3   274  NAA274      0.1665
      2  C2        11.0530   47.7230   20.3680 C.3   274  NAA274      0.1576
      3  C3         9.7190   47.7020   19.5430 C.3   274  NAA274      0.2069
      4  C4         9.9570   48.4380   18.2010 C.3   274  NAA274      0.2134
      5  C5        11.1600   47.6910   17.5400 C.3   274  NAA274      0.1809
      6  C6        11.5030   48.0710   16.0950 C.3   274  NAA274      0.2141
      7  C7        10.6850   47.3680   22.8070 C.2   274  NAA274      0.2420
      8  C8        10.4430   48.7740   22.9780 C.3   274  NAA274      0.0964
      9  N2        10.9530   46.9330   21.5530 N.am  274  NAA274     -0.2019
     10  O3         9.3030   46.3650   19.2430 O.3   274  NAA274     -0.2184
     11  O4         8.7630   48.2140   17.4500 O.3   274  NAA274     -0.2176
     12  O5        12.3470   47.9660   18.2980 O.3   274  NAA274     -0.3489
     13  O6        11.9270   49.4120   16.0460 O.3   274  NAA274     -0.2176
     14  O7        10.6460   46.5920   23.8160 O.2   274  NAA274     -0.2733
@<TRIPOS>BOND
     1    13     6    1
     2     6     5    1
     3    11     4    1
     4     5     4    1
     5     5    12    1
     6     4     3    1
     7    12     1    1
     8    10     3    1
     9     1     2    1
    10     3     2    1
    11     2     9    1
    12     9     7   am
    13     7     8    1
    14     7    14    2
