@<TRIPOS>MOLECULE
1llo_AMI_A_1.pdb
 15 16 0 0 0
SMALL
GASTEIGER

@<TRIPOS>ATOM
      1  C1        20.8810   43.1210   21.9530 C.3   276  AMI276      0.1987
      2  C2        19.8240   43.2780   23.0730 C.3   276  AMI276      0.1803
      3  C3        18.5270   43.6180   22.3280 C.3   276  AMI276      0.2082
      4  C4        18.9950   44.4550   21.1340 C.3   276  AMI276      0.1902
      5  C5        20.1840   43.6180   20.6720 C.3   276  AMI276      0.1081
      6  C6        21.1100   44.4480   19.7720 C.3   276  AMI276      0.1883
      7  C7        20.4440   41.1190   22.9030 C.2   276  AMI276      0.2833
      8  C8        19.9300   39.1340   24.1010 C.3   276  AMI276      0.1166
      9  C9        21.4570   38.9740   22.2200 C.3   276  AMI276      0.1166
     10  N2        19.7390   41.9950   23.6630 N.2   276  AMI276     -0.2198
     11  N7        20.6240   39.7840   23.0470 N.pl3 276  AMI276     -0.2607
     12  O3        17.7000   44.3900   23.1710 O.3   276  AMI276     -0.2182
     13  O4        18.0430   44.4770   20.0730 O.3   276  AMI276     -0.2201
     14  O6        22.0630   43.5650   19.2260 O.3   276  AMI276     -0.2202
     15  O7        21.0890   41.7090   21.8770 O.2   276  AMI276     -0.4514
@<TRIPOS>BOND
     1    14     6    1
     2     6     5    1
     3    13     4    1
     4     5     4    1
     5     5     1    1
     6     4     3    1
     7    15     1    1
     8    15     7    1
     9     1     2    1
    10     9    11    1
    11     3     2    1
    12     3    12    1
    13     7    11    1
    14     7    10    2
    15    11     8    1
    16     2    10    1
