@<TRIPOS>MOLECULE
1llp_MAN_A_1.pdb
 11 11 0 0 0
SMALL
GASTEIGER

@<TRIPOS>ATOM
      1  C1        59.2220   96.1690   37.9500 C.3   370  MAN370      0.1777
      2  C2        59.6900   96.7900   36.5790 C.3   370  MAN370      0.2141
      3  C3        60.3850   95.8030   35.6700 C.3   370  MAN370      0.2173
      4  C4        61.4510   94.9850   36.3330 C.3   370  MAN370      0.2142
      5  C5        60.8780   94.4280   37.6670 C.3   370  MAN370      0.1810
      6  C6        62.0480   93.8680   38.5010 C.3   370  MAN370      0.2141
      7  O2        60.4960   97.9200   36.9350 O.3   370  MAN370     -0.2176
      8  O3        60.9560   96.4860   34.5160 O.3   370  MAN370     -0.2175
      9  O4        62.0110   93.9150   35.5920 O.3   370  MAN370     -0.2176
     10  O5        60.2330   95.3760   38.5130 O.3   370  MAN370     -0.3481
     11  O6        61.3320   93.0820   39.4830 O.3   370  MAN370     -0.2176
@<TRIPOS>BOND
     1     8     3    1
     2     9     4    1
     3     3     4    1
     4     3     2    1
     5     4     5    1
     6     2     7    1
     7     2     1    1
     8     5     6    1
     9     5    10    1
    10     1    10    1
    11     6    11    1
