@<TRIPOS>MOLECULE
1llp_HEM_A_1.pdb
 43 50 0 0 0
SMALL
GASTEIGER

@<TRIPOS>ATOM
      1  CHA       58.3520   94.2420   18.7620 C.2   350  HEM350      0.0000
      2  CHB       55.5540   97.5780   16.6410 C.2   350  HEM350      0.0000
      3  CHC       53.3930   94.0860   14.1110 C.2   350  HEM350      0.0000
      4  CHD       56.2080   90.7040   16.1250 C.2   350  HEM350      0.0000
      5  C1A       57.8720   95.4730   18.3460 C.2   350  HEM350      0.0000
      6  C2A       58.3150   96.7730   18.7880 C.2   350  HEM350      0.0000
      7  C3A       57.5730   97.7150   18.1950 C.2   350  HEM350      0.0000
      8  C4A       56.5340   97.0100   17.4710 C.2   350  HEM350      0.0000
      9  CMA       57.5530   99.2340   18.4860 C.3   350  HEM350      0.0000
     10  CAA       59.6300   96.9680   19.5930 C.3   350  HEM350      0.0000
     11  CBA       60.8070   97.0980   18.6260 C.3   350  HEM350      0.0000
     12  CGA       62.0190   97.7230   19.2750 C.2   350  HEM350      0.0000
     13  O1A       61.9150   98.2920   20.3840 O.co2 350  HEM350      0.0000
     14  O2A       63.0800   97.5440   18.6210 O.co2 350  HEM350      0.0000
     15  C1B       54.6640   96.9470   15.7940 C.ar  350  HEM350      0.0000
     16  C2B       53.7100   97.5750   14.9040 C.ar  350  HEM350      0.0000
     17  C3B       53.0640   96.5930   14.2620 C.ar  350  HEM350      0.0000
     18  C4B       53.6430   95.3400   14.6760 C.ar  350  HEM350      0.0000
     19  CMB       53.5110   99.0760   14.8430 C.3   350  HEM350      0.0000
     20  CAB       51.9580   96.5920   13.1560 C.3   350  HEM350      0.0000
     21  CBB       51.0980   97.5870   13.2810 C.3   350  HEM350      0.0000
     22  C1C       54.0320   92.8640   14.3150 C.2   350  HEM350      0.0000
     23  C2C       53.6750   91.6090   13.7110 C.2   350  HEM350      0.0000
     24  C3C       54.5060   90.6770   14.1830 C.2   350  HEM350      0.0000
     25  C4C       55.3580   91.3010   15.2000 C.2   350  HEM350      0.0000
     26  CMC       52.5000   91.4890   12.7050 C.3   350  HEM350      0.0000
     27  CAC       54.4510   89.1860   13.8270 C.3   350  HEM350      0.0000
     28  CBC       55.5810   88.6530   13.5650 C.3   350  HEM350      0.0000
     29  C1D       57.0500   91.3940   17.0090 C.ar  350  HEM350      0.0000
     30  C2D       57.8280   90.7510   18.0740 C.ar  350  HEM350      0.0000
     31  C3D       58.4250   91.7390   18.7610 C.ar  350  HEM350      0.0000
     32  C4D       57.9880   92.9920   18.2310 C.ar  350  HEM350      0.0000
     33  CMD       57.8490   89.2290   18.2660 C.3   350  HEM350      0.0000
     34  CAD       59.4250   91.5910   19.9290 C.3   350  HEM350      0.0000
     35  CBD       60.9000   91.6990   19.5100 C.3   350  HEM350      0.0000
     36  CGD       61.8720   91.3730   20.6790 C.2   350  HEM350      0.0000
     37  O1D       63.0610   91.7280   20.4930 O.co2 350  HEM350      0.0000
     38  O2D       61.3520   90.8550   21.6810 O.co2 350  HEM350      0.0000
     39  NA        56.7510   95.6660   17.5590 N.2   350  HEM350      0.0000
     40  NB        54.6710   95.5980   15.5680 N.ar  350  HEM350      0.0000
     41  NC        55.0600   92.6540   15.2340 N.2   350  HEM350      0.0000
     42  ND        57.0370   92.7540   17.2420 N.ar  350  HEM350      0.0000
     43 FE         55.8150   94.1610   16.4600 Fe    350  HEM350      0.0000
@<TRIPOS>BOND
     1    26    23    1
     2    20    21    1
     3    20    17    1
     4    28    27    1
     5    23    24    2
     6    23    22    1
     7    27    24    1
     8     3    22    2
     9     3    18    1
    10    24    25    1
    11    17    18   ar
    12    17    16   ar
    13    22    41    1
    14    18    40   ar
    15    19    16    1
    16    16    15   ar
    17    25    41    2
    18    25     4    1
    19    41    43    1
    20    40    15   ar
    21    40    43    1
    22    15     2    1
    23     4    29    2
    24    43    42    1
    25    43    39    1
    26     2     8    2
    27    29    42   ar
    28    29    30   ar
    29    42    32   ar
    30     8    39    1
    31     8     7    1
    32    39     5    2
    33    30    33    1
    34    30    31   ar
    35     7     9    1
    36     7     6    2
    37    32    31   ar
    38    32     1    2
    39     5     1    1
    40     5     6    1
    41    14    12   ar
    42    11    12    1
    43    11    10    1
    44    31    34    1
    45     6    10    1
    46    12    13   ar
    47    35    34    1
    48    35    36    1
    49    37    36   ar
    50    36    38   ar
