@<TRIPOS>MOLECULE
1llq_NAD_A_1.pdb
 44 48 0 0 0
SMALL
GASTEIGER

@<TRIPOS>ATOM
      1  PA        29.4650  117.1690   94.2750 P.3   1001  NAD1001     0.2189
      2  O1A       28.8330  116.6930   95.6720 O.3   1001  NAD1001    -0.4371
      3  O2A       31.0200  116.7710   94.2430 O.2   1001  NAD1001    -0.5170
      4  O5B       29.3140  118.7690   94.1300 O.3   1001  NAD1001    -0.3112
      5  C5B       28.0970  119.5090   94.3980 C.3   1001  NAD1001     0.1813
      6  C4B       28.4330  120.9830   94.7040 C.3   1001  NAD1001     0.1821
      7  O4B       27.2190  121.7800   94.6570 O.3   1001  NAD1001    -0.3135
      8  C3B       29.0510  121.2220   96.1010 C.3   1001  NAD1001     0.2184
      9  O3B       30.0810  122.2150   96.0160 O.3   1001  NAD1001    -0.2174
     10  C2B       27.8550  121.6800   96.9350 C.3   1001  NAD1001     0.2570
     11  O2B       28.2930  122.4390   98.0710 O.3   1001  NAD1001    -0.2130
     12  C1B       27.0670  122.4900   95.8990 C.3   1001  NAD1001     0.3186
     13  N9A       25.6190  122.6330   96.2290 N.pl3 1001  NAD1001    -0.1439
     14  C8A       24.6710  121.7160   96.6980 C.3   1001  NAD1001     0.3377
     15  N7A       23.3950  122.0260   96.9490 N.2   1001  NAD1001    -0.2095
     16  C5A       23.4800  123.4250   96.5830 C.2   1001  NAD1001     0.2526
     17  C6A       22.5000  124.5170   96.5780 C.2   1001  NAD1001     0.4393
     18  N6A       21.2270  124.3990   96.9370 N.pl3 1001  NAD1001     0.2180
     19  N1A       22.8400  125.7500   96.1820 N.2   1001  NAD1001     0.0021
     20  C2A       24.0880  126.0120   95.8030 C.3   1001  NAD1001     0.5254
     21  N3A       25.1090  125.1770   95.7360 N.2   1001  NAD1001    -0.0055
     22  C4A       24.8380  123.7790   96.1620 C.2   1001  NAD1001     0.3518
     23  O3        28.6950  116.4670   93.1010 O.3   1001  NAD1001    -0.2703
     24  PN        29.4290  116.4600   91.7100 P.3   1001  NAD1001     0.2189
     25  O1N       30.2420  115.0980   91.5530 O.2   1001  NAD1001    -0.5170
     26  O2N       30.4510  117.6920   91.5890 O.3   1001  NAD1001    -0.4371
     27  O5D       28.3340  116.5790   90.5560 O.3   1001  NAD1001    -0.3112
     28  C5D       27.3620  117.6390   90.4920 C.3   1001  NAD1001     0.1813
     29  C4D       26.3810  117.3930   89.3410 C.3   1001  NAD1001     0.1799
     30  O4D       27.0990  117.3340   88.0890 O.3   1001  NAD1001    -0.3327
     31  C3D       25.5620  116.0700   89.4300 C.3   1001  NAD1001     0.2158
     32  O3D       24.1540  116.2850   89.2530 O.3   1001  NAD1001    -0.2175
     33  C2D       26.2020  115.1880   88.3590 C.3   1001  NAD1001     0.2309
     34  O2D       25.2810  114.2070   87.8790 O.3   1001  NAD1001    -0.2158
     35  C1D       26.6020  116.2270   87.3140 C.3   1001  NAD1001     0.2263
     36  N1N       27.6680  115.7540   86.3330 N.pl3 1001  NAD1001    -0.2787
     37  C2N       27.5180  116.0020   85.0100 C.3   1001  NAD1001     0.1244
     38  C3N       28.4830  115.5970   84.0360 C.2   1001  NAD1001     0.0544
     39  C7N       28.3720  115.8510   82.5410 C.2   1001  NAD1001     0.2818
     40  O7N       27.3260  116.1770   81.9760 O.2   1001  NAD1001    -0.2670
     41  N7N       29.4170  115.7450   81.7320 N.am  1001  NAD1001    -0.0839
     42  C4N       29.6360  114.9060   84.5310 C.2   1001  NAD1001     0.0033
     43  C5N       29.7930  114.6490   85.9110 C.2   1001  NAD1001     0.0157
     44  C6N       28.7740  115.0970   86.7880 C.2   1001  NAD1001     0.0633
@<TRIPOS>BOND
     1    41    39   am
     2    40    39    2
     3    39    38    1
     4    38    42    2
     5    38    37    1
     6    42    43    1
     7    37    36    1
     8    43    44    2
     9    36    44    1
    10    36    35    1
    11    35    30    1
    12    35    33    1
    13    34    33    1
    14    30    29    1
    15    33    31    1
    16    32    31    1
    17    29    31    1
    18    29    28    1
    19    28    27    1
    20    27    24    1
    21    25    24    2
    22    26    24    1
    23    24    23    1
    24    23     1    1
    25     4     1    1
    26     4     5    1
    27     3     1    2
    28     1     2    1
    29     5     6    1
    30     7     6    1
    31     7    12    1
    32     6     8    1
    33    21    20    1
    34    21    22    2
    35    20    19    1
    36    12    13    1
    37    12    10    1
    38     9     8    1
    39     8    10    1
    40    22    13    1
    41    22    16    1
    42    19    17    2
    43    13    14    1
    44    17    16    1
    45    17    18    1
    46    16    15    2
    47    14    15    1
    48    10    11    1
