@<TRIPOS>MOLECULE
1llr_LNQ_D_1.pdb
 21 21 0 0 0
SMALL
GASTEIGER

@<TRIPOS>ATOM
      1  C1       -15.4530   22.2300   -4.0070 C.3   105  LNQ105      0.0027
      2  C2       -16.6350   23.0590   -3.6540 C.3   105  LNQ105      0.0321
      3  C3       -17.5410   22.6260   -2.5040 C.3   105  LNQ105      0.1423
      4  O4       -17.1510   23.6010   -1.4760 O.3   105  LNQ105     -0.3511
      5  C5       -18.1980   24.4860   -1.0640 C.3   105  LNQ105      0.1741
      6  C6       -17.8330   25.8040   -1.7560 C.3   105  LNQ105      0.1742
      7  O7       -18.1140   26.9100   -0.9280 O.3   105  LNQ105     -0.3484
      8  C8       -19.2420   27.2590   -0.1450 C.3   105  LNQ105      0.1742
      9  C9       -19.2190   28.7680   -0.0780 C.3   105  LNQ105      0.1741
     10  O10      -18.8410   29.2500   -1.3830 O.3   105  LNQ105     -0.3510
     11  C11      -19.2290   30.6230   -1.5810 C.3   105  LNQ105      0.1441
     12  C12      -18.8600   30.9190   -3.0160 C.3   105  LNQ105      0.0554
     13  C13      -18.2200   32.3250   -3.3630 C.3   105  LNQ105      0.1150
     14  N14      -18.4890   32.9900   -4.7150 N.pl3 105  LNQ105     -0.2329
     15  C15      -18.6550   34.3170   -4.7210 C.2   105  LNQ105      0.1275
     16  C16      -19.9290   35.0440   -4.3500 C.2   105  LNQ105      0.2517
     17  C17      -19.2120   36.3040   -4.5770 C.2   105  LNQ105      0.2535
     18  C18      -18.0250   35.5390   -4.9230 C.2   105  LNQ105      0.1491
     19  O19      -20.9680   34.4800   -4.0230 O.2   105  LNQ105     -0.2817
     20  O20      -19.2670   37.5310   -4.5760 O.2   105  LNQ105     -0.2816
     21  N21      -16.8480   36.1340   -5.2950 N.pl3 105  LNQ105     -0.1231
@<TRIPOS>BOND
     1    21    18    1
     2    18    15    2
     3    18    17    1
     4    15    14    1
     5    15    16    1
     6    14    13    1
     7    17    20    2
     8    17    16    1
     9    16    19    2
    10     1     2    1
    11     2     3    1
    12    13    12    1
    13    12    11    1
    14     3     4    1
    15     6     5    1
    16     6     7    1
    17    11    10    1
    18     4     5    1
    19    10     9    1
    20     7     8    1
    21     8     9    1
