@<TRIPOS>MOLECULE
1llr_FNG_D_1.pdb
 24 25 0 0 0
SMALL
GASTEIGER

@<TRIPOS>ATOM
      1  C1       -10.9730   19.7570    2.0940 C.3   104  FNG104      0.3218
      2  O1       -12.3700   20.0080    2.0830 O.3   104  FNG104     -0.4504
      3  C2       -10.7930   18.5120    2.9040 C.3   104  FNG104      0.2542
      4  O2       -11.5510   17.3930    2.3360 O.3   104  FNG104     -0.2135
      5  C3       -11.1740   18.8100    4.4040 C.3   104  FNG104      0.2211
      6  O3       -10.7880   17.6330    5.1740 O.3   104  FNG104     -0.2173
      7  C4       -10.3790   19.9620    4.9600 C.3   104  FNG104      0.2145
      8  O4        -8.9640   19.6350    5.0290 O.3   104  FNG104     -0.2176
      9  C5       -10.6180   21.1230    4.0650 C.3   104  FNG104      0.1846
     10  O5       -10.2850   20.8280    2.6920 O.3   104  FNG104     -0.3157
     11  C6        -9.7380   22.3620    4.4160 C.3   104  FNG104      0.2142
     12  O6       -10.1570   23.4230    3.5580 O.3   104  FNG104     -0.2176
     13  C7       -12.7960   21.0700    1.2370 C.ar  104  FNG104      0.1432
     14  C12      -12.8690   22.3390    1.8010 C.ar  104  FNG104      0.0610
     15  C11      -13.3070   23.3310    0.9230 C.ar  104  FNG104      0.1460
     16  C10      -13.6460   23.0880   -0.4100 C.ar  104  FNG104      0.0289
     17  C9       -13.5380   21.7680   -0.8800 C.ar  104  FNG104      0.0613
     18  C8       -13.1250   20.7250   -0.0750 C.ar  104  FNG104      0.0417
     19  N16      -13.3180   24.7220    1.4410 N.pl3 104  FNG104      0.0578
     20  O17      -13.7890   25.5220    0.6790 O.2   104  FNG104     -0.1261
     21  O18      -13.1170   24.8490    2.6660 O.2   104  FNG104     -0.1261
     22  C13      -13.9370   21.4830   -2.3000 C.2   104  FNG104      0.2843
     23  N15      -14.5600   22.4080   -2.8670 N.am  104  FNG104     -0.0837
     24  O14      -13.6670   20.4030   -2.7760 O.2   104  FNG104     -0.2667
@<TRIPOS>BOND
     1    23    22   am
     2    24    22    2
     3    22    17    1
     4    17    16   ar
     5    17    18   ar
     6    16    15   ar
     7    18    13   ar
     8    20    19    2
     9    15    19    1
    10    15    14   ar
    11    13    14   ar
    12    13     2    1
    13    19    21    2
    14     2     1    1
    15     1    10    1
    16     1     3    1
    17     4     3    1
    18    10     9    1
    19     3     5    1
    20    12    11    1
    21     9    11    1
    22     9     7    1
    23     5     7    1
    24     5     6    1
    25     7     8    1
