@<TRIPOS>MOLECULE
1llu_NAD_A_1.pdb
 44 48 0 0 0
SMALL
GASTEIGER

@<TRIPOS>ATOM
      1  PA        40.9920   16.6730   32.0440 P.3   1250  NAD1250     0.2189
      2  O1A       39.5860   16.4030   32.4250 O.3   1250  NAD1250    -0.4371
      3  O2A       41.5170   16.1280   30.7640 O.2   1250  NAD1250    -0.5170
      4  O5B       41.1420   18.2430   32.1120 O.3   1250  NAD1250    -0.3112
      5  C5B       42.3450   18.9610   31.7020 C.3   1250  NAD1250     0.1813
      6  C4B       41.8720   20.3480   31.3590 C.3   1250  NAD1250     0.1821
      7  O4B       43.0650   21.0970   30.9210 O.3   1250  NAD1250    -0.3135
      8  C3B       40.8730   20.4260   30.1560 C.3   1250  NAD1250     0.2184
      9  O3B       39.6370   21.0690   30.5970 O.3   1250  NAD1250    -0.2174
     10  C2B       41.6000   21.1980   29.0770 C.3   1250  NAD1250     0.2570
     11  O2B       40.8550   21.9170   28.1490 O.3   1250  NAD1250    -0.2130
     12  C1B       42.5920   22.0060   29.9430 C.3   1250  NAD1250     0.3186
     13  N9A       43.7430   22.4430   29.1710 N.pl3 1250  NAD1250    -0.1439
     14  C8A       44.5190   21.8330   28.1720 C.3   1250  NAD1250     0.3377
     15  N7A       45.4970   22.5990   27.7220 N.2   1250  NAD1250    -0.2095
     16  C5A       45.4270   23.7590   28.3940 C.2   1250  NAD1250     0.2526
     17  C6A       46.2210   24.9870   28.3460 C.2   1250  NAD1250     0.4393
     18  N6A       47.2440   25.1380   27.5250 N.pl3 1250  NAD1250     0.2180
     19  N1A       45.8090   25.9760   29.2340 N.2   1250  NAD1250     0.0021
     20  C2A       44.7760   25.8820   30.0940 C.3   1250  NAD1250     0.5254
     21  N3A       43.9840   24.7340   30.1770 N.2   1250  NAD1250    -0.0055
     22  C4A       44.3430   23.6960   29.3120 C.2   1250  NAD1250     0.3518
     23  O3        41.9710   16.1510   33.1780 O.3   1250  NAD1250    -0.2703
     24  PN        41.7100   15.7550   34.7380 P.3   1250  NAD1250     0.2189
     25  O1N       41.3640   16.8060   35.6950 O.3   1250  NAD1250    -0.4371
     26  O2N       42.3020   14.4540   35.1180 O.2   1250  NAD1250    -0.5170
     27  O5D       43.1970   16.4650   34.8930 O.3   1250  NAD1250    -0.3112
     28  C5D       44.3330   15.9920   34.1320 C.3   1250  NAD1250     0.1813
     29  C4D       45.6740   16.1350   34.7290 C.3   1250  NAD1250     0.1799
     30  O4D       45.6750   15.9850   36.2400 O.3   1250  NAD1250    -0.3327
     31  C3D       46.6030   14.9960   34.1890 C.3   1250  NAD1250     0.2158
     32  O3D       47.9130   15.4660   33.8600 O.3   1250  NAD1250    -0.2175
     33  C2D       46.5870   14.0150   35.3580 C.3   1250  NAD1250     0.2309
     34  O2D       47.5330   13.0030   35.3160 O.3   1250  NAD1250    -0.2158
     35  C1D       46.7050   15.0050   36.5690 C.3   1250  NAD1250     0.2261
     36  N1N       46.4750   14.2660   37.8420 N.pl3 1250  NAD1250    -0.2831
     37  C2N       47.3670   14.6360   38.9050 C.2   1250  NAD1250     0.0633
     38  C3N       47.0760   14.4920   40.1990 C.2   1250  NAD1250     0.0490
     39  C7N       48.0770   14.8750   41.2650 C.2   1250  NAD1250     0.2814
     40  O7N       47.9560   14.3480   42.3800 O.2   1250  NAD1250    -0.2670
     41  N7N       49.0680   15.7260   40.9880 N.am  1250  NAD1250    -0.0839
     42  C4N       45.7330   13.9140   40.6550 C.3   1250  NAD1250     0.0341
     43  C5N       44.6790   14.1430   39.6020 C.3   1250  NAD1250     0.0264
     44  C6N       45.0810   14.0390   38.2380 C.3   1250  NAD1250     0.0934
@<TRIPOS>BOND
     1    18    17    1
     2    15    14    1
     3    15    16    2
     4    11    10    1
     5    14    13    1
     6    17    16    1
     7    17    19    2
     8    16    22    1
     9    10    12    1
    10    10     8    1
    11    13    22    1
    12    13    12    1
    13    19    20    1
    14    22    21    2
    15    12     7    1
    16    20    21    1
    17     8     9    1
    18     8     6    1
    19     3     1    2
    20     7     6    1
    21     6     5    1
    22     5     4    1
    23     1     4    1
    24     1     2    1
    25     1    23    1
    26    23    24    1
    27    32    31    1
    28    28    29    1
    29    28    27    1
    30    31    29    1
    31    31    33    1
    32    29    30    1
    33    24    27    1
    34    24    26    2
    35    24    25    1
    36    34    33    1
    37    33    35    1
    38    30    35    1
    39    35    36    1
    40    36    44    1
    41    36    37    1
    42    44    43    1
    43    37    38    2
    44    43    42    1
    45    38    42    1
    46    38    39    1
    47    41    39   am
    48    39    40    2
