@<TRIPOS>MOLECULE
1llw_AKG_A_1.pdb
 10 9 0 0 0
SMALL
GASTEIGER

@<TRIPOS>ATOM
      1  C1       177.1700  225.9330   32.3440 C.2   2073  AKG2073     0.3946
      2  O1       177.5090  224.6650   32.4460 O.co2 2073  AKG2073    -0.2428
      3  O2       177.2050  226.7180   33.3770 O.co2 2073  AKG2073    -0.2428
      4  C2       176.6530  226.5340   31.0530 C.3   2073  AKG2073     0.2545
      5  O5       175.9390  225.7390   30.2750 O.3   2073  AKG2073    -0.2109
      6  C3       176.9220  227.9920   30.7560 C.3   2073  AKG2073     0.0565
      7  C4       175.6750  228.6540   30.1640 C.3   2073  AKG2073     0.1173
      8  C5       175.7560  230.1470   30.0570 C.2   2073  AKG2073     0.3650
      9  O3       175.3590  230.7940   28.9950 O.co2 2073  AKG2073    -0.2457
     10  O4       176.2180  230.8690   31.0330 O.co2 2073  AKG2073    -0.2457
@<TRIPOS>BOND
     1     9     8   ar
     2     8     7    1
     3     8    10   ar
     4     7     6    1
     5     5     4    1
     6     6     4    1
     7     4     1    1
     8     1     2   ar
     9     1     3   ar
