@<TRIPOS>MOLECULE
1llw_FMN_A_1.pdb
 31 33 0 0 0
SMALL
GASTEIGER

@<TRIPOS>ATOM
      1  N1       182.5020  225.3200   29.9840 N.2   2070  FMN2070    -0.2887
      2  C2       182.3820  225.9800   28.8070 C.1   2070  FMN2070     0.3669
      3  O2       182.9070  225.5290   27.8160 O.2   2070  FMN2070    -0.1744
      4  N3       181.6710  227.1470   28.7620 N.2   2070  FMN2070    -0.2300
      5  C4       181.0570  227.6530   29.9020 C.1   2070  FMN2070     0.2513
      6  O4       180.6280  228.8130   29.8910 O.2   2070  FMN2070    -0.2057
      7  C4A      181.1840  226.9600   31.1050 C.2   2070  FMN2070     0.2703
      8  N5       180.6230  227.4190   32.2710 N.2   2070  FMN2070    -0.3882
      9  C5A      180.8040  226.7030   33.4310 C.2   2070  FMN2070     0.1277
     10  C6       180.2440  227.1580   34.6160 C.3   2070  FMN2070     0.0820
     11  C7       180.4080  226.4510   35.8000 C.2   2070  FMN2070    -0.0408
     12  C7M      179.9400  227.0730   37.0660 C.3   2070  FMN2070     0.0265
     13  C8       181.1500  225.2840   35.8160 C.2   2070  FMN2070    -0.0280
     14  C8M      181.6040  224.7420   37.1260 C.3   2070  FMN2070     0.0304
     15  C9       181.7210  224.8310   34.6330 C.2   2070  FMN2070     0.0123
     16  C9A      181.5420  225.5300   33.4360 C.2   2070  FMN2070     0.0793
     17  N10      182.1060  225.1130   32.2570 N.pl3 2070  FMN2070    -0.2545
     18  C10      181.9170  225.8000   31.1170 C.2   2070  FMN2070     0.2449
     19  C1'      183.1660  224.0800   32.2090 C.3   2070  FMN2070     0.1336
     20  C2'      184.5990  224.5720   32.3360 C.3   2070  FMN2070     0.2048
     21  O2'      184.9730  225.3190   31.2300 O.3   2070  FMN2070    -0.2185
     22  C3'      185.5190  223.3800   32.4130 C.3   2070  FMN2070     0.2165
     23  O3'      185.3860  222.6780   31.2140 O.3   2070  FMN2070    -0.2175
     24  C4'      185.1420  222.4780   33.5810 C.3   2070  FMN2070     0.2147
     25  O4'      184.5670  223.2210   34.6200 O.3   2070  FMN2070    -0.2176
     26  C5'      186.3350  221.7310   34.1370 C.3   2070  FMN2070     0.1892
     27  O5'      185.9440  220.6150   34.8890 O.3   2070  FMN2070    -0.2674
     28  P        186.1160  220.6230   36.4530 P.3   2070  FMN2070     0.5327
     29  O1P      186.1060  219.2410   36.9170 O.3   2070  FMN2070    -0.1145
     30  O2P      184.9760  221.4620   37.0280 O.3   2070  FMN2070    -0.1145
     31  O3P      187.4490  221.2690   36.7660 O.2   2070  FMN2070    -0.2224
@<TRIPOS>BOND
     1     3     2    2
     2     4     2    2
     3     4     5    2
     4     2     1    2
     5     6     5    2
     6     5     7    1
     7     1    18    2
     8     7    18    1
     9     7     8    2
    10    18    17    1
    11    23    22    1
    12    21    20    1
    13    19    17    1
    14    19    20    1
    15    17    16    1
    16     8     9    2
    17    20    22    1
    18    22    24    1
    19     9    16    1
    20     9    10    1
    21    16    15    2
    22    24    26    1
    23    24    25    1
    24    26    27    1
    25    10    11    1
    26    15    13    1
    27    27    28    1
    28    11    13    2
    29    11    12    1
    30    13    14    1
    31    28    31    2
    32    28    29    1
    33    28    30    1
