@<TRIPOS>MOLECULE
1llz_FMN_A_1.pdb
 31 33 0 0 0
SMALL
GASTEIGER

@<TRIPOS>ATOM
      1  N1       183.2880  226.3000   30.1390 N.2   2070  FMN2070    -0.2887
      2  C2       183.0410  226.9850   28.9860 C.1   2070  FMN2070     0.3669
      3  O2       183.6600  226.6990   27.9660 O.2   2070  FMN2070    -0.1744
      4  N3       182.1080  227.9970   28.9880 N.2   2070  FMN2070    -0.2300
      5  C4       181.4160  228.3520   30.1360 C.1   2070  FMN2070     0.2513
      6  O4       180.9820  229.5140   30.2140 O.2   2070  FMN2070    -0.2057
      7  C4A      181.6730  227.6320   31.3070 C.2   2070  FMN2070     0.2703
      8  N5       181.0160  227.9320   32.4850 N.2   2070  FMN2070    -0.3882
      9  C5A      181.3070  227.2110   33.6140 C.2   2070  FMN2070     0.1277
     10  C6       180.6640  227.4880   34.8090 C.3   2070  FMN2070     0.0820
     11  C7       180.9570  226.7600   35.9550 C.2   2070  FMN2070    -0.0408
     12  C7M      180.3790  227.1500   37.2710 C.3   2070  FMN2070     0.0265
     13  C8       181.8980  225.7630   35.9180 C.2   2070  FMN2070    -0.0280
     14  C8M      182.4830  225.2740   37.1970 C.3   2070  FMN2070     0.0304
     15  C9       182.5420  225.4840   34.7280 C.2   2070  FMN2070     0.0123
     16  C9A      182.2470  226.1960   33.5720 C.2   2070  FMN2070     0.0793
     17  N10      182.9080  225.9140   32.4010 N.pl3 2070  FMN2070    -0.2545
     18  C10      182.6140  226.6150   31.2790 C.2   2070  FMN2070     0.2449
     19  C1'      183.9870  224.8800   32.3570 C.3   2070  FMN2070     0.1336
     20  C2'      185.3900  225.4190   32.4880 C.3   2070  FMN2070     0.2048
     21  O2'      185.6790  226.0050   31.2700 O.3   2070  FMN2070    -0.2185
     22  C3'      186.4080  224.3220   32.6800 C.3   2070  FMN2070     0.2165
     23  O3'      186.5410  223.6070   31.4880 O.3   2070  FMN2070    -0.2175
     24  C4'      186.0280  223.3500   33.7710 C.3   2070  FMN2070     0.2147
     25  O4'      185.6650  224.0440   34.9160 O.3   2070  FMN2070    -0.2176
     26  C5'      187.1970  222.5070   34.1940 C.3   2070  FMN2070     0.1892
     27  O5'      186.7380  221.4780   35.0120 O.3   2070  FMN2070    -0.2674
     28  P        187.0560  221.4760   36.5440 P.3   2070  FMN2070     0.5327
     29  O1P      187.0650  220.0840   36.9450 O.3   2070  FMN2070    -0.1145
     30  O2P      185.9720  222.2980   37.1860 O.3   2070  FMN2070    -0.1145
     31  O3P      188.3900  222.0860   36.9070 O.2   2070  FMN2070    -0.2224
@<TRIPOS>BOND
     1     3     2    2
     2     2     4    2
     3     2     1    2
     4     4     5    2
     5     5     6    2
     6     5     7    1
     7     1    18    2
     8    21    20    1
     9    18     7    1
    10    18    17    1
    11     7     8    2
    12    23    22    1
    13    19    17    1
    14    19    20    1
    15    17    16    1
    16     8     9    2
    17    20    22    1
    18    22    24    1
    19    16     9    1
    20    16    15    2
    21     9    10    1
    22    24    26    1
    23    24    25    1
    24    26    27    1
    25    15    13    1
    26    10    11    1
    27    27    28    1
    28    13    11    2
    29    13    14    1
    30    11    12    1
    31    28    31    2
    32    28    29    1
    33    28    30    1
