@<TRIPOS>MOLECULE
1lm1_FMN_A_1.pdb
 31 33 0 0 0
SMALL
GASTEIGER

@<TRIPOS>ATOM
      1  N1       182.1280  224.6800   30.1420 N.2   2070  FMN2070    -0.2887
      2  C2       182.0120  225.3590   28.9860 C.1   2070  FMN2070     0.3669
      3  O2       182.5300  224.8910   27.9860 O.2   2070  FMN2070    -0.1744
      4  N3       181.3210  226.5510   28.9730 N.2   2070  FMN2070    -0.2300
      5  C4       180.7280  227.0240   30.1360 C.1   2070  FMN2070     0.2513
      6  O4       180.3270  228.1890   30.2020 O.2   2070  FMN2070    -0.2057
      7  C4A      180.8660  226.2880   31.2930 C.2   2070  FMN2070     0.2706
      8  N5       180.3160  226.7310   32.4560 N.2   2070  FMN2070    -0.3841
      9  C5A      180.4780  226.0060   33.6100 C.2   2070  FMN2070     0.1452
     10  C6       179.9370  226.4700   34.7930 C.2   2070  FMN2070     0.0252
     11  C7       180.0820  225.7340   35.9540 C.2   2070  FMN2070    -0.0375
     12  C7M      179.6130  226.2190   37.2850 C.3   2070  FMN2070     0.0268
     13  C8       180.7870  224.5730   35.9470 C.3   2070  FMN2070     0.0417
     14  C8M      181.3560  224.2250   37.2760 C.3   2070  FMN2070     0.0091
     15  C9       181.3530  224.1020   34.7630 C.2   2070  FMN2070    -0.0049
     16  C9A      181.1900  224.8220   33.5870 C.2   2070  FMN2070     0.0795
     17  N10      181.7520  224.4010   32.4030 N.pl3 2070  FMN2070    -0.2545
     18  C10      181.5670  225.1290   31.2770 C.2   2070  FMN2070     0.2449
     19  C1'      182.8030  223.3460   32.3970 C.3   2070  FMN2070     0.1336
     20  C2'      184.2430  223.8350   32.4430 C.3   2070  FMN2070     0.2048
     21  O2'      184.5510  224.6590   31.3550 O.3   2070  FMN2070    -0.2185
     22  C3'      185.1930  222.6530   32.5180 C.3   2070  FMN2070     0.2165
     23  O3'      185.1090  221.9160   31.3330 O.3   2070  FMN2070    -0.2175
     24  C4'      184.7910  221.6950   33.6460 C.3   2070  FMN2070     0.2147
     25  O4'      184.3160  222.3320   34.8120 O.3   2070  FMN2070    -0.2176
     26  C5'      185.8670  220.7140   34.0520 C.3   2070  FMN2070     0.1892
     27  O5'      185.2740  219.8900   34.9860 O.3   2070  FMN2070    -0.2674
     28  P        185.6550  219.9180   36.5110 P.3   2070  FMN2070     0.5327
     29  O1P      185.5350  218.5350   36.9620 O.3   2070  FMN2070    -0.1145
     30  O2P      184.7300  220.8440   37.2620 O.3   2070  FMN2070    -0.1145
     31  O3P      187.0740  220.3920   36.7460 O.2   2070  FMN2070    -0.2224
@<TRIPOS>BOND
     1     3     2    2
     2     4     2    2
     3     4     5    2
     4     2     1    2
     5     5     6    2
     6     5     7    1
     7     1    18    2
     8    18     7    1
     9    18    17    1
    10     7     8    2
    11    23    22    1
    12    21    20    1
    13    19    17    1
    14    19    20    1
    15    17    16    1
    16    20    22    1
    17     8     9    2
    18    22    24    1
    19    16     9    1
    20    16    15    2
    21     9    10    1
    22    24    26    1
    23    24    25    1
    24    26    27    1
    25    15    13    1
    26    10    11    2
    27    27    28    1
    28    13    11    1
    29    13    14    1
    30    11    12    1
    31    28    31    2
    32    28    29    1
    33    28    30    1
