@<TRIPOS>MOLECULE
1lm3_HEM_B_1.pdb
 43 50 0 0 0
SMALL
GASTEIGER

@<TRIPOS>ATOM
      1 FE          0.6080   22.3420    0.7510 Fe    200  HEM200      0.0000
      2  CHA        0.8610   21.3350   -2.4450 C.2   200  HEM200      0.0000
      3  CHB       -2.5730   21.2530    0.8740 C.2   200  HEM200      0.0000
      4  CHC        0.3880   23.4100    3.9500 C.2   200  HEM200      0.0000
      5  CHD        3.8300   23.4570    0.6380 C.2   200  HEM200      0.0000
      6  NA        -0.6020   21.4790   -0.5200 N.2   200  HEM200      0.0000
      7  C1A       -0.3470   21.1210   -1.8240 C.2   200  HEM200      0.0000
      8  C2A       -1.5080   20.5000   -2.4590 C.2   200  HEM200      0.0000
      9  C3A       -2.4690   20.4760   -1.5190 C.2   200  HEM200      0.0000
     10  C4A       -1.9010   21.0860   -0.3130 C.2   200  HEM200      0.0000
     11  CMA       -3.8770   19.9170   -1.7040 C.3   200  HEM200      0.0000
     12  CAA       -1.6020   19.9880   -3.9120 C.3   200  HEM200      0.0000
     13  CBA       -0.8270   18.6950   -4.1610 C.3   200  HEM200      0.0000
     14  CGA       -0.9150   18.2010   -5.6190 C.2   200  HEM200      0.0000
     15  O1A       -1.5770   18.8480   -6.4650 O.co2 200  HEM200      0.0000
     16  O2A       -0.3080   17.1480   -5.9200 O.co2 200  HEM200      0.0000
     17  NB        -0.7770   22.3290    2.1210 N.ar  200  HEM200      0.0000
     18  C1B       -2.0700   21.8320    2.0310 C.ar  200  HEM200      0.0000
     19  C2B       -2.8290   21.9950    3.2620 C.ar  200  HEM200      0.0000
     20  C3B       -1.9610   22.6270    4.1290 C.ar  200  HEM200      0.0000
     21  C4B       -0.7160   22.8160    3.4150 C.ar  200  HEM200      0.0000
     22  CMB       -4.2930   21.5600    3.5250 C.3   200  HEM200      0.0000
     23  CAB       -2.2780   23.0480    5.5810 C.3   200  HEM200      0.0000
     24  CBB       -2.2170   21.9200    6.6070 C.3   200  HEM200      0.0000
     25  NC         1.8380   23.2370    2.0150 N.2   200  HEM200      0.0000
     26  C1C        1.5810   23.6110    3.3140 C.2   200  HEM200      0.0000
     27  C2C        2.7110   24.2520    3.9480 C.2   200  HEM200      0.0000
     28  C3C        3.6920   24.2740    3.0090 C.2   200  HEM200      0.0000
     29  C4C        3.1370   23.6340    1.8180 C.2   200  HEM200      0.0000
     30  CMC        2.7060   24.7740    5.3930 C.3   200  HEM200      0.0000
     31  CAC        5.0700   24.9590    3.0780 C.3   200  HEM200      0.0000
     32  CBC        5.7570   25.2220    4.4150 C.3   200  HEM200      0.0000
     33  ND         2.0510   22.3870   -0.5980 N.ar  200  HEM200      0.0000
     34  C1D        3.3290   22.8770   -0.4930 C.ar  200  HEM200      0.0000
     35  C2D        4.0950   22.7170   -1.7260 C.ar  200  HEM200      0.0000
     36  C3D        3.2400   22.1110   -2.5980 C.ar  200  HEM200      0.0000
     37  C4D        1.9920   21.9200   -1.8850 C.ar  200  HEM200      0.0000
     38  CMD        5.5470   23.1470   -1.9700 C.3   200  HEM200      0.0000
     39  CAD        3.5130   21.6940   -4.0660 C.3   200  HEM200      0.0000
     40  CBD        4.0200   20.2630   -4.2740 C.3   200  HEM200      0.0000
     41  CGD        4.3690   19.9160   -5.7130 C.2   200  HEM200      0.0000
     42  O1D        4.1630   18.7580   -6.1120 O.co2 200  HEM200      0.0000
     43  O2D        4.8620   20.7930   -6.4610 O.co2 200  HEM200      0.0000
@<TRIPOS>BOND
     1    15    14   ar
     2    43    41   ar
     3    42    41   ar
     4    16    14   ar
     5    41    40    1
     6    14    13    1
     7    40    39    1
     8    13    12    1
     9    39    36    1
    10    12     8    1
    11    36    37   ar
    12    36    35   ar
    13     8     7    1
    14     8     9    2
    15     2    37    2
    16     2     7    1
    17    38    35    1
    18    37    33   ar
    19     7     6    2
    20    35    34   ar
    21    11     9    1
    22     9    10    1
    23    33    34   ar
    24    33     1    1
    25     6    10    1
    26     6     1    1
    27    34     5    2
    28    10     3    2
    29     5    29    1
    30     1    25    1
    31     1    17    1
    32     3    18    1
    33    29    25    2
    34    29    28    1
    35    25    26    1
    36    18    17   ar
    37    18    19   ar
    38    17    21   ar
    39    28    31    1
    40    28    27    2
    41    31    32    1
    42    19    22    1
    43    19    20   ar
    44    26    27    1
    45    26     4    2
    46    21     4    1
    47    21    20   ar
    48    27    30    1
    49    20    23    1
    50    23    24    1
