@<TRIPOS>MOLECULE
1lmc_BUL_A_1.pdb
 35 36 0 0 0
SMALL
GASTEIGER

@<TRIPOS>ATOM
      1  O1        43.5140   43.1680   28.3400 O.3   130  BUL130     -0.3263
      2  C2        42.7800   42.8400   27.1580 C.3   130  BUL130      0.2585
      3  C3        41.3290   42.6180   27.5380 C.3   130  BUL130      0.1842
      4  C4        40.7330   43.9030   28.1040 C.3   130  BUL130      0.2085
      5  C5        41.6420   44.5190   29.2170 C.3   130  BUL130      0.2048
      6  C6        43.0640   44.2460   29.0640 C.3   130  BUL130      0.1826
      7  N7        45.7070   40.3020   24.4980 N.3   130  BUL130     -0.2115
      8  C8        46.5280   41.3970   25.2150 C.3   130  BUL130      0.1226
      9  C9        45.8240   41.6470   26.5540 C.3   130  BUL130      0.0527
     10  C10       44.3680   41.5850   25.9790 C.3   130  BUL130      0.1378
     11  C11       44.2490   40.3400   25.0370 C.3   130  BUL130      0.1329
     12  C12       44.0770   44.9050   29.9480 C.3   130  BUL130      0.2142
     13  O13       45.2380   45.2810   29.1410 O.3   130  BUL130     -0.2176
     14  O14       41.1690   45.8650   29.1040 O.3   130  BUL130     -0.2384
     15  O15       39.7680   43.1670   28.8690 O.3   130  BUL130     -0.2183
     16  N16       40.6120   42.0230   26.4320 N.am  130  BUL130     -0.1992
     17  C17       40.1820   40.7490   26.3720 C.2   130  BUL130      0.2420
     18  O18       40.3740   39.9130   27.2410 O.2   130  BUL130     -0.2733
     19  C19       39.6650   40.3500   25.0130 C.3   130  BUL130      0.0964
     20  O20       43.2780   41.5470   26.8420 O.3   130  BUL130     -0.3301
     21  C21       43.3250   40.5150   23.8080 C.3   130  BUL130      0.2018
     22  O22       43.6900   41.6080   22.9880 O.3   130  BUL130     -0.2188
     23  C23       47.9300   40.8510   25.5400 C.3   130  BUL130      0.2417
     24  O24       48.3280   40.3050   24.5050 O.3   130  BUL130     -0.2021
     25  N25       48.5910   41.7540   26.3230 N.3   130  BUL130     -0.1863
     26  C26       50.0670   42.0030   26.1340 C.3   130  BUL130      0.1128
     27  C27       50.6840   42.3710   27.4660 C.3   130  BUL130      0.1241
     28  S28       52.3300   41.6100   27.7560 S.3   130  BUL130     -0.1946
     29  O29       53.1670   42.5470   27.0330 O.3   130  BUL130     -0.3074
     30  O30       52.2730   41.2500   29.1490 O.3   130  BUL130     -0.3074
     31  O31       52.2300   40.3600   27.0730 O.3   130  BUL130     -0.3074
     32  S32       40.4840   46.4590   30.3150 S.3   130  BUL130     -0.0001
     33  O33       41.0510   47.7580   30.5430 O.2   130  BUL130     -0.3452
     34  O34       39.1270   45.9690   30.3390 O.2   130  BUL130     -0.3452
     35  O35       40.7300   45.5950   31.4270 O.3   130  BUL130     -0.2682
@<TRIPOS>BOND
     1    22    21    1
     2    21    11    1
     3     7    11    1
     4     7     8    1
     5    24    23    1
     6    19    17    1
     7    11    10    1
     8     8    23    1
     9     8     9    1
    10    23    25    1
    11    10     9    1
    12    10    20    1
    13    26    25    1
    14    26    27    1
    15    17    16   am
    16    17    18    2
    17    16     3    1
    18    20     2    1
    19    29    28    1
    20    31    28    1
    21     2     3    1
    22     2     1    1
    23    27    28    1
    24     3     4    1
    25    28    30    1
    26     4    15    1
    27     4     5    1
    28     1     6    1
    29     6     5    1
    30     6    12    1
    31    14     5    1
    32    14    32    1
    33    13    12    1
    34    32    34    2
    35    32    33    2
    36    32    35    1
