@<TRIPOS>MOLECULE
1lmo_NAG_A_1.pdb
 14 14 0 0 0
SMALL
GASTEIGER

@<TRIPOS>ATOM
      1  C1        40.6770   45.8900   30.7640 C.3   130  NAG130      0.1665
      2  C2        40.7690   47.4390   30.9690 C.3   130  NAG130      0.1576
      3  C3        39.8330   47.8970   32.0960 C.3   130  NAG130      0.2069
      4  C4        38.3730   47.2820   32.0190 C.3   130  NAG130      0.2134
      5  C5        38.4950   45.7490   31.7920 C.3   130  NAG130      0.1809
      6  C6        37.1830   45.1340   31.5420 C.3   130  NAG130      0.2141
      7  C7        42.1100   48.7950   29.6690 C.2   130  NAG130      0.2420
      8  C8        43.4840   48.9450   30.3350 C.3   130  NAG130      0.0964
      9  N2        41.5110   48.0870   30.6420 N.am  130  NAG130     -0.2019
     10  O3        39.5780   49.3360   32.1270 O.3   130  NAG130     -0.2184
     11  O4        37.6890   47.5650   33.2520 O.3   130  NAG130     -0.2176
     12  O5        39.2890   45.4920   30.6120 O.3   130  NAG130     -0.3489
     13  O6        36.3670   45.8430   30.6360 O.3   130  NAG130     -0.2176
     14  O7        41.9210   49.2460   28.5090 O.2   130  NAG130     -0.2733
@<TRIPOS>BOND
     1    14     7    2
     2     7     8    1
     3     7     9   am
     4    12     1    1
     5    12     5    1
     6    13     6    1
     7     9     2    1
     8     1     2    1
     9     2     3    1
    10     6     5    1
    11     5     4    1
    12     4     3    1
    13     4    11    1
    14     3    10    1
