@<TRIPOS>MOLECULE
1lmp_NAG_A_1.pdb
 14 14 0 0 0
SMALL
GASTEIGER

@<TRIPOS>ATOM
      1  C1        40.5730   45.9410   30.7250 C.3   130  NAG130      0.1665
      2  C2        40.5990   47.4610   31.1050 C.3   130  NAG130      0.1576
      3  C3        39.6970   47.7800   32.3090 C.3   130  NAG130      0.2069
      4  C4        38.2490   47.1040   32.2280 C.3   130  NAG130      0.2134
      5  C5        38.4360   45.6260   31.8800 C.3   130  NAG130      0.1809
      6  C6        37.1860   44.9580   31.5390 C.3   130  NAG130      0.2141
      7  C7        42.0340   48.7010   30.1780 C.2   130  NAG130      0.2420
      8  C8        43.3460   49.2620   30.7590 C.3   130  NAG130      0.0964
      9  N2        41.6950   47.8580   31.1710 N.am  130  NAG130     -0.2019
     10  O3        39.2660   49.1810   32.3110 O.3   130  NAG130     -0.2184
     11  O4        37.4690   47.4160   33.3910 O.3   130  NAG130     -0.2176
     12  O5        39.2460   45.4230   30.7100 O.3   130  NAG130     -0.3489
     13  O6        36.3830   45.6530   30.6510 O.3   130  NAG130     -0.2176
     14  O7        41.5940   49.1220   29.0810 O.2   130  NAG130     -0.2733
@<TRIPOS>BOND
     1    14     7    2
     2     7     8    1
     3     7     9   am
     4    13     6    1
     5    12     1    1
     6    12     5    1
     7     1     2    1
     8     2     9    1
     9     2     3    1
    10     6     5    1
    11     5     4    1
    12     4     3    1
    13     4    11    1
    14     3    10    1
