@<TRIPOS>MOLECULE
1lmp_NDG_A_1.pdb
 15 15 0 0 0
SMALL
GASTEIGER

@<TRIPOS>ATOM
      1  C1        46.8810   40.4780   24.9810 C.3   132  NDG132      0.2917
      2  C2        46.8050   41.9950   25.2380 C.3   132  NDG132      0.1871
      3  C3        45.6960   42.3100   26.2450 C.3   132  NDG132      0.2095
      4  C4        44.3220   41.7360   25.8710 C.3   132  NDG132      0.2136
      5  C5        44.2990   40.3370   25.2160 C.3   132  NDG132      0.1835
      6  C6        43.3450   40.4600   24.0560 C.3   132  NDG132      0.2142
      7  C7        48.7580   43.1170   26.0790 C.2   132  NDG132      0.2421
      8  C8        48.5430   44.2540   25.0320 C.3   132  NDG132      0.0964
      9  O         45.5580   39.9880   24.5620 O.3   132  NDG132     -0.3242
     10  O3        45.6240   43.7010   26.6660 O.3   132  NDG132     -0.2183
     11  O4        43.5240   41.6220   27.0860 O.3   132  NDG132     -0.2176
     12  O6        43.5990   41.6020   23.1840 O.3   132  NDG132     -0.2176
     13  O7        49.9190   43.1910   26.6730 O.2   132  NDG132     -0.2733
     14  N2        47.8550   42.1060   26.3700 N.am  132  NDG132     -0.1991
     15  O1L       47.2360   40.0180   26.0070 O.3   132  NDG132     -0.1879
@<TRIPOS>BOND
     1    12     6    1
     2     6     5    1
     3     9     1    1
     4     9     5    1
     5     1     2    1
     6     1    15    1
     7     8     7    1
     8     5     4    1
     9     2     3    1
    10     2    14    1
    11     4     3    1
    12     4    11    1
    13     7    14   am
    14     7    13    2
    15     3    10    1
