@<TRIPOS>MOLECULE
1lmq_NDG_A_1.pdb
 15 15 0 0 0
SMALL
GASTEIGER

@<TRIPOS>ATOM
      1  C1        46.9330   40.8840   24.8320 C.3   133  NDG133      0.2917
      2  C2        46.8830   42.2830   25.4060 C.3   133  NDG133      0.1871
      3  C3        45.7130   42.5130   26.4250 C.3   133  NDG133      0.2095
      4  C4        44.3990   42.0500   25.7760 C.3   133  NDG133      0.2136
      5  C5        44.4460   40.6800   25.0580 C.3   133  NDG133      0.1835
      6  C6        43.3840   40.6250   24.0010 C.3   133  NDG133      0.2142
      7  C7        48.9510   43.4460   25.8580 C.2   133  NDG133      0.2421
      8  C8        49.1110   44.4440   24.7320 C.3   133  NDG133      0.0964
      9  O         45.7070   40.4580   24.3740 O.3   133  NDG133     -0.3242
     10  O3        45.7170   43.9160   26.7350 O.3   133  NDG133     -0.2183
     11  O4        43.5750   41.8240   26.9490 O.3   133  NDG133     -0.2176
     12  O6        43.6150   41.6040   22.9700 O.3   133  NDG133     -0.2176
     13  O7        49.7570   43.0740   26.7870 O.2   133  NDG133     -0.2733
     14  N2        47.8560   42.7630   26.0990 N.am  133  NDG133     -0.1991
     15  O1L       47.4870   40.0090   25.8130 O.3   133  NDG133     -0.1879
@<TRIPOS>BOND
     1    12     6    1
     2     6     5    1
     3     9     1    1
     4     9     5    1
     5     8     7    1
     6     1     2    1
     7     1    15    1
     8     5     4    1
     9     2    14    1
    10     2     3    1
    11     4     3    1
    12     4    11    1
    13     7    14   am
    14     7    13    2
    15     3    10    1
