@<TRIPOS>MOLECULE
1lmq_NAG_A_1.pdb
 14 14 0 0 0
SMALL
GASTEIGER

@<TRIPOS>ATOM
      1  C1        36.4100   47.8360   33.1840 C.3   130  NAG130      0.1665
      2  C2        35.5820   47.5860   34.4500 C.3   130  NAG130      0.1576
      3  C3        34.2150   48.3370   34.2340 C.3   130  NAG130      0.2069
      4  C4        34.4330   49.8180   33.9820 C.3   130  NAG130      0.2134
      5  C5        35.3960   49.9220   32.7870 C.3   130  NAG130      0.1809
      6  C6        35.7510   51.3650   32.5810 C.3   130  NAG130      0.2141
      7  C7        35.2710   45.0810   34.8550 C.2   130  NAG130      0.2420
      8  C8        34.3380   43.9330   34.4840 C.3   130  NAG130      0.0964
      9  N2        34.8470   46.1020   34.0880 N.am  130  NAG130     -0.2019
     10  O3        33.5150   48.2440   35.4970 O.3   130  NAG130     -0.2184
     11  O4        33.1090   50.2860   33.5790 O.3   130  NAG130     -0.2176
     12  O5        36.6410   49.2510   33.1930 O.3   130  NAG130     -0.3489
     13  O6        36.1940   51.9360   33.8470 O.3   130  NAG130     -0.2176
     14  O7        36.3100   45.1460   35.6070 O.2   130  NAG130     -0.2733
@<TRIPOS>BOND
     1     6     5    1
     2     6    13    1
     3     5    12    1
     4     5     4    1
     5     1    12    1
     6     1     2    1
     7    11     4    1
     8     4     3    1
     9     9     2    1
    10     9     7   am
    11     3     2    1
    12     3    10    1
    13     8     7    1
    14     7    14    2
