@<TRIPOS>MOLECULE
1lmw_0GJ_B_1.pdb
 25 24 0 0 0
SMALL
GASTEIGER

@<TRIPOS>ATOM
      1  N        117.3550  146.2150    3.1110 N.3     1  0GJ1       -0.1231
      2  CA       116.3440  145.6480    2.1680 C.3     1  0GJ1        0.1699
      3  C        115.9040  146.6970    1.1720 C.2     1  0GJ1        0.2593
      4  O        115.2010  147.6440    1.5400 O.2     1  0GJ1       -0.2718
      5  CB       115.1050  145.1880    2.9250 C.3     1  0GJ1        0.0402
      6  CG       115.3380  144.9010    4.3820 C.3     1  0GJ1        0.1161
      7  CD       114.0460  144.7320    5.1250 C.2     1  0GJ1        0.3649
      8  OE1      112.9790  144.6640    4.4530 O.co2   1  0GJ1       -0.2457
      9  OE2      114.0960  144.6770    6.3800 O.co2   1  0GJ1       -0.2457
     10  N1       116.2710  146.4940   -0.0890 N.am    1  0GJ1       -0.1942
     11  CA1      115.8880  147.4310   -1.1320 C.3     1  0GJ1        0.2014
     12  C1       114.3890  147.6860   -1.2780 C.2     1  0GJ1        0.2635
     13  O1       113.5420  146.8220   -0.9950 O.2     1  0GJ1       -0.2714
     14  N2       114.0600  148.8800   -1.7590 N.am    1  0GJ1       -0.2031
     15  CA2      112.6730  149.2690   -1.9480 C.3     1  0GJ1        0.1257
     16  C2       112.3930  149.4110   -3.4250 C.3     1  0GJ1        0.1718
     17  O2       111.0400  149.1270   -3.8360 O.3     1  0GJ1       -0.2213
     18  CB1      112.3600  150.4850   -1.0800 C.3     1  0GJ1        0.0280
     19  CG1      112.3690  150.1590    0.4000 C.3     1  0GJ1        0.0488
     20  CD1      112.1740  151.3910    1.2140 C.3     1  0GJ1        0.2205
     21  NE       112.0540  151.0740    2.6290 N.pl3   1  0GJ1       -0.0865
     22  CZ       112.0060  152.0020    3.5700 C.cat   1  0GJ1        0.5346
     23  NH1      112.0940  153.2760    3.1980 N.pl3   1  0GJ1        0.1354
     24  NH2      111.8460  151.6720    4.8630 N.pl3   1  0GJ1        0.1354
     25  C3       113.2260  148.4620   -4.4040 C.3     1  0GJ1        0.0373
@<TRIPOS>BOND
     1    25    16    1
     2    17    16    1
     3    16    15    1
     4    15    14    1
     5    15    18    1
     6    14    12   am
     7    12    11    1
     8    12    13    2
     9    11    10    1
    10    18    19    1
    11    10     3   am
    12    19    20    1
    13     3     4    2
    14     3     2    1
    15    20    21    1
    16     2     5    1
    17     2     1    1
    18    21    22    2
    19     5     6    1
    20    23    22    1
    21    22    24    1
    22     6     7    1
    23     8     7   ar
    24     7     9   ar
