@<TRIPOS>MOLECULE
1ln6_RET_A_1.pdb
 38 38 0 0 0
SMALL
GASTEIGER

@<TRIPOS>ATOM
      1  C1        -2.5540   12.4790   -1.1290 C.3   400  RET400     -0.0152
      2  C2        -3.2310   13.3620   -2.2040 C.3   400  RET400     -0.0463
      3  C3        -4.5460   13.9490   -1.7580 C.3   400  RET400     -0.0520
      4  C4        -5.4600   12.8240   -1.3350 C.3   400  RET400     -0.0460
      5  C5        -4.7460   11.6380   -0.7300 C.3   400  RET400     -0.0121
      6  C6        -3.4340   11.3330   -0.5470 C.3   400  RET400     -0.0026
      7  C7        -2.5070   10.4250   -0.1660 C.3   400  RET400     -0.0083
      8  C8        -1.4270    9.7070    0.1980 C.2   400  RET400     -0.0763
      9  C9        -0.5170    8.7720    0.5320 C.2   400  RET400     -0.0467
     10  C10        0.6650    8.2770    0.9480 C.2   400  RET400     -0.0585
     11  C11        1.7310    7.5420    1.3060 C.2   400  RET400     -0.0612
     12  C12        2.9210    7.1110    1.7580 C.2   400  RET400     -0.0583
     13  C13        4.0300    6.4380    2.1190 C.2   400  RET400     -0.0431
     14  C14        5.2360    6.1970    2.6650 C.2   400  RET400     -0.0583
     15  C15        6.3860    5.6250    3.0610 C.2   400  RET400     -0.0615
     16  C16       -2.1550   13.3820    0.0560 C.3   400  RET400     -0.0273
     17  C17       -1.2500   12.0390   -1.8650 C.3   400  RET400     -0.0273
     18  C18       -5.7580   10.7270   -0.0770 C.3   400  RET400     -0.0270
     19  C19       -1.2690    7.4750    0.2530 C.3   400  RET400     -0.0014
     20  C20        3.7820    5.0360    1.5710 C.3   400  RET400     -0.0011
     21  H21       -3.3950   12.7830   -3.1110 H     400  RET400      0.0271
     22  H22       -2.5720   14.1830   -2.4860 H     400  RET400      0.0271
     23  H31       -5.0020   14.5130   -2.5690 H     400  RET400      0.0266
     24  H32       -4.3830   14.6450   -0.9420 H     400  RET400      0.0266
     25  H41       -5.9990   12.4760   -2.2170 H     400  RET400      0.0271
     26  H42       -6.2150   13.2070   -0.6530 H     400  RET400      0.0271
     27  H7        -3.1930    9.6040   -0.0830 H     400  RET400      0.0355
     28  H8        -0.7580   10.5330    0.3200 H     400  RET400      0.0578
     29  H10        1.1140    9.2280    1.1660 H     400  RET400      0.0620
     30  H11        1.3350    6.5890    1.0130 H     400  RET400      0.0618
     31  H12        3.2520    8.0670    2.1150 H     400  RET400      0.0620
     32  H14        5.3690    7.1770    3.0860 H     400  RET400      0.0620
     33  H15        6.5440    4.6190    2.7320 H     400  RET400      0.0618
     34 H163       -1.5230   12.8510    0.7680 H     400  RET400      0.0312
     35 H173       -0.4230   11.8000   -1.2050 H     400  RET400      0.0312
     36 H183       -6.4390   11.2920    0.5610 H     400  RET400      0.0312
     37 H193       -2.1390    7.5910   -0.4010 H     400  RET400      0.0361
     38 H203        2.8170    4.8970    1.0810 H     400  RET400      0.0361
@<TRIPOS>BOND
     1    21     2    1
     2    23     3    1
     3    22     2    1
     4    25     4    1
     5     2     3    1
     6     2     1    1
     7    17    35    1
     8    17     1    1
     9     3     4    1
    10     3    24    1
    11     4     5    1
    12     4    26    1
    13     1     6    1
    14     1    16    1
    15     5     6    1
    16     5    18    1
    17     6     7    1
    18    37    19    1
    19     7    27    1
    20     7     8    1
    21    18    36    1
    22    16    34    1
    23     8    28    1
    24     8     9    2
    25    19     9    1
    26     9    10    1
    27    10    29    1
    28    10    11    2
    29    30    11    1
    30    38    20    1
    31    11    12    1
    32    20    13    1
    33    12    31    1
    34    12    13    2
    35    13    14    1
    36    14    15    2
    37    14    32    1
    38    33    15    1
