@<TRIPOS>MOLECULE
1lna_LYS_E_1.pdb
 10 9 0 0 0
SMALL
GASTEIGER

@<TRIPOS>ATOM
      1  N         37.4460   40.2800   -3.9450 N.3   1322  LYS1322    -0.1208
      2  CA        38.5750   39.3660   -4.1450 C.3   1322  LYS1322     0.1943
      3  C         38.3100   38.1650   -5.0940 C.2   1322  LYS1322     0.3819
      4  O         37.1930   38.0770   -5.6910 O.co2 1322  LYS1322    -0.2441
      5  CB        39.1870   38.9660   -2.8290 C.3   1322  LYS1322     0.0307
      6  CG        38.3260   38.0680   -1.9720 C.3   1322  LYS1322     0.0036
      7  CD        39.1560   36.9170   -1.4200 C.3   1322  LYS1322     0.0206
      8  CE        38.5920   35.5550   -1.7840 C.3   1322  LYS1322     0.1093
      9  NZ        37.2080   35.3690   -1.3120 N.3   1322  LYS1322    -0.1314
     10  OXT       39.2780   37.3700   -5.3320 O.co2 1322  LYS1322    -0.2441
@<TRIPOS>BOND
     1     4     3   ar
     2    10     3   ar
     3     3     2    1
     4     2     1    1
     5     2     5    1
     6     5     6    1
     7     6     7    1
     8     8     7    1
     9     8     9    1
