@<TRIPOS>MOLECULE
1lnb_LYS_E_1.pdb
 10 9 0 0 0
SMALL
GASTEIGER

@<TRIPOS>ATOM
      1  N         37.6100   39.8840   -3.6090 N.3   1322  LYS1322    -0.1208
      2  CA        38.6630   38.8640   -3.6160 C.3   1322  LYS1322     0.1943
      3  C         38.5730   37.8970   -4.8470 C.2   1322  LYS1322     0.3819
      4  O         37.4680   37.8170   -5.5070 O.co2 1322  LYS1322    -0.2441
      5  CB        38.8030   38.1770   -2.2310 C.3   1322  LYS1322     0.0307
      6  CG        38.4010   36.7020   -2.1600 C.3   1322  LYS1322     0.0036
      7  CD        38.7460   36.0290   -0.8330 C.3   1322  LYS1322     0.0206
      8  CE        40.2440   35.7390   -0.6560 C.3   1322  LYS1322     0.1093
      9  NZ        40.6010   34.9670    0.5600 N.3   1322  LYS1322    -0.1314
     10  OXT       39.6430   37.3360   -5.2570 O.co2 1322  LYS1322    -0.2441
@<TRIPOS>BOND
     1     4     3   ar
     2    10     3   ar
     3     3     2    1
     4     2     1    1
     5     2     5    1
     6     5     6    1
     7     6     7    1
     8     7     8    1
     9     8     9    1
