@<TRIPOS>MOLECULE
1lnc_LYS_E_1.pdb
 10 9 0 0 0
SMALL
GASTEIGER

@<TRIPOS>ATOM
      1  N         37.6480   40.2300   -3.7690 N.3   1322  LYS1322    -0.1208
      2  CA        38.7800   39.3020   -3.9920 C.3   1322  LYS1322     0.1943
      3  C         38.5890   38.2220   -5.0860 C.2   1322  LYS1322     0.3819
      4  O         37.4390   38.0870   -5.6050 O.co2 1322  LYS1322    -0.2441
      5  CB        39.2870   38.6950   -2.7040 C.3   1322  LYS1322     0.0307
      6  CG        38.2290   37.9920   -1.8830 C.3   1322  LYS1322     0.0036
      7  CD        38.8550   36.9110   -1.0160 C.3   1322  LYS1322     0.0206
      8  CE        38.5790   35.5180   -1.5290 C.3   1322  LYS1322     0.1093
      9  NZ        37.1470   35.1970   -1.4690 N.3   1322  LYS1322    -0.1314
     10  OXT       39.6080   37.5340   -5.4320 O.co2 1322  LYS1322    -0.2441
@<TRIPOS>BOND
     1     4     3   ar
     2    10     3   ar
     3     3     2    1
     4     2     1    1
     5     2     5    1
     6     5     6    1
     7     6     7    1
     8     8     9    1
     9     8     7    1
