@<TRIPOS>MOLECULE
1lnd_LYS_E_1.pdb
 10 9 0 0 0
SMALL
GASTEIGER

@<TRIPOS>ATOM
      1  N         37.4490   40.3230   -4.1290 N.3   1322  LYS1322    -0.1208
      2  CA        38.6010   39.4500   -4.3000 C.3   1322  LYS1322     0.1943
      3  C         38.4250   38.2030   -5.1730 C.2   1322  LYS1322     0.3819
      4  O         37.3330   38.0130   -5.7770 O.co2 1322  LYS1322    -0.2441
      5  CB        39.2100   39.1080   -2.9660 C.3   1322  LYS1322     0.0307
      6  CG        38.4480   38.0570   -2.1870 C.3   1322  LYS1322     0.0036
      7  CD        39.2660   36.7840   -2.0160 C.3   1322  LYS1322     0.0206
      8  CE        38.6810   35.8190   -0.9990 C.3   1322  LYS1322     0.1093
      9  NZ        37.3930   35.2440   -1.4310 N.3   1322  LYS1322    -0.1314
     10  OXT       39.4290   37.4580   -5.3050 O.co2 1322  LYS1322    -0.2441
@<TRIPOS>BOND
     1     4     3   ar
     2    10     3   ar
     3     3     2    1
     4     2     1    1
     5     2     5    1
     6     5     6    1
     7     6     7    1
     8     7     8    1
     9     9     8    1
