@<TRIPOS>MOLECULE
1lne_LYS_E_1.pdb
 10 9 0 0 0
SMALL
GASTEIGER

@<TRIPOS>ATOM
      1  N         37.7400   40.2740   -3.9690 N.3   1322  LYS1322    -0.1208
      2  CA        38.8520   39.3450   -4.1150 C.3   1322  LYS1322     0.1943
      3  C         38.5660   38.1740   -5.1160 C.2   1322  LYS1322     0.3819
      4  O         37.4070   38.0370   -5.6110 O.co2 1322  LYS1322    -0.2441
      5  CB        39.3050   38.8110   -2.7720 C.3   1322  LYS1322     0.0307
      6  CG        38.1630   38.3620   -1.8710 C.3   1322  LYS1322     0.0036
      7  CD        38.5530   37.1530   -1.0240 C.3   1322  LYS1322     0.0206
      8  CE        38.6360   35.8500   -1.8120 C.3   1322  LYS1322     0.1093
      9  NZ        37.5160   34.9260   -1.5400 N.3   1322  LYS1322    -0.1314
     10  OXT       39.5040   37.3750   -5.4540 O.co2 1322  LYS1322    -0.2441
@<TRIPOS>BOND
     1     4     3   ar
     2    10     3   ar
     3     3     2    1
     4     2     1    1
     5     2     5    1
     6     5     6    1
     7     6     7    1
     8     8     9    1
     9     8     7    1
