@<TRIPOS>MOLECULE
1lnf_LYS_E_1.pdb
 10 9 0 0 0
SMALL
GASTEIGER

@<TRIPOS>ATOM
      1  N         37.5720   40.1770   -3.8990 N.3   1322  LYS1322    -0.1208
      2  CA        38.7350   39.2780   -4.1390 C.3   1322  LYS1322     0.1943
      3  C         38.4780   38.1500   -5.1470 C.2   1322  LYS1322     0.3819
      4  O         37.3080   38.0610   -5.6220 O.co2 1322  LYS1322    -0.2441
      5  CB        39.2990   38.7220   -2.8610 C.3   1322  LYS1322     0.0307
      6  CG        38.3230   37.8590   -2.0970 C.3   1322  LYS1322     0.0036
      7  CD        39.0240   36.7570   -1.3290 C.3   1322  LYS1322     0.0206
      8  CE        38.7650   35.3810   -1.9090 C.3   1322  LYS1322     0.1093
      9  NZ        37.4610   34.8330   -1.5080 N.3   1322  LYS1322    -0.1314
     10  OXT       39.4710   37.4520   -5.5160 O.co2 1322  LYS1322    -0.2441
@<TRIPOS>BOND
     1     4     3   ar
     2    10     3   ar
     3     3     2    1
     4     2     1    1
     5     2     5    1
     6     5     6    1
     7     6     7    1
     8     8     9    1
     9     8     7    1
