@<TRIPOS>MOLECULE
1lnm_DTX_A_1.pdb
 27 31 0 0 0
SMALL
GASTEIGER

@<TRIPOS>ATOM
      1  O23       14.7810  -21.2920   37.1060 O.2   700  DTX700     -0.2449
      2  C23       14.0400  -22.2080   37.0350 C.2   700  DTX700      0.3412
      3  C22       12.9040  -22.5250   36.1640 C.2   700  DTX700      0.0769
      4  O21       14.2300  -23.2610   37.9230 O.3   700  DTX700     -0.4408
      5  C21       13.2240  -24.2650   37.6620 C.3   700  DTX700      0.2314
      6  C20       12.4200  -23.7400   36.5320 C.2   700  DTX700      0.0053
      7  C17       11.2030  -24.5070   36.1160 C.3   700  DTX700      0.0244
      8  C16       11.5560  -26.0430   36.1120 C.3   700  DTX700      0.0067
      9  C13        9.9670  -24.3170   36.9940 C.3   700  DTX700      0.0294
     10  C12        8.7370  -24.1550   36.0510 C.3   700  DTX700      0.0027
     11  C11        7.3760  -24.3510   36.7060 C.3   700  DTX700      0.0002
     12  C18       10.0700  -23.1180   37.9310 C.3   700  DTX700      0.0028
     13  C14        9.7900  -25.7260   37.6820 C.3   700  DTX700      0.1267
     14  C15       10.2620  -26.6830   36.6120 C.3   700  DTX700      0.0307
     15  O14       10.8260  -25.8640   38.7020 O.3   700  DTX700     -0.2257
     16  C8         8.4190  -25.9590   38.3610 C.3   700  DTX700      0.0281
     17  C7         8.3930  -27.3110   39.0790 C.3   700  DTX700      0.0024
     18  C9         7.2220  -25.7460   37.3730 C.3   700  DTX700      0.0024
     19  C10        5.8660  -25.9760   38.1060 C.3   700  DTX700      0.0002
     20  C1         4.7060  -25.8560   37.0780 C.3   700  DTX700      0.0026
     21  C19        5.5120  -24.8810   39.1660 C.3   700  DTX700      0.0000
     22  C5         5.8640  -27.3860   38.6570 C.3   700  DTX700      0.0025
     23  C6         7.0040  -27.6710   39.6460 C.3   700  DTX700      0.0002
     24  C4         5.9350  -28.4260   37.5280 C.3   700  DTX700      0.0329
     25  C3         4.8350  -28.2580   36.4950 C.3   700  DTX700      0.1520
     26  C2         4.8600  -26.8500   35.9340 C.3   700  DTX700      0.0329
     27  O32        3.5550  -28.4830   37.1580 O.3   700  DTX700     -0.2232
@<TRIPOS>BOND
     1    26    25    1
     2    26    20    1
     3    10    11    1
     4    10     9    1
     5     8     7    1
     6     8    14    1
     7     7     6    1
     8     7     9    1
     9     3     6    2
    10     3     2    1
    11    25    27    1
    12    25    24    1
    13     6     5    1
    14    14    13    1
    15    11    18    1
    16     9    13    1
    17     9    12    1
    18     2     1    2
    19     2     4    1
    20    20    19    1
    21    18    19    1
    22    18    16    1
    23    24    22    1
    24     5     4    1
    25    13    16    1
    26    13    15    1
    27    19    22    1
    28    19    21    1
    29    16    17    1
    30    22    23    1
    31    17    23    1
