@<TRIPOS>MOLECULE
1lnx_URI_A_1.pdb
 17 18 0 0 0
SMALL
GASTEIGER

@<TRIPOS>ATOM
      1  N1        54.5600   17.1220   98.2470 N.am  8003  URI8003    -0.1766
      2  C2        54.8300   18.5450   98.4520 C.1   8003  URI8003     0.2845
      3  N3        54.7270   18.9550   99.7920 N.2   8003  URI8003    -0.2452
      4  C4        54.4010   18.1600  100.9140 C.1   8003  URI8003     0.2182
      5  C5        54.1420   16.7620  100.6430 C.2   8003  URI8003     0.1242
      6  C6        54.2260   16.3090   99.3740 C.2   8003  URI8003     0.0929
      7  O2        55.1300   19.3540   97.5650 O.2   8003  URI8003    -0.1918
      8  O4        54.3580   18.6860  102.0280 O.2   8003  URI8003    -0.2085
      9  C1'       54.6580   16.5390   96.8310 C.3   8003  URI8003     0.2401
     10  C2'       55.4260   15.2310   96.6840 C.3   8003  URI8003     0.2319
     11  C3'       54.4780   14.2270   95.9810 C.3   8003  URI8003     0.2159
     12  C4'       53.1510   15.0010   95.7390 C.3   8003  URI8003     0.1829
     13  O2'       56.6830   15.4330   96.0200 O.3   8003  URI8003    -0.2157
     14  O3'       54.9750   13.6530   94.7660 O.3   8003  URI8003    -0.2175
     15  O4'       53.3410   16.3620   96.2950 O.3   8003  URI8003    -0.3318
     16  C5'       51.8950   14.3280   96.3150 C.3   8003  URI8003     0.2142
     17  O5'       51.6610   12.9950   95.7850 O.3   8003  URI8003    -0.2176
@<TRIPOS>BOND
     1    14    11    1
     2    12    11    1
     3    12    15    1
     4    12    16    1
     5    17    16    1
     6    11    10    1
     7    13    10    1
     8    15     9    1
     9    10     9    1
    10     9     1    1
    11     7     2    2
    12     1     2   am
    13     1     6    1
    14     2     3    2
    15     6     5    2
    16     3     4    2
    17     5     4    1
    18     4     8    2
