@<TRIPOS>MOLECULE
1lny_IMO_A_1.pdb
 27 29 0 0 0
SMALL
GASTEIGER

@<TRIPOS>ATOM
      1  P         54.2510    8.4430   14.2870 P.3   1451  IMO1451     0.5898
      2  O1        55.5730    9.0180   13.7800 O.3   1451  IMO1451    -0.1039
      3  C2        54.4200    5.6750   11.0780 C.3   1451  IMO1451     0.3944
      4  C1'       54.4050    1.4270   12.1360 C.3   1451  IMO1451     0.3186
      5  C2'       55.6790    0.7730   11.6220 C.3   1451  IMO1451     0.2570
      6  C3'       55.2330   -0.6800   11.4990 C.3   1451  IMO1451     0.2184
      7  C4'       54.2460   -0.8440   12.6460 C.3   1451  IMO1451     0.1823
      8  C5'       54.8000   -1.5630   13.8450 C.3   1451  IMO1451     0.1860
      9  O2        53.9330    8.8680   15.7230 O.3   1451  IMO1451    -0.1039
     10  O3        53.0760    8.6840   13.3430 O.2   1451  IMO1451    -0.2114
     11  PA        56.3670   -0.6930   15.8310 P.3   1451  IMO1451     0.5327
     12  O1A       57.7970   -0.1770   15.8490 O.2   1451  IMO1451    -0.2224
     13  O2A       56.2190   -2.0430   16.5020 O.3   1451  IMO1451    -0.1145
     14  O3A       55.3880    0.3550   16.3420 O.3   1451  IMO1451    -0.1145
     15  O5'       56.0200   -0.9280   14.2560 O.3   1451  IMO1451    -0.2675
     16  O4'       53.8390    0.4900   13.0240 O.3   1451  IMO1451    -0.3135
     17  N9        54.6210    2.6560   12.8910 N.pl3 1451  IMO1451    -0.1440
     18  C4        54.5910    3.9450   12.4190 C.2   1451  IMO1451     0.3462
     19  N3        54.4240    4.3480   11.1490 N.2   1451  IMO1451    -0.0347
     20  N1        54.5400    6.5770   12.0570 N.2   1451  IMO1451    -0.1827
     21  C6        54.6940    6.1400   13.3260 C.2   1451  IMO1451     0.2580
     22  O6        54.4610    6.8260   14.3330 O.2   1451  IMO1451    -0.3807
     23  C5        54.7410    4.7530   13.5310 C.2   1451  IMO1451     0.2152
     24  N7        54.9090    3.9880   14.6730 N.2   1451  IMO1451    -0.2121
     25  C8        54.8420    2.7550   14.2390 C.3   1451  IMO1451     0.3376
     26  O2'       56.0730    1.3460   10.3950 O.3   1451  IMO1451    -0.2130
     27  O3'       54.5970   -0.9890   10.2670 O.3   1451  IMO1451    -0.2174
@<TRIPOS>BOND
     1    27     6    1
     2    26     5    1
     3     3    19    1
     4     3    20    1
     5    19    18    2
     6     6     5    1
     7     6     7    1
     8     5     4    1
     9    20    21    2
    10     4    17    1
    11     4    16    1
    12    18    17    1
    13    18    23    1
    14     7    16    1
    15     7     8    1
    16    17    25    1
    17    21    23    1
    18    21    22    1
    19    10     1    2
    20    23    24    2
    21     2     1    1
    22     8    15    1
    23    25    24    1
    24    15    11    1
    25     1    22    1
    26     1     9    1
    27    11    12    2
    28    11    14    1
    29    11    13    1
