@<TRIPOS>MOLECULE
1lny_GDP_A_1.pdb
 28 30 0 0 0
SMALL
GASTEIGER

@<TRIPOS>ATOM
      1  PB        53.7350   12.9200   12.8700 P.3   1452  GDP1452     0.5373
      2  O1B       54.0480   13.9850   13.9110 O.3   1452  GDP1452    -0.1143
      3  O2B       54.4450   11.6070   13.1200 O.3   1452  GDP1452    -0.1143
      4  O3B       52.2310   12.7420   12.6630 O.2   1452  GDP1452    -0.2221
      5  O3A       54.3140   13.4910   11.4570 O.3   1452  GDP1452    -0.2261
      6  PA        55.8570   13.3790   10.9450 P.3   1452  GDP1452     0.2231
      7  O1A       56.5780   14.5550   11.5060 O.3   1452  GDP1452    -0.4370
      8  O2A       56.3540   12.0130   11.2430 O.2   1452  GDP1452    -0.5169
      9  O5'       55.8620   13.5200    9.3590 O.3   1452  GDP1452    -0.3111
     10  C5'       55.0940   14.5200    8.7040 C.3   1452  GDP1452     0.1813
     11  C4'       55.9880   15.3690    7.8330 C.3   1452  GDP1452     0.1799
     12  O4'       55.1920   16.2300    6.9880 O.3   1452  GDP1452    -0.3326
     13  C3'       56.9640   16.2660    8.5790 C.3   1452  GDP1452     0.2158
     14  O3'       58.2560   16.1700    7.9970 O.3   1452  GDP1452    -0.2175
     15  C2'       56.3390   17.6510    8.4660 C.3   1452  GDP1452     0.2310
     16  O2'       57.2750   18.7080    8.4910 O.3   1452  GDP1452    -0.2158
     17  C1'       55.6320   17.5630    7.1190 C.3   1452  GDP1452     0.2293
     18  N9        54.4440   18.3990    7.0610 N.pl3 1452  GDP1452    -0.2354
     19  C8        53.4320   18.4750    7.9850 C.3   1452  GDP1452     0.2246
     20  N7        52.4720   19.2800    7.6240 N.2   1452  GDP1452    -0.2322
     21  C5        52.8810   19.7700    6.3930 C.2   1452  GDP1452     0.2182
     22  C6        52.2450   20.6620    5.5060 C.1   1452  GDP1452     0.2372
     23  O6        51.1450   21.2230    5.6330 O.2   1452  GDP1452    -0.2069
     24  N1        53.0130   20.8770    4.3630 N.2   1452  GDP1452    -0.2485
     25  C2        54.2340   20.2970    4.1070 C.1   1452  GDP1452     0.2531
     26  N2        54.8250   20.6210    2.9460 N.pl3 1452  GDP1452    -0.0226
     27  N3        54.8310   19.4620    4.9250 N.2   1452  GDP1452    -0.3074
     28  C4        54.1040   19.2430    6.0390 C.2   1452  GDP1452     0.2300
@<TRIPOS>BOND
     1    26    25    1
     2    25    24    2
     3    25    27    2
     4    24    22    2
     5    27    28    2
     6    22    23    2
     7    22    21    1
     8    28    21    1
     9    28    18    1
    10    21    20    2
    11    12    17    1
    12    12    11    1
    13    18    17    1
    14    18    19    1
    15    17    15    1
    16    20    19    1
    17    11    13    1
    18    11    10    1
    19    14    13    1
    20    15    16    1
    21    15    13    1
    22    10     9    1
    23     9     6    1
    24     6     8    2
    25     6     5    1
    26     6     7    1
    27     5     1    1
    28     4     1    2
    29     1     3    1
    30     1     2    1
