@<TRIPOS>MOLECULE
1lnz_G4P_B_1.pdb
 36 38 0 0 0
SMALL
GASTEIGER

@<TRIPOS>ATOM
      1  PB         9.0600   68.3090   71.6630 P.3   600  G4P600      0.5373
      2  O1B        8.2310   69.2370   72.4480 O.3   600  G4P600     -0.1143
      3  O2B        8.9490   68.2660   70.1900 O.2   600  G4P600     -0.2221
      4  O3B       10.5820   68.4800   71.7400 O.3   600  G4P600     -0.1143
      5  O3A        8.5180   66.7750   72.0670 O.3   600  G4P600     -0.2261
      6  PA         8.4070   66.2840   73.5900 P.3   600  G4P600      0.2231
      7  O1A        9.3380   65.1500   73.4180 O.2   600  G4P600     -0.5169
      8  O2A        8.7070   67.2550   74.6780 O.3   600  G4P600     -0.4370
      9  O5'        6.9580   65.6500   73.5730 O.3   600  G4P600     -0.3111
     10  C5'        5.7280   66.3090   73.7230 C.3   600  G4P600      0.1812
     11  C4'        4.7620   65.4190   74.5490 C.3   600  G4P600      0.1771
     12  O4'        4.1190   64.3280   73.8140 O.3   600  G4P600     -0.3327
     13  C3'        5.3790   64.6160   75.7940 C.3   600  G4P600      0.1857
     14  O3'        4.6260   65.0170   76.9650 O.3   600  G4P600     -0.3109
     15  C2'        5.1830   63.1040   75.5250 C.3   600  G4P600      0.2282
     16  O2'        4.5840   62.4370   76.6530 O.3   600  G4P600     -0.2159
     17  C1'        4.2870   63.0430   74.3510 C.3   600  G4P600      0.2292
     18  N9         4.7830   62.1140   73.2680 N.pl3 600  G4P600     -0.2354
     19  C8         5.9200   62.0600   72.4960 C.3   600  G4P600      0.2246
     20  N7         5.9420   61.0570   71.6610 N.2   600  G4P600     -0.2322
     21  C5         4.7650   60.3950   71.8580 C.2   600  G4P600      0.2182
     22  C6         4.1880   59.2100   71.2640 C.1   600  G4P600      0.2372
     23  O6         4.6570   58.5090   70.3960 O.2   600  G4P600     -0.2069
     24  N1         2.9070   58.8540   71.7690 N.2   600  G4P600     -0.2485
     25  C2         2.2330   59.5500   72.7670 C.1   600  G4P600      0.2531
     26  N2         1.0560   59.0750   73.1340 N.pl3 600  G4P600     -0.0226
     27  N3         2.7690   60.6890   73.3680 N.2   600  G4P600     -0.3074
     28  C4         4.0070   61.0250   72.8510 C.2   600  G4P600      0.2300
     29  PC         4.3800   65.0850   78.3090 P.3   600  G4P600      0.2231
     30  O1C        4.5910   63.8550   79.1370 O.3   600  G4P600     -0.4370
     31  O2C        3.0450   65.7400   78.3400 O.2   600  G4P600     -0.5169
     32  O3C        5.7740   65.9170   78.7440 O.3   600  G4P600     -0.2261
     33  PD         5.7920   67.6310   78.9850 P.3   600  G4P600      0.5373
     34  O1D        5.0950   68.2260   77.8160 O.2   600  G4P600     -0.2221
     35  O2D        7.2760   67.8840   79.1070 O.3   600  G4P600     -0.1143
     36  O3D        5.3690   68.1260   80.4170 O.3   600  G4P600     -0.1143
@<TRIPOS>BOND
     1     3     1    2
     2    23    22    2
     3    22    24    2
     4    22    21    1
     5    20    21    2
     6    20    19    1
     7     1     4    1
     8     1     5    1
     9     1     2    1
    10    24    25    2
    11    21    28    1
    12     5     6    1
    13    19    18    1
    14    25    26    1
    15    25    27    2
    16    28    18    1
    17    28    27    2
    18    18    17    1
    19     7     6    2
    20     9     6    1
    21     9    10    1
    22     6     8    1
    23    10    11    1
    24    12    17    1
    25    12    11    1
    26    17    15    1
    27    11    13    1
    28    15    13    1
    29    15    16    1
    30    13    14    1
    31    14    29    1
    32    34    33    2
    33    29    31    2
    34    29    32    1
    35    29    30    1
    36    32    33    1
    37    33    35    1
    38    33    36    1
