@<TRIPOS>MOLECULE
1lo0_BC1_H_1.pdb
 25 27 0 0 0
SMALL
GASTEIGER

@<TRIPOS>ATOM
      1  O1        10.3850  121.9940   10.8280 O.co2 501  BC1501     -0.2456
      2  C1        10.8850  122.9520   10.2820 C.2   501  BC1501      0.3667
      3  O2        10.6540  124.1540   10.8470 O.co2 501  BC1501     -0.2456
      4  C2        11.7260  122.9840    9.0580 C.3   501  BC1501      0.1374
      5  C3        12.8620  121.9860    9.2030 C.3   501  BC1501      0.1270
      6  N1        12.4340  120.6920    8.6150 N.am  501  BC1501     -0.2034
      7  C4        13.2450  120.0020    7.6650 C.2   501  BC1501      0.2617
      8  O3        14.3230  120.4730    7.3200 O.2   501  BC1501     -0.2716
      9  C5        12.6820  118.6320    7.1360 C.3   501  BC1501      0.1887
     10  C6        11.1940  118.6670    7.1010 C.1   501  BC1501      0.0885
     11  N2        10.0390  118.6730    7.1090 N.1   501  BC1501     -0.1948
     12  C7        13.1490  117.6090    8.1870 C.ar  501  BC1501      0.0161
     13  C8        12.3960  117.3710    9.3890 C.ar  501  BC1501     -0.0013
     14  C9        12.8300  116.4360   10.3410 C.ar  501  BC1501     -0.0002
     15  C10       14.0220  115.7180   10.1280 C.ar  501  BC1501      0.0013
     16  C11       14.7910  115.9240    8.9610 C.ar  501  BC1501      0.0146
     17  C12       14.3740  116.8710    7.9710 C.ar  501  BC1501      0.0493
     18  N3        15.2150  117.0500    6.7520 N.pl3 501  BC1501     -0.2855
     19  C13       14.4640  117.5540    5.5600 C.ar  501  BC1501      0.0493
     20  C14       13.2360  118.3140    5.7050 C.ar  501  BC1501      0.0161
     21  C15       12.5550  118.7620    4.5120 C.ar  501  BC1501     -0.0013
     22  C16       13.0590  118.4730    3.2350 C.ar  501  BC1501     -0.0002
     23  C17       14.2550  117.7380    3.0940 C.ar  501  BC1501      0.0013
     24  C18       14.9580  117.2790    4.2360 C.ar  501  BC1501      0.0146
     25  C19       16.4840  116.2970    6.4890 C.3   501  BC1501      0.1173
@<TRIPOS>BOND
     1    23    22   ar
     2    23    24   ar
     3    22    21   ar
     4    24    19   ar
     5    21    20   ar
     6    19    20   ar
     7    19    18    1
     8    20     9    1
     9    25    18    1
    10    18    17    1
    11    10    11    3
    12    10     9    1
    13     9     7    1
    14     9    12    1
    15     8     7    2
    16     7     6   am
    17    17    12   ar
    18    17    16   ar
    19    12    13   ar
    20     6     5    1
    21    16    15   ar
    22     4     5    1
    23     4     2    1
    24    13    14   ar
    25    15    14   ar
    26     2     1   ar
    27     2     3   ar
