@<TRIPOS>MOLECULE
1lo2_OX1_H_1.pdb
 22 25 0 0 0
SMALL
GASTEIGER

@<TRIPOS>ATOM
      1  C1        12.3220  118.8020    4.6300 C.ar  501  OX1501     -0.0018
      2  C2        14.6810  117.2870    4.0510 C.ar  501  OX1501     -0.0018
      3  C3        13.2580  118.5350    5.6730 C.ar  501  OX1501      0.0075
      4  C4        12.5650  118.3190    3.3300 C.ar  501  OX1501     -0.0003
      5  C5        13.7260  117.5740    3.0380 C.ar  501  OX1501     -0.0003
      6  C6        14.4600  117.7600    5.3730 C.ar  501  OX1501      0.0075
      7  C7        13.1880  118.9960    7.1750 C.3   501  OX1501      0.1641
      8  C8        15.3920  117.5640    6.6100 C.3   501  OX1501      0.1637
      9  C9        11.9340  119.8530    7.5130 C.3   501  OX1501      0.0507
     10  O1        14.4010  119.7770    7.3930 O.3   501  OX1501     -0.2167
     11  C10       16.6750  116.7680    6.3000 C.3   501  OX1501      0.0422
     12  O2        15.7380  118.9120    7.0550 O.3   501  OX1501     -0.2167
     13  C11       13.3400  117.7270    8.0790 C.ar  501  OX1501      0.0075
     14  C12       13.9420  115.3710    9.5670 C.ar  501  OX1501     -0.0003
     15  C13       12.4740  117.2930    9.1280 C.ar  501  OX1501     -0.0018
     16  C14       14.5370  116.9520    7.7740 C.ar  501  OX1501      0.0075
     17  C15       14.8250  115.7780    8.5260 C.ar  501  OX1501     -0.0018
     18  C16       12.7810  116.1190    9.8630 C.ar  501  OX1501     -0.0003
     19  C17       12.1000  120.6930    8.8030 C.3   501  OX1501      0.1173
     20  C18       10.8470  121.4560    9.1890 C.2   501  OX1501      0.3650
     21  O3        10.7810  122.5120    9.7860 O.co2 501  OX1501     -0.2457
     22  O4         9.6030  120.9970    8.8820 O.co2 501  OX1501     -0.2457
@<TRIPOS>BOND
     1     5     4   ar
     2     5     2   ar
     3     4     1   ar
     4     2     6   ar
     5     1     3   ar
     6     6     3   ar
     7     6     8    1
     8     3     7    1
     9    11     8    1
    10     8    12    1
    11     8    16    1
    12    12    10    1
    13     7    10    1
    14     7     9    1
    15     7    13    1
    16     9    19    1
    17    16    13   ar
    18    16    17   ar
    19    13    15   ar
    20    17    14   ar
    21    19    20    1
    22    22    20   ar
    23    15    18   ar
    24    20    21   ar
    25    14    18   ar
