@<TRIPOS>MOLECULE
1lo3_AN1_H_1.pdb
 20 22 0 0 0
SMALL
GASTEIGER

@<TRIPOS>ATOM
      1  O1         9.2120  121.1050    6.7250 O.co2 501  AN1501     -0.2456
      2  C1         9.1390  119.9000    6.8790 C.2   501  AN1501      0.3652
      3  O2         7.8890  119.4310    7.0820 O.co2 501  AN1501     -0.2456
      4  C2        10.2200  118.8510    6.8830 C.3   501  AN1501      0.1187
      5  C3        11.5750  119.4990    6.6600 C.3   501  AN1501      0.0382
      6  C4        12.7710  118.5670    6.6370 C.ar  501  AN1501     -0.0216
      7  C5        13.2390  117.9150    7.8360 C.ar  501  AN1501     -0.0043
      8  C6        12.5790  118.0930    9.1260 C.ar  501  AN1501     -0.0003
      9  C7        13.0240  117.4550   10.2510 C.ar  501  AN1501     -0.0000
     10  C8        14.1730  116.5860   10.2100 C.ar  501  AN1501     -0.0000
     11  C9        14.8420  116.3810    9.0330 C.ar  501  AN1501     -0.0003
     12  C10       14.4190  117.0220    7.7900 C.ar  501  AN1501     -0.0043
     13  C11       15.1190  116.7890    6.5550 C.ar  501  AN1501     -0.0218
     14  C12       14.6450  117.4260    5.3460 C.ar  501  AN1501     -0.0043
     15  C13       13.4600  118.3200    5.3870 C.ar  501  AN1501     -0.0043
     16  C14       13.0130  118.9320    4.1220 C.ar  501  AN1501     -0.0003
     17  C15       13.6620  118.6830    2.9370 C.ar  501  AN1501     -0.0000
     18  C16       14.8230  117.8140    2.8930 C.ar  501  AN1501     -0.0000
     19  C17       15.2970  117.2130    4.0460 C.ar  501  AN1501     -0.0003
     20  C18       16.3170  115.8780    6.5360 C.3   501  AN1501      0.0310
@<TRIPOS>BOND
     1    18    17   ar
     2    18    19   ar
     3    17    16   ar
     4    19    14   ar
     5    16    15   ar
     6    14    15   ar
     7    14    13   ar
     8    15     6   ar
     9    20    13    1
    10    13    12   ar
    11     6     5    1
    12     6     7   ar
    13     5     4    1
    14     1     2   ar
    15     2     4    1
    16     2     3   ar
    17    12     7   ar
    18    12    11   ar
    19     7     8   ar
    20    11    10   ar
    21     8     9   ar
    22    10     9   ar
