@<TRIPOS>MOLECULE
1loa_GYP_A_1.pdb
 13 13 0 0 0
SMALL
GASTEIGER

@<TRIPOS>ATOM
      1  C1        38.9140   51.6820   48.8370 C.3   182  GYP182      0.2695
      2  C2        37.5090   51.8240   48.4460 C.3   182  GYP182      0.2406
      3  C3        36.5940   50.8650   49.1380 C.3   182  GYP182      0.2198
      4  C4        37.0020   49.4470   48.8450 C.3   182  GYP182      0.2144
      5  C5        38.5080   49.2890   49.2330 C.3   182  GYP182      0.1835
      6  C6        39.1720   47.9870   48.7720 C.3   182  GYP182      0.2142
      7  C7        40.4050   52.2560   50.3940 C.3   182  GYP182      0.1769
      8  O1        39.0540   52.0880   50.1690 O.3   182  GYP182     -0.3259
      9  O2        37.1340   53.0970   48.8980 O.3   182  GYP182     -0.2149
     10  O3        35.2770   51.1130   48.6670 O.3   182  GYP182     -0.2174
     11  O4        36.1190   48.6060   49.6150 O.3   182  GYP182     -0.2176
     12  O5        39.2980   50.3350   48.6500 O.3   182  GYP182     -0.3256
     13  O6        38.9650   47.8180   47.3860 O.3   182  GYP182     -0.2176
@<TRIPOS>BOND
     1    13     6    1
     2     2     1    1
     3     2     9    1
     4     2     3    1
     5    12     1    1
     6    12     5    1
     7    10     3    1
     8     6     5    1
     9     1     8    1
    10     4     3    1
    11     4     5    1
    12     4    11    1
    13     8     7    1
