@<TRIPOS>MOLECULE
1lob_MMA_B_1.pdb
 13 13 0 0 0
SMALL
GASTEIGER

@<TRIPOS>ATOM
      1  C1        38.7540   51.7210   48.9360 C.3    53  MMA53       0.2695
      2  C2        37.2680   51.9590   48.6990 C.3    53  MMA53       0.2406
      3  C3        36.4030   50.9050   49.4040 C.3    53  MMA53       0.2198
      4  C4        36.8850   49.4890   49.0390 C.3    53  MMA53       0.2144
      5  C5        38.4140   49.3210   49.2630 C.3    53  MMA53       0.1835
      6  C6        39.0390   47.9710   48.8340 C.3    53  MMA53       0.2142
      7  C7        40.4000   51.9010   50.6310 C.3    53  MMA53       0.1769
      8  O1        39.0450   52.0020   50.2980 O.3    53  MMA53      -0.3259
      9  O2        37.0290   51.8940   47.3240 O.3    53  MMA53      -0.2149
     10  O3        35.0510   51.0990   48.9710 O.3    53  MMA53      -0.2174
     11  O4        36.1970   48.5730   49.8370 O.3    53  MMA53      -0.2176
     12  O5        39.0940   50.3700   48.5480 O.3    53  MMA53      -0.3256
     13  O6        38.9380   47.7880   47.4450 O.3    53  MMA53      -0.2176
@<TRIPOS>BOND
     1     9     2    1
     2    13     6    1
     3    12     1    1
     4    12     5    1
     5     2     1    1
     6     2     3    1
     7     6     5    1
     8     1     8    1
     9    10     3    1
    10     4     5    1
    11     4     3    1
    12     4    11    1
    13     8     7    1
