@<TRIPOS>MOLECULE
1loc_MDP_1_1.pdb
 20 20 0 0 0
SMALL
GASTEIGER

@<TRIPOS>ATOM
      1  C1        38.5090   51.3660   49.7010 C.3   950  MDP950      0.2899
      2  O1        39.5080   52.2550   49.9530 O.3   950  MDP950     -0.1879
      3  C2        37.3540   51.8850   48.8390 C.3   950  MDP950      0.1674
      4  N2        37.4590   53.3260   48.8890 N.am  950  MDP950     -0.2354
      5  C3        36.3370   51.0490   49.6320 C.3   950  MDP950      0.1716
      6  O3        34.9710   51.3130   49.2260 O.3   950  MDP950     -0.3463
      7  C4        36.6530   49.5510   49.4240 C.3   950  MDP950      0.2103
      8  O4        35.8190   48.8230   50.3390 O.3   950  MDP950     -0.2178
      9  C5        38.1400   49.2060   49.7100 C.3   950  MDP950      0.1834
     10  O5        38.9440   50.2050   49.1120 O.3   950  MDP950     -0.3243
     11  C6        38.7160   47.8680   49.2750 C.3   950  MDP950      0.2142
     12  O6        38.7680   47.8910   47.8800 O.3   950  MDP950     -0.2176
     13  C7        34.2700   52.2440   50.0780 C.3   950  MDP950      0.1795
     14  C8        33.5230   53.2550   49.1970 C.2   950  MDP950      0.2366
     15  O8        32.3980   53.6840   49.4770 O.2   950  MDP950     -0.2856
     16  C9        33.4300   51.4900   51.1380 C.3   950  MDP950      0.0406
     17  C10       37.0960   54.2580   48.0080 C.2   950  MDP950      0.4474
     18  O10       37.1020   55.4630   48.2970 O.co2 950  MDP950     -0.2223
     19  O11       37.1900   53.9980   46.8110 O.co2 950  MDP950     -0.2223
     20  C11       37.1360   53.8890   50.2040 C.3   950  MDP950      0.1186
@<TRIPOS>BOND
     1    19    17   ar
     2    12    11    1
     3    17    18   ar
     4    17     4   am
     5     3     4    1
     6     3     5    1
     7     3     1    1
     8     4    20    1
     9    10     1    1
    10    10     9    1
    11    14    15    2
    12    14    13    1
    13     6     5    1
    14     6    13    1
    15    11     9    1
    16     7     5    1
    17     7     9    1
    18     7     8    1
    19     1     2    1
    20    13    16    1
