@<TRIPOS>MOLECULE
1loc_ZGL_3_1.pdb
 10 9 0 0 0
SMALL
GASTEIGER

@<TRIPOS>ATOM
      1  C         49.0430   -8.0700    2.4950 C.2   952  ZGL952      0.2782
      2  N         49.6500   -9.4820    0.6110 N.3   952  ZGL952     -0.1230
      3  O         49.2680   -6.9880    3.0380 O.2   952  ZGL952     -0.2701
      4  N1        47.9230   -8.7240    2.6950 N.am  952  ZGL952     -0.0865
      5  CA        50.1260   -8.9360    1.8750 C.3   952  ZGL952      0.1715
      6  CB        50.4940  -10.0950    2.7940 C.3   952  ZGL952      0.0403
      7  CD        50.6340   -9.3410    5.2990 C.2   952  ZGL952      0.3649
      8  CG        51.3670   -9.7260    4.0020 C.3   952  ZGL952      0.1161
      9  OE1       49.5020   -8.8540    5.2770 O.co2 952  ZGL952     -0.2457
     10  OE2       51.1540   -9.5020    6.4120 O.co2 952  ZGL952     -0.2457
@<TRIPOS>BOND
     1     2     5    1
     2     5     1    1
     3     5     6    1
     4     1     4   am
     5     1     3    2
     6     6     8    1
     7     8     7    1
     8     9     7   ar
     9     7    10   ar
