@<TRIPOS>MOLECULE
1lod_MUR_A_1.pdb
 17 17 0 0 0
SMALL
GASTEIGER

@<TRIPOS>ATOM
      1  C1        38.9640   51.2720   49.4340 C.3   230  MUR230      0.2892
      2  O1        39.7400   52.3960   49.4290 O.3   230  MUR230     -0.1882
      3  C2        37.7460   51.4390   48.7670 C.3   230  MUR230      0.1804
      4  N2        37.4560   52.7430   48.5470 N.3   230  MUR230     -0.1248
      5  C3        36.7770   50.6810   49.6240 C.3   230  MUR230      0.1711
      6  O3        35.4100   51.0820   49.3450 O.3   230  MUR230     -0.3432
      7  C4        37.2570   49.2660   49.2490 C.3   230  MUR230      0.2101
      8  O4        36.6030   48.3980   50.1550 O.3   230  MUR230     -0.2178
      9  C5        38.8350   49.0370   49.3730 C.3   230  MUR230      0.1834
     10  O5        39.5140   50.1610   48.8070 O.3   230  MUR230     -0.3244
     11  C6        39.5450   47.7850   48.7870 C.3   230  MUR230      0.2142
     12  O6        39.2490   47.7350   47.4140 O.3   230  MUR230     -0.2176
     13  C7        34.6800   52.1890   49.9690 C.3   230  MUR230      0.2178
     14  C8        35.3750   53.5800   49.9920 C.2   230  MUR230      0.3913
     15  O8        36.4750   53.7110   50.4960 O.co2 230  MUR230     -0.2430
     16  O9        35.1120   54.4610   49.1990 O.co2 230  MUR230     -0.2430
     17  C9        33.4350   52.3540   49.1350 C.3   230  MUR230      0.0444
@<TRIPOS>BOND
     1    12    11    1
     2     4     3    1
     3     3     1    1
     4     3     5    1
     5    11     9    1
     6    10     9    1
     7    10     1    1
     8    17    13    1
     9    16    14   ar
    10     7     9    1
    11     7     5    1
    12     7     8    1
    13     6     5    1
    14     6    13    1
    15     2     1    1
    16    13    14    1
    17    14    15   ar
