@<TRIPOS>MOLECULE
1lof_MAN_A_1.pdb
 11 11 0 0 0
SMALL
GASTEIGER

@<TRIPOS>ATOM
      1  C1        25.6300   21.0480   -2.0910 C.3   501  MAN501      0.1777
      2  C2        24.7560   19.8130   -1.7460 C.3   501  MAN501      0.2141
      3  C3        23.3880   20.2980   -1.3550 C.3   501  MAN501      0.2173
      4  C4        23.5890   21.0460   -0.0760 C.3   501  MAN501      0.2142
      5  C5        24.4740   22.2790   -0.3270 C.3   501  MAN501      0.1810
      6  C6        24.8090   23.0890    0.9430 C.3   501  MAN501      0.2141
      7  O2        25.2580   18.9570   -0.7040 O.3   501  MAN501     -0.2176
      8  O3        22.4810   19.2380   -1.2500 O.3   501  MAN501     -0.2175
      9  O4        22.3360   21.4140    0.4050 O.3   501  MAN501     -0.2176
     10  O5        25.7270   21.8690   -0.9020 O.3   501  MAN501     -0.3481
     11  O6        25.5210   22.3060    1.8910 O.3   501  MAN501     -0.2176
@<TRIPOS>BOND
     1     1     2    1
     2     1    10    1
     3     2     3    1
     4     2     7    1
     5     3     8    1
     6     3     4    1
     7    10     5    1
     8     5     4    1
     9     5     6    1
    10     4     9    1
    11     6    11    1
