@<TRIPOS>MOLECULE
1log_MAN_A_1.pdb
 11 11 0 0 0
SMALL
GASTEIGER

@<TRIPOS>ATOM
      1  C1        30.7900   10.1540   23.0200 C.3   591  MAN591      0.1777
      2  C2        30.8390   10.4350   21.5280 C.3   591  MAN591      0.2141
      3  C3        31.9050    9.5340   20.8720 C.3   591  MAN591      0.2173
      4  C4        33.2460    9.7170   21.5490 C.3   591  MAN591      0.2142
      5  C5        33.1270    9.4370   23.0600 C.3   591  MAN591      0.1810
      6  C6        34.4440    9.7270   23.7910 C.3   591  MAN591      0.2141
      7  O2        31.1370   11.7870   21.2810 O.3   591  MAN591     -0.2176
      8  O3        32.0430    9.8650   19.4970 O.3   591  MAN591     -0.2175
      9  O4        34.1750    8.8580   20.9550 O.3   591  MAN591     -0.2176
     10  O5        32.1070   10.2950   23.6110 O.3   591  MAN591     -0.3481
     11  O6        34.6930   11.1210   23.8270 O.3   591  MAN591     -0.2176
@<TRIPOS>BOND
     1     8     3    1
     2     3     2    1
     3     3     4    1
     4     9     4    1
     5     7     2    1
     6     2     1    1
     7     4     5    1
     8     1    10    1
     9     5    10    1
    10     5     6    1
    11     6    11    1
