@<TRIPOS>MOLECULE
1loh_BDP_A_1.pdb
 12 12 0 0 0
SMALL
GASTEIGER

@<TRIPOS>ATOM
      1  C1        14.8230  -13.0050   32.4530 C.3   2001  BDP2001     0.1783
      2  C2        14.6360  -11.4590   32.2250 C.3   2001  BDP2001     0.2141
      3  C3        13.1690  -11.1420   32.6640 C.3   2001  BDP2001     0.2178
      4  C4        12.1760  -11.9420   31.7400 C.3   2001  BDP2001     0.2227
      5  C5        12.3670  -13.5620   31.7700 C.3   2001  BDP2001     0.2512
      6  C6        11.6300  -14.3550   30.9490 C.2   2001  BDP2001     0.3940
      7  O2        15.5750  -10.7150   33.0540 O.3   2001  BDP2001    -0.2176
      8  O3        12.9110   -9.7220   32.5070 O.3   2001  BDP2001    -0.2175
      9  O4        10.7680  -11.7530   32.1470 O.3   2001  BDP2001    -0.2171
     10  O5        13.8810  -13.7700   31.6410 O.3   2001  BDP2001    -0.3403
     11  O6A       11.9970  -15.5600   30.9260 O.co2 2001  BDP2001    -0.2429
     12  O6B       10.7150  -13.7710   30.2900 O.co2 2001  BDP2001    -0.2429
@<TRIPOS>BOND
     1    12     6   ar
     2    11     6   ar
     3     6     5    1
     4    10     5    1
     5    10     1    1
     6     4     5    1
     7     4     9    1
     8     4     3    1
     9     2     1    1
    10     2     3    1
    11     2     7    1
    12     8     3    1
