@<TRIPOS>MOLECULE
1loj_URI_B_1.pdb
 17 18 0 0 0
SMALL
GASTEIGER

@<TRIPOS>ATOM
      1  N1        41.6090    9.6840   50.3350 N.am  9007  URI9007    -0.1766
      2  C2        41.7760    9.2960   48.9330 C.1   9007  URI9007     0.2845
      3  N3        42.8090    8.3670   48.7190 N.2   9007  URI9007    -0.2452
      4  C4        43.6720    7.7940   49.6860 C.1   9007  URI9007     0.2182
      5  C5        43.4600    8.2270   51.0540 C.2   9007  URI9007     0.1242
      6  C6        42.4830    9.1120   51.3170 C.2   9007  URI9007     0.0929
      7  O2        41.0950    9.7130   47.9900 O.2   9007  URI9007    -0.1918
      8  O4        44.5330    6.9770   49.3200 O.2   9007  URI9007    -0.2085
      9  C1'       40.5090   10.6860   50.7290 C.3   9007  URI9007     0.2401
     10  C2'       40.4530   11.1410   52.1960 C.3   9007  URI9007     0.2319
     11  C3'       40.7090   12.6690   52.1920 C.3   9007  URI9007     0.2159
     12  C4'       40.9020   13.0610   50.7040 C.3   9007  URI9007     0.1829
     13  O2'       39.1890   10.7740   52.8170 O.3   9007  URI9007    -0.2157
     14  O3'       39.6850   13.4650   52.7760 O.3   9007  URI9007    -0.2175
     15  O4'       40.7670   11.8340   49.9220 O.3   9007  URI9007    -0.3318
     16  C5'       42.2800   13.6740   50.3720 C.3   9007  URI9007     0.2142
     17  O5'       42.5680   14.9020   51.0660 O.3   9007  URI9007    -0.2176
@<TRIPOS>BOND
     1     7     2    2
     2     3     2    2
     3     3     4    2
     4     2     1   am
     5     8     4    2
     6     4     5    1
     7    15    12    1
     8    15     9    1
     9     1     9    1
    10     1     6    1
    11    16    12    1
    12    16    17    1
    13    12    11    1
    14     9    10    1
    15     5     6    2
    16    11    10    1
    17    11    14    1
    18    10    13    1
