@<TRIPOS>MOLECULE
1loj_U_A_1.pdb
 21 22 0 0 0
SMALL
GASTEIGER

@<TRIPOS>ATOM
      1  OP3       45.5220    9.9410   53.5820 O.3   9010  U9010      -0.1145
      2  P         44.2530   10.9470   53.9650 P.3   9010  U9010       0.5327
      3  OP1       43.5950   11.6480   52.8090 O.2   9010  U9010      -0.2224
      4  OP2       43.1680   10.0660   54.4700 O.3   9010  U9010      -0.1145
      5  O5'       44.8640   11.8610   55.1730 O.3   9010  U9010      -0.2675
      6  C5'       45.9640   12.8070   55.0080 C.3   9010  U9010       0.1859
      7  C4'       45.8700   13.9720   53.9690 C.3   9010  U9010       0.1801
      8  O4'       47.2670   14.3910   53.8330 O.3   9010  U9010      -0.3320
      9  C3'       45.4820   13.6970   52.5230 C.3   9010  U9010       0.2158
     10  O3'       45.2320   14.8800   51.6960 O.3   9010  U9010      -0.2175
     11  C2'       46.7340   12.9290   52.0870 C.3   9010  U9010       0.2319
     12  O2'       46.8550   12.7040   50.6700 O.3   9010  U9010      -0.2157
     13  C1'       47.8490   13.7810   52.6840 C.3   9010  U9010       0.2401
     14  N1        49.1310   13.0760   53.0050 N.am  9010  U9010      -0.1766
     15  C2        49.9260   12.5910   51.9440 C.1   9010  U9010       0.2845
     16  O2        49.5710   12.7320   50.7890 O.2   9010  U9010      -0.1918
     17  N3        51.0990   11.9680   52.3190 N.2   9010  U9010      -0.2452
     18  C4        51.5730   11.7720   53.6260 C.1   9010  U9010       0.2182
     19  O4        52.6390   11.2000   53.7840 O.2   9010  U9010      -0.2085
     20  C5        50.7010   12.2910   54.6490 C.2   9010  U9010       0.1242
     21  C6        49.5620   12.8990   54.3340 C.2   9010  U9010       0.0929
@<TRIPOS>BOND
     1    12    11    1
     2    16    15    2
     3    10     9    1
     4    15    17    2
     5    15    14   am
     6    11     9    1
     7    11    13    1
     8    17    18    2
     9     9     7    1
    10    13    14    1
    11    13     8    1
    12     3     2    2
    13    14    21    1
    14     1     2    1
    15    18    19    2
    16    18    20    1
    17     8     7    1
    18     2     4    1
    19     2     5    1
    20     7     6    1
    21    21    20    2
    22     6     5    1
