@<TRIPOS>MOLECULE
1lol_XMP_A_1.pdb
 24 26 0 0 0
SMALL
GASTEIGER

@<TRIPOS>ATOM
      1  P          3.2930   36.9480   44.6050 P.3   2001  XMP2001     0.5327
      2  O1P        4.1210   37.4900   43.5250 O.2   2001  XMP2001    -0.2224
      3  O2P        2.0860   36.2280   44.0640 O.3   2001  XMP2001    -0.1145
      4  O5'        2.7110   38.1380   45.5130 O.3   2001  XMP2001    -0.2675
      5  O3P        4.1100   36.0550   45.5710 O.3   2001  XMP2001    -0.1145
      6  C5'        2.5800   38.0430   46.9350 C.3   2001  XMP2001     0.1859
      7  C4'        1.9750   39.3120   47.4770 C.3   2001  XMP2001     0.1801
      8  O4'        2.9650   40.3480   47.1690 O.3   2001  XMP2001    -0.3326
      9  C1'        2.2830   41.5810   46.8760 C.3   2001  XMP2001     0.2293
     10  N9         2.8090   42.0620   45.5770 N.pl3 2001  XMP2001    -0.2353
     11  C4         3.5310   43.2280   45.4310 C.2   2001  XMP2001     0.2316
     12  N3         3.8770   44.1200   46.4320 N.2   2001  XMP2001    -0.2901
     13  N1         4.9450   45.3310   44.6040 N.2   2001  XMP2001    -0.2311
     14  C2         4.5980   45.1710   45.9500 C.1   2001  XMP2001     0.3668
     15  O2         5.0020   46.0670   46.6860 O.2   2001  XMP2001    -0.1744
     16  C6         4.5800   44.4020   43.5770 C.1   2001  XMP2001     0.2388
     17  O6         4.9120   44.5960   42.4140 O.2   2001  XMP2001    -0.2068
     18  C5         3.8290   43.3050   44.0860 C.2   2001  XMP2001     0.2183
     19  N7         3.3010   42.1990   43.3690 N.2   2001  XMP2001    -0.2322
     20  C8         2.7160   41.5120   44.3180 C.3   2001  XMP2001     0.2246
     21  C2'        0.7860   41.3190   46.9670 C.3   2001  XMP2001     0.2310
     22  O2'        0.2410   41.7550   48.2190 O.3   2001  XMP2001    -0.2158
     23  C3'        0.6950   39.8280   46.8260 C.3   2001  XMP2001     0.2158
     24  O3'       -0.4780   39.3340   47.4510 O.3   2001  XMP2001    -0.2175
@<TRIPOS>BOND
     1    17    16    2
     2    19    18    2
     3    19    20    1
     4     2     1    2
     5    16    18    1
     6    16    13    2
     7     3     1    1
     8    18    11    1
     9    20    10    1
    10    13    14    2
    11     1     4    1
    12     1     5    1
    13    11    10    1
    14    11    12    2
    15     4     6    1
    16    10     9    1
    17    14    12    2
    18    14    15    2
    19    23    21    1
    20    23    24    1
    21    23     7    1
    22     9    21    1
    23     9     8    1
    24     6     7    1
    25    21    22    1
    26     8     7    1
