@<TRIPOS>MOLECULE
1lon_GDP_A_1.pdb
 28 30 0 0 0
SMALL
GASTEIGER

@<TRIPOS>ATOM
      1  PB         5.0820   17.5880   35.1090 P.3   1453  GDP1453     0.5373
      2  O1B        5.3050   18.7590   36.0530 O.3   1453  GDP1453    -0.1143
      3  O2B        5.8510   16.3300   35.4740 O.3   1453  GDP1453    -0.1143
      4  O3B        3.6100   17.2990   34.8600 O.2   1453  GDP1453    -0.2221
      5  O3A        5.6440   18.0880   33.6620 O.3   1453  GDP1453    -0.2261
      6  PA         7.2090   18.1270   33.2010 P.3   1453  GDP1453     0.2231
      7  O1A        7.7630   19.3900   33.7780 O.3   1453  GDP1453    -0.4370
      8  O2A        7.7610   16.8030   33.6450 O.2   1453  GDP1453    -0.5169
      9  O5'        7.3460   18.1960   31.6140 O.3   1453  GDP1453    -0.3111
     10  C5'        6.5480   19.0900   30.8420 C.3   1453  GDP1453     0.1813
     11  C4'        7.4230   20.0390   30.0450 C.3   1453  GDP1453     0.1799
     12  O4'        6.5990   20.8650   29.1840 O.3   1453  GDP1453    -0.3326
     13  C3'        8.2960   20.9930   30.8490 C.3   1453  GDP1453     0.2158
     14  O3'        9.6010   21.0380   30.2810 O.3   1453  GDP1453    -0.2175
     15  C2'        7.5430   22.3170   30.7690 C.3   1453  GDP1453     0.2310
     16  O2'        8.3720   23.4540   30.8630 O.3   1453  GDP1453    -0.2158
     17  C1'        6.9120   22.2270   29.3840 C.3   1453  GDP1453     0.2293
     18  N9         5.6690   22.9760   29.2420 N.pl3 1453  GDP1453    -0.2354
     19  C8         4.6220   23.0290   30.1320 C.3   1453  GDP1453     0.2246
     20  N7         3.6020   23.7080   29.6810 N.2   1453  GDP1453    -0.2322
     21  C5         4.0080   24.1480   28.4260 C.2   1453  GDP1453     0.2182
     22  C6         3.3180   24.9130   27.4480 C.1   1453  GDP1453     0.2372
     23  O6         2.1770   25.3710   27.5010 O.2   1453  GDP1453    -0.2069
     24  N1         4.0990   25.1270   26.3140 N.2   1453  GDP1453    -0.2485
     25  C2         5.3860   24.6750   26.1450 C.1   1453  GDP1453     0.2531
     26  N2         5.9810   25.0000   24.9850 N.pl3 1453  GDP1453    -0.0226
     27  N3         6.0420   23.9580   27.0470 N.2   1453  GDP1453    -0.3074
     28  C4         5.2940   23.7280   28.1520 C.2   1453  GDP1453     0.2300
@<TRIPOS>BOND
     1    26    25    1
     2    25    24    2
     3    25    27    2
     4    24    22    2
     5    27    28    2
     6    22    23    2
     7    22    21    1
     8    28    21    1
     9    28    18    1
    10    21    20    2
    11    12    17    1
    12    12    11    1
    13    18    17    1
    14    18    19    1
    15    17    15    1
    16    20    19    1
    17    11    10    1
    18    11    13    1
    19    14    13    1
    20    15    13    1
    21    15    16    1
    22    10     9    1
    23     9     6    1
    24     6     8    2
    25     6     5    1
    26     6     7    1
    27     5     1    1
    28     4     1    2
    29     1     3    1
    30     1     2    1
