@<TRIPOS>MOLECULE
1lon_IMO_A_1.pdb
 27 29 0 0 0
SMALL
GASTEIGER

@<TRIPOS>ATOM
      1  P          5.6290   13.2830   36.9400 P.3   1451  IMO1451     0.5898
      2  O1         6.9060   13.9790   36.4480 O.3   1451  IMO1451    -0.1039
      3  C2         6.0430   10.3550   33.8710 C.3   1451  IMO1451     0.3944
      4  C1'        6.4620    6.1640   35.1100 C.3   1451  IMO1451     0.3186
      5  C2'        7.7950    5.5020   34.7710 C.3   1451  IMO1451     0.2570
      6  C3'        7.3780    4.0410   34.6510 C.3   1451  IMO1451     0.2184
      7  C4'        6.2840    3.9020   35.7020 C.3   1451  IMO1451     0.1823
      8  C5'        6.7690    3.2680   36.9860 C.3   1451  IMO1451     0.1860
      9  O2         5.2490   13.7440   38.3460 O.3   1451  IMO1451    -0.1039
     10  O3         4.4620   13.3900   35.9500 O.2   1451  IMO1451    -0.2114
     11  PA         8.3090    4.1930   38.9730 P.3   1451  IMO1451     0.5327
     12  O1A        9.7210    4.7320   39.0600 O.2   1451  IMO1451    -0.2224
     13  O2A        8.1410    2.8360   39.6360 O.3   1451  IMO1451    -0.1145
     14  O3A        7.2740    5.2110   39.4310 O.3   1451  IMO1451    -0.1145
     15  O5'        8.0060    3.8950   37.4030 O.3   1451  IMO1451    -0.2675
     16  O4'        5.7870    5.2470   35.9520 O.3   1451  IMO1451    -0.3135
     17  N9         6.5530    7.4410   35.8230 N.pl3 1451  IMO1451    -0.1440
     18  C4         6.3910    8.7050   35.2920 C.2   1451  IMO1451     0.3462
     19  N3         6.1920    9.0380   34.0000 N.2   1451  IMO1451    -0.0347
     20  N1         6.0540   11.3110   34.8160 N.2   1451  IMO1451    -0.1827
     21  C6         6.2440   10.9490   36.1040 C.2   1451  IMO1451     0.2580
     22  O6         5.9910   11.6910   37.0650 O.2   1451  IMO1451    -0.3807
     23  C5         6.4420    9.5740   36.3720 C.2   1451  IMO1451     0.2152
     24  N7         6.6860    8.8750   37.5510 N.2   1451  IMO1451    -0.2121
     25  C8         6.7560    7.6230   37.1700 C.3   1451  IMO1451     0.3376
     26  O2'        8.3400    6.0100   33.5730 O.3   1451  IMO1451    -0.2130
     27  O3'        6.8900    3.6580   33.3660 O.3   1451  IMO1451    -0.2174
@<TRIPOS>BOND
     1    27     6    1
     2    26     5    1
     3     3    19    1
     4     3    20    1
     5    19    18    2
     6     6     5    1
     7     6     7    1
     8     5     4    1
     9    20    21    2
    10     4    17    1
    11     4    16    1
    12    18    17    1
    13    18    23    1
    14     7    16    1
    15     7     8    1
    16    17    25    1
    17    10     1    2
    18    21    23    1
    19    21    22    1
    20    23    24    2
    21     2     1    1
    22     1    22    1
    23     1     9    1
    24     8    15    1
    25    25    24    1
    26    15    11    1
    27    11    12    2
    28    11    14    1
    29    11    13    1
