@<TRIPOS>MOLECULE
1loo_GTP_A_1.pdb
 32 34 0 0 0
SMALL
GASTEIGER

@<TRIPOS>ATOM
      1  PG        60.6810   56.0140   37.2170 P.3   458  GTP458      0.5373
      2  O1G       61.7670   57.0560   36.9960 O.3   458  GTP458     -0.1143
      3  O2G       60.7440   55.3870   38.6000 O.3   458  GTP458     -0.1143
      4  O3G       59.2920   56.5210   36.8800 O.2   458  GTP458     -0.2221
      5  O3B       60.9790   54.8310   36.1330 O.3   458  GTP458     -0.2258
      6  PB        61.4070   53.2990   36.4910 P.3   458  GTP458      0.2277
      7  O1B       62.9170   53.3510   36.6270 O.2   458  GTP458     -0.5168
      8  O2B       60.7040   53.0540   37.8150 O.3   458  GTP458     -0.4368
      9  O3A       61.0800   52.0050   35.5570 O.3   458  GTP458     -0.2700
     10  PA        60.1570   50.7130   35.9460 P.3   458  GTP458      0.2189
     11  O1A       60.9860   49.4940   35.8520 O.2   458  GTP458     -0.5170
     12  O2A       59.4020   50.9660   37.1940 O.3   458  GTP458     -0.4371
     13  O5'       59.1070   50.6620   34.7510 O.3   458  GTP458     -0.3112
     14  C5'       59.4680   51.0500   33.4280 C.3   458  GTP458      0.1813
     15  C4'       58.8470   50.1010   32.4350 C.3   458  GTP458      0.1799
     16  O4'       59.8660   49.5160   31.5850 O.3   458  GTP458     -0.3326
     17  C3'       58.0880   48.9400   33.0690 C.3   458  GTP458      0.2158
     18  O3'       56.7860   48.8050   32.5030 O.3   458  GTP458     -0.2175
     19  C2'       59.0010   47.7440   32.8310 C.3   458  GTP458      0.2310
     20  O2'       58.3110   46.5180   32.7200 O.3   458  GTP458     -0.2158
     21  C1'       59.6610   48.1230   31.5070 C.3   458  GTP458      0.2293
     22  N9        60.9600   47.4870   31.3250 N.pl3 458  GTP458     -0.2354
     23  C8        62.0150   47.4970   32.2050 C.3   458  GTP458      0.2246
     24  N7        63.0610   46.8600   31.7580 N.2   458  GTP458     -0.2322
     25  C5        62.6740   46.4010   30.5080 C.2   458  GTP458      0.2182
     26  C6        63.3870   45.6410   29.5460 C.1   458  GTP458      0.2372
     27  O6        64.5370   45.2080   29.6100 O.2   458  GTP458     -0.2069
     28  N1        62.6170   45.3950   28.4160 N.2   458  GTP458     -0.2485
     29  C2        61.3270   45.8240   28.2280 C.1   458  GTP458      0.2531
     30  N2        60.7510   45.4870   27.0540 N.pl3 458  GTP458     -0.0226
     31  N3        60.6480   46.5320   29.1200 N.2   458  GTP458     -0.3074
     32  C4        61.3780   46.7820   30.2270 C.2   458  GTP458      0.2300
@<TRIPOS>BOND
     1    30    29    1
     2    29    28    2
     3    29    31    2
     4    28    26    2
     5    31    32    2
     6    26    27    2
     7    26    25    1
     8    32    25    1
     9    32    22    1
    10    25    24    2
    11    22    21    1
    12    22    23    1
    13    21    16    1
    14    21    19    1
    15    16    15    1
    16    24    23    1
    17    15    17    1
    18    15    14    1
    19    18    17    1
    20    20    19    1
    21    19    17    1
    22    14    13    1
    23    13    10    1
    24     9    10    1
    25     9     6    1
    26    11    10    2
    27    10    12    1
    28     5     6    1
    29     5     1    1
    30     6     7    2
    31     6     8    1
    32     4     1    2
    33     2     1    1
    34     1     3    1
