@<TRIPOS>MOLECULE
1lop_III_B_1.pdb
 37 38 0 0 0
SMALL
GASTEIGER

@<TRIPOS>ATOM
      1  C1       -19.7050   31.4780   20.2050 C.2     0  SIN0        0.3654
      2  O1       -19.2010   30.3820   20.5260 O.co2   0  SIN0       -0.2456
      3  O2       -20.7670   31.8250   20.7630 O.co2   0  SIN0       -0.2456
      4  C2       -19.0250   32.3870   19.1950 C.3     0  SIN0        0.1236
      5  C3       -18.1000   31.6670   18.1870 C.3     0  SIN0        0.0968
      6  C4       -17.8160   32.3570   16.8780 C.2     0  SIN0        0.2233
      7  O3       -18.5130   32.2940   15.8570 O.2     0  SIN0       -0.2751
      8  N        -16.6820   33.0380   16.8870 N.am    1  ALA1       -0.2983
      9  CA       -16.1810   33.7240   15.7100 C.3     1  ALA1        0.1488
     10  C        -14.8290   33.1750   15.1870 C.2     1  ALA1        0.2438
     11  O        -13.9860   32.7890   16.0080 O.2     1  ALA1       -0.2731
     12  CB       -16.0500   35.2060   16.0480 C.3     1  ALA1        0.0312
     13  H        -16.1740   33.0620   17.7200 H       1  ALA1        0.1498
     14  N        -14.5370   33.1090   13.8700 N.am    2  PRO2       -0.2717
     15  CA       -15.4170   33.5570   12.7830 C.3     2  PRO2        0.1518
     16  C        -16.6890   32.7500   12.5200 C.2     2  PRO2        0.2409
     17  O        -16.7220   31.5410   12.6760 O.2     2  PRO2       -0.2733
     18  CB       -14.4940   33.6100   11.5630 C.3     2  PRO2        0.0310
     19  CG       -13.5100   32.4890   11.8190 C.3     2  PRO2        0.0237
     20  CD       -13.2710   32.6020   13.3240 C.3     2  PRO2        0.0939
     21  N        -17.8010   33.3800   12.1780 N.am    3  ALA3       -0.2970
     22  CA       -19.0040   32.6360   11.8180 C.3     3  ALA3        0.1490
     23  C        -18.8630   31.8280   10.5120 C.2     3  ALA3        0.2440
     24  O        -18.1060   32.2200    9.6160 O.2     3  ALA3       -0.2730
     25  CB       -20.1520   33.6180   11.6740 C.3     3  ALA3        0.0312
     26  H        -17.7940   34.3560   12.1480 H       3  ALA3        0.1499
     27  N1       -19.5220   30.6630   10.4690 N.am    4  NIT4       -0.2826
     28  C1       -19.6180   29.7290    9.3200 C.ar    4  NIT4        0.0504
     29  C2       -18.9680   29.9510    8.1150 C.ar    4  NIT4        0.0164
     30  C3       -19.0920   29.0470    7.0770 C.ar    4  NIT4        0.0253
     31  C4       -19.8660   27.9130    7.2540 C.ar    4  NIT4        0.1430
     32  N4       -20.0110   26.9430    6.1300 N.pl3   4  NIT4        0.0577
     33  ON1      -19.6560   27.2780    5.0140 O.2     4  NIT4       -0.1261
     34  ON2      -20.4980   25.8350    6.3400 O.2     4  NIT4       -0.1261
     35  C5       -20.5200   27.6820    8.4550 C.ar    4  NIT4        0.0253
     36  C6       -20.3870   28.5950    9.4850 C.ar    4  NIT4        0.0164
     37 HN11      -19.8540   30.3760   11.3400 H       4  NIT4        0.1549
@<TRIPOS>BOND
     1    33    32    2
     2    32    34    2
     3    32    31    1
     4    30    31   ar
     5    30    29   ar
     6    31    35   ar
     7    29    28   ar
     8    35    36   ar
     9    28    36   ar
    10    28    27    1
    11    24    23    2
    12    27    23   am
    13    27    37    1
    14    23    22    1
    15    18    19    1
    16    18    15    1
    17    25    22    1
    18    22    21    1
    19    19    20    1
    20    26    21    1
    21    21    16   am
    22    16    17    2
    23    16    15    1
    24    15    14    1
    25    20    14    1
    26    14    10   am
    27    10     9    1
    28    10    11    2
    29     9    12    1
    30     9     8    1
    31     7     6    2
    32     6     8   am
    33     6     5    1
    34     8    13    1
    35     5     4    1
    36     4     1    1
    37     1     2   ar
    38     1     3   ar
