@<TRIPOS>MOLECULE
1loq_U_A_1.pdb
 21 22 0 0 0
SMALL
GASTEIGER

@<TRIPOS>ATOM
      1  OP3       39.1800   33.5330   36.3510 O.3   2001  U2001      -0.1145
      2  P         39.1180   34.7040   35.2570 P.3   2001  U2001       0.5327
      3  OP1       40.3930   34.8170   34.4320 O.3   2001  U2001      -0.1145
      4  OP2       37.9500   34.4720   34.3790 O.2   2001  U2001      -0.2224
      5  O5'       38.7890   36.0630   36.0300 O.3   2001  U2001      -0.2675
      6  C5'       39.7460   36.7240   36.8780 C.3   2001  U2001       0.1859
      7  C4'       39.0580   37.9290   37.4710 C.3   2001  U2001       0.1801
      8  O4'       39.9900   38.6330   38.3080 O.3   2001  U2001      -0.3320
      9  C3'       38.4760   38.9770   36.5460 C.3   2001  U2001       0.2158
     10  O3'       37.3050   39.5700   37.0970 O.3   2001  U2001      -0.2175
     11  C2'       39.6020   40.0150   36.4750 C.3   2001  U2001       0.2319
     12  O2'       39.1660   41.3750   36.2590 O.3   2001  U2001      -0.2157
     13  C1'       40.2760   39.8940   37.8220 C.3   2001  U2001       0.2401
     14  N1        41.7050   40.2160   37.9350 N.am  2001  U2001      -0.1766
     15  C2        42.6390   39.4970   37.1920 C.1   2001  U2001       0.2845
     16  O2        42.2840   38.6140   36.4530 O.2   2001  U2001      -0.1918
     17  N3        43.9610   39.8690   37.3740 N.2   2001  U2001      -0.2452
     18  C4        44.4400   40.8780   38.2140 C.1   2001  U2001       0.2182
     19  O4        45.6380   41.0640   38.2540 O.2   2001  U2001      -0.2085
     20  C5        43.4140   41.5670   38.9410 C.2   2001  U2001       0.1242
     21  C6        42.1280   41.2370   38.7910 C.2   2001  U2001       0.0929
@<TRIPOS>BOND
     1     4     2    2
     2     3     2    1
     3     2     5    1
     4     2     1    1
     5     5     6    1
     6    12    11    1
     7    16    15    2
     8    11     9    1
     9    11    13    1
    10     9    10    1
    11     9     7    1
    12     6     7    1
    13    15    17    2
    14    15    14   am
    15    17    18    2
    16     7     8    1
    17    13    14    1
    18    13     8    1
    19    14    21    1
    20    18    19    2
    21    18    20    1
    22    21    20    2
