@<TRIPOS>MOLECULE
1lor_BMP_A_1.pdb
 22 23 0 0 0
SMALL
GASTEIGER

@<TRIPOS>ATOM
      1  P         39.3420   34.7470   35.1960 P.3   2001  BMP2001     0.5327
      2  OP1       40.5880   34.8470   34.3600 O.3   2001  BMP2001    -0.1145
      3  OP2       38.1800   34.4870   34.3190 O.2   2001  BMP2001    -0.2224
      4  OP3       39.3610   33.5690   36.3050 O.3   2001  BMP2001    -0.1145
      5  O5'       38.9930   36.0960   35.9780 O.3   2001  BMP2001    -0.2675
      6  C5'       39.9270   36.7430   36.8350 C.3   2001  BMP2001     0.1859
      7  C4'       39.2490   37.9700   37.4020 C.3   2001  BMP2001     0.1801
      8  O4'       40.1870   38.6590   38.2380 O.3   2001  BMP2001    -0.3319
      9  C3'       38.6750   39.0070   36.4590 C.3   2001  BMP2001     0.2158
     10  O3'       37.5090   39.6570   36.9960 O.3   2001  BMP2001    -0.2175
     11  C2'       39.8350   39.9980   36.3380 C.3   2001  BMP2001     0.2320
     12  O2'       39.4210   41.3320   35.9880 O.3   2001  BMP2001    -0.2157
     13  C1'       40.5140   39.9040   37.7060 C.3   2001  BMP2001     0.2425
     14  N1        41.9530   40.1890   37.8410 N.am  2001  BMP2001    -0.1473
     15  C2        42.8650   39.4910   37.0300 C.1   2001  BMP2001     0.2863
     16  O2        42.4720   38.6550   36.2370 O.2   2001  BMP2001    -0.1918
     17  N3        44.1790   39.8180   37.2130 N.2   2001  BMP2001    -0.2489
     18  C4        44.6910   40.7540   38.1110 C.1   2001  BMP2001     0.2018
     19  O4        45.8960   40.9160   38.1400 O.2   2001  BMP2001    -0.2129
     20  C5        43.6980   41.4160   38.9130 C.3   2001  BMP2001     0.2213
     21  C6        42.3960   41.1410   38.7790 C.2   2001  BMP2001     0.2591
     22  O1        41.5150   41.7000   39.4770 O.2   2001  BMP2001    -0.2725
@<TRIPOS>BOND
     1     3     1    2
     2     2     1    1
     3     1     5    1
     4     1     4    1
     5     5     6    1
     6    12    11    1
     7    16    15    2
     8    11     9    1
     9    11    13    1
    10     9    10    1
    11     9     7    1
    12     6     7    1
    13    15    17    2
    14    15    14   am
    15    17    18    2
    16     7     8    1
    17    13    14    1
    18    13     8    1
    19    14    21   am
    20    18    19    2
    21    18    20    1
    22    21    20    1
    23    21    22    2
