@<TRIPOS>MOLECULE
1los_UP6_A_1.pdb
 21 22 0 0 0
SMALL
GASTEIGER

@<TRIPOS>ATOM
      1  N1        28.9370   45.5270   25.5640 N.am  5001  UP65001    -0.0968
      2  C2        27.7270   45.5850   24.8240 C.1   5001  UP65001     0.3005
      3  N3        26.8010   44.6130   25.1510 N.2   5001  UP65001    -0.2426
      4  C4        26.9500   43.5940   26.1300 C.1   5001  UP65001     0.2380
      5  C5        28.2100   43.6220   26.8270 C.2   5001  UP65001     0.2253
      6  N6        29.1210   44.5470   26.5320 N.2   5001  UP65001    -0.1496
      7  O2        27.5470   46.4360   23.9770 O.2   5001  UP65001    -0.1905
      8  O4        26.0420   42.8110   26.2990 O.2   5001  UP65001    -0.2069
      9  C1'       30.0180   46.4930   25.3460 C.3   5001  UP65001     0.2577
     10  C2'       30.6340   46.6540   23.9600 C.3   5001  UP65001     0.2334
     11  C3'       31.1530   48.0940   23.9730 C.3   5001  UP65001     0.2159
     12  C4'       30.1100   48.7720   24.8460 C.3   5001  UP65001     0.1801
     13  O2'       31.6320   45.6680   23.6470 O.3   5001  UP65001    -0.2157
     14  O3'       32.4980   48.1710   24.4760 O.3   5001  UP65001    -0.2175
     15  O4'       29.6700   47.7800   25.7900 O.3   5001  UP65001    -0.3309
     16  C5'       28.8720   49.3630   24.1540 C.3   5001  UP65001     0.1859
     17  O5'       29.3230   50.3020   23.1460 O.3   5001  UP65001    -0.2675
     18  P         28.3670   50.9930   22.0520 P.3   5001  UP65001     0.5327
     19  O1P       27.6020   50.0680   21.1340 O.2   5001  UP65001    -0.2224
     20  O2P       29.2160   51.8420   21.1710 O.3   5001  UP65001    -0.1145
     21  O3P       27.4900   52.0630   22.9590 O.3   5001  UP65001    -0.1145
@<TRIPOS>BOND
     1    19    18    2
     2    20    18    1
     3    18    21    1
     4    18    17    1
     5    17    16    1
     6    13    10    1
     7    10    11    1
     8    10     9    1
     9    11    14    1
    10    11    12    1
    11     7     2    2
    12    16    12    1
    13     2     3    2
    14     2     1   am
    15    12    15    1
    16     3     4    2
    17     9     1    1
    18     9    15    1
    19     1     6    1
    20     4     8    2
    21     4     5    1
    22     6     5    2
