@<TRIPOS>MOLECULE
1lot_ATP_B_1.pdb
 31 33 0 0 0
SMALL
GASTEIGER

@<TRIPOS>ATOM
      1  PG        34.6120   -7.0780  154.0860 P.3   500  ATP500      0.5373
      2  O1G       33.9220   -7.0140  152.7380 O.2   500  ATP500     -0.2221
      3  O2G       36.1160   -7.1390  154.0510 O.3   500  ATP500     -0.1143
      4  O3G       34.1550   -5.9360  154.9370 O.3   500  ATP500     -0.1143
      5  PB        34.8820   -9.2660  156.0310 P.3   500  ATP500      0.2277
      6  O1B       33.9980  -10.0740  156.8000 O.3   500  ATP500     -0.4368
      7  O2B       36.2320   -8.9890  156.4540 O.2   500  ATP500     -0.5168
      8  O3B       34.1760   -8.4040  154.9090 O.3   500  ATP500     -0.2258
      9  PA        36.4050  -11.6060  154.9260 P.3   500  ATP500      0.2189
     10  O1A       36.6810  -12.7120  155.8120 O.3   500  ATP500     -0.4371
     11  O2A       37.3370  -11.2610  153.8670 O.2   500  ATP500     -0.5170
     12  O3A       35.1260  -10.6920  155.1970 O.3   500  ATP500     -0.2700
     13  O5'       35.5190  -12.6150  154.2560 O.3   500  ATP500     -0.3112
     14  C5'       34.6740  -13.0800  153.4160 C.3   500  ATP500      0.1813
     15  C4'       34.1820  -13.3420  152.0580 C.3   500  ATP500      0.1821
     16  O4'       35.0830  -14.2130  151.3310 O.3   500  ATP500     -0.3135
     17  C3'       32.8820  -13.9960  152.4100 C.3   500  ATP500      0.2184
     18  O3'       31.7450  -13.3420  151.8510 O.3   500  ATP500     -0.2174
     19  C2'       33.0730  -15.4530  151.9520 C.3   500  ATP500      0.2570
     20  O2'       31.9640  -15.8940  151.2050 O.3   500  ATP500     -0.2130
     21  C1'       34.3880  -15.4820  151.1210 C.3   500  ATP500      0.3186
     22  N9        35.2760  -16.6430  151.3160 N.pl3 500  ATP500     -0.1439
     23  C8        35.8420  -17.2300  152.4600 C.3   500  ATP500      0.3377
     24  N7        36.5770  -18.2720  152.2000 N.2   500  ATP500     -0.2095
     25  C5        36.4860  -18.3720  150.8070 C.2   500  ATP500      0.2526
     26  C6        37.0430  -19.2980  149.8310 C.2   500  ATP500      0.4393
     27  N6        37.8200  -20.3100  150.1850 N.pl3 500  ATP500      0.2180
     28  N1        36.7430  -19.1060  148.4810 N.2   500  ATP500      0.0021
     29  C2        35.9420  -18.0740  148.0920 C.3   500  ATP500      0.5254
     30  N3        35.3650  -17.1540  148.9040 N.2   500  ATP500     -0.0055
     31  C4        35.6960  -17.3810  150.2790 C.2   500  ATP500      0.3518
@<TRIPOS>BOND
     1    29    28    1
     2    29    30    1
     3    28    26    2
     4    30    31    2
     5    26    27    1
     6    26    25    1
     7    31    25    1
     8    31    22    1
     9    25    24    2
    10    21    22    1
    11    21    16    1
    12    21    19    1
    13    20    19    1
    14    22    23    1
    15    16    15    1
    16    18    17    1
    17    19    17    1
    18    15    17    1
    19    15    14    1
    20    24    23    1
    21     2     1    2
    22    14    13    1
    23    11     9    2
    24     3     1    1
    25     1     8    1
    26     1     4    1
    27    13     9    1
    28     8     5    1
    29     9    12    1
    30     9    10    1
    31    12     5    1
    32     5     7    2
    33     5     6    1
