@<TRIPOS>MOLECULE
1lov_3GP_A_1.pdb
 24 26 0 0 0
SMALL
GASTEIGER

@<TRIPOS>ATOM
      1  P          8.8530   -0.5210   10.9800 P.3   106  3GP106      0.5327
      2  O1P        8.2930   -0.8790   12.2900 O.3   106  3GP106     -0.1145
      3  O2P        7.8610   -0.2110    9.9310 O.2   106  3GP106     -0.2224
      4  O3P        9.9150   -1.4600   10.5560 O.3   106  3GP106     -0.1145
      5  O5'       13.5680    1.3280    9.8600 O.3   106  3GP106     -0.2176
      6  C5'       12.9710    1.5390   11.1610 C.3   106  3GP106      0.2141
      7  C4'       11.5870    2.2480   11.1250 C.3   106  3GP106      0.1802
      8  O4'       11.7100    3.4910   10.4270 O.3   106  3GP106     -0.3326
      9  C3'       10.5430    1.4280   10.3660 C.3   106  3GP106      0.1903
     10  O3'        9.6320    0.8510   11.3220 O.3   106  3GP106     -0.2674
     11  C2'        9.8760    2.3930    9.4120 C.3   106  3GP106      0.2283
     12  O2'        8.4410    2.4350    9.5650 O.3   106  3GP106     -0.2159
     13  C1'       10.5060    3.7590    9.7220 C.3   106  3GP106      0.2292
     14  N9        10.8140    4.5120    8.4720 N.pl3 106  3GP106     -0.2354
     15  C8        10.2920    5.7260    8.1440 C.3   106  3GP106      0.2246
     16  N7        10.5710    6.1210    6.9360 N.2   106  3GP106     -0.2322
     17  C5        11.3510    5.0900    6.4150 C.2   106  3GP106      0.2182
     18  C6        11.9150    4.9400    5.1250 C.1   106  3GP106      0.2372
     19  O6        11.7830    5.7170    4.1940 O.2   106  3GP106     -0.2069
     20  N1        12.6080    3.7520    4.9760 N.2   106  3GP106     -0.2485
     21  C2        12.7500    2.8080    5.9580 C.1   106  3GP106      0.2531
     22  N2        13.4430    1.7080    5.6500 N.pl3 106  3GP106     -0.0226
     23  N3        12.2300    2.9350    7.1670 N.2   106  3GP106     -0.3074
     24  C4        11.5320    4.1000    7.3330 C.2   106  3GP106      0.2300
@<TRIPOS>BOND
     1    19    18    2
     2    20    18    2
     3    20    21    2
     4    18    17    1
     5    22    21    1
     6    21    23    2
     7    17    16    2
     8    17    24    1
     9    16    15    1
    10    23    24    2
    11    24    14    1
    12    15    14    1
    13    14    13    1
    14    11    12    1
    15    11    13    1
    16    11     9    1
    17    13     8    1
    18     5     6    1
    19     3     1    2
    20     9     7    1
    21     9    10    1
    22     8     7    1
    23     4     1    1
    24     1    10    1
    25     1     2    1
    26     7     6    1
