@<TRIPOS>MOLECULE
1low_3GP_A_1.pdb
 24 26 0 0 0
SMALL
GASTEIGER

@<TRIPOS>ATOM
      1  P         20.1830   20.9810   12.1950 P.3   106  3GP106      0.5327
      2  O1P       19.7510   22.3960   12.2820 O.2   106  3GP106     -0.2224
      3  O2P       19.0880   20.0100   12.4430 O.3   106  3GP106     -0.1145
      4  O3P       21.4850   20.6900   12.8590 O.3   106  3GP106     -0.1145
      5  O5'       23.9200   18.7220    9.8350 O.3   106  3GP106     -0.2176
      6  C5'       23.4770   20.0400    9.4410 C.3   106  3GP106      0.2141
      7  C4'       22.0260   20.0530    8.9130 C.3   106  3GP106      0.1802
      8  O4'       21.8950   19.1200    7.8470 O.3   106  3GP106     -0.3326
      9  C3'       21.0460   19.6220   10.0010 C.3   106  3GP106      0.1903
     10  O3'       20.5530   20.8150   10.6260 O.3   106  3GP106     -0.2674
     11  C2'       19.9790   18.8030    9.2810 C.3   106  3GP106      0.2283
     12  O2'       18.7070   19.4520    9.1660 O.3   106  3GP106     -0.2159
     13  C1'       20.5480   18.6150    7.8540 C.3   106  3GP106      0.2292
     14  N9        20.5480   17.1660    7.4210 N.pl3 106  3GP106     -0.2354
     15  C8        19.9020   16.6630    6.3200 C.3   106  3GP106      0.2246
     16  N7        19.9960   15.3650    6.1810 N.2   106  3GP106     -0.2322
     17  C5        20.7640   14.9660    7.2690 C.2   106  3GP106      0.2182
     18  C6        21.1750   13.6760    7.6470 C.1   106  3GP106      0.2372
     19  O6        20.9230   12.6520    7.0250 O.2   106  3GP106     -0.2069
     20  N1        21.9110   13.6590    8.7920 N.2   106  3GP106     -0.2485
     21  C2        22.2430   14.7810    9.5260 C.1   106  3GP106      0.2531
     22  N2        22.9790   14.5970   10.6200 N.pl3 106  3GP106     -0.0226
     23  N3        21.8620   16.0140    9.1780 N.2   106  3GP106     -0.3074
     24  C4        21.1220   16.0380    8.0410 C.2   106  3GP106      0.2300
@<TRIPOS>BOND
     1    16    15    1
     2    16    17    2
     3    15    14    1
     4    19    18    2
     5    17    18    1
     6    17    24    1
     7    14    13    1
     8    14    24    1
     9    18    20    2
    10     8    13    1
    11     8     7    1
    12    13    11    1
    13    24    23    2
    14    20    21    2
    15     7     6    1
    16     7     9    1
    17    12    11    1
    18    23    21    2
    19    11     9    1
    20     6     5    1
    21    21    22    1
    22     9    10    1
    23    10     1    1
    24     1     2    2
    25     1     3    1
    26     1     4    1
