@<TRIPOS>MOLECULE
1lox_RS7_A_1.pdb
 19 19 0 0 0
SMALL
GASTEIGER

@<TRIPOS>ATOM
      1  C1       -28.2720  148.8510   55.7670 C.2   841  RS7841      0.3880
      2  O19      -27.0700  149.1660   55.6110 O.co2 841  RS7841     -0.2405
      3  O18      -28.6420  147.6640   55.6810 O.co2 841  RS7841     -0.2405
      4  C2       -29.2890  149.8560   56.0700 C.2   841  RS7841      0.0862
      5  C3       -29.0240  151.2110   56.2310 C.2   841  RS7841      0.0074
      6  C4       -30.0100  152.0900   56.6730 C.ar  841  RS7841      0.0079
      7  C5       -31.3490  151.7020   56.5830 C.ar  841  RS7841      0.0006
      8  C6       -32.3620  152.4400   57.2150 C.ar  841  RS7841      0.0000
      9  C7       -32.0480  153.5860   57.9550 C.ar  841  RS7841      0.0006
     10  C8       -30.7210  154.0030   58.0660 C.ar  841  RS7841      0.0082
     11  C9       -29.7040  153.2740   57.4400 C.ar  841  RS7841      0.0416
     12  C10      -28.3750  153.6140   57.7750 C.1   841  RS7841     -0.0644
     13  C11      -27.0220  153.8520   58.0880 C.1   841  RS7841     -0.0864
     14  C12      -25.5530  153.9750   58.4200 C.3   841  RS7841      0.0764
     15  C13      -25.0390  152.6490   58.9670 C.3   841  RS7841      0.0140
     16  C14      -24.9570  151.5670   57.9010 C.3   841  RS7841      0.0010
     17  C15      -23.8630  151.8470   56.8870 C.3   841  RS7841      0.0000
     18  C16      -23.9060  150.8290   55.7600 C.3   841  RS7841      0.0000
     19  C17      -22.7690  151.0690   54.8000 C.3   841  RS7841      0.0000
@<TRIPOS>BOND
     1    19    18    1
     2     2     1   ar
     3     3     1   ar
     4    18    17    1
     5     1     4    1
     6     4     5    2
     7     5     6    1
     8     7     6   ar
     9     7     8   ar
    10     6    11   ar
    11    17    16    1
    12     8     9   ar
    13    11    12    1
    14    11    10   ar
    15    12    13    3
    16    16    15    1
    17     9    10   ar
    18    13    14    1
    19    14    15    1
