@<TRIPOS>MOLECULE
1loy_3GP_A_1.pdb
 24 26 0 0 0
SMALL
GASTEIGER

@<TRIPOS>ATOM
      1  P         20.2890   20.6600   12.0070 P.3   106  3GP106      0.5327
      2  O1P       19.8950   22.0690   12.2000 O.2   106  3GP106     -0.2224
      3  O2P       19.2430   19.6920   12.4180 O.3   106  3GP106     -0.1145
      4  O3P       21.6760   20.3370   12.4330 O.3   106  3GP106     -0.1145
      5  O5'       24.3800   19.2760    8.6050 O.3   106  3GP106     -0.2176
      6  C5'       23.2480   19.1850    9.4800 C.3   106  3GP106      0.2141
      7  C4'       21.9370   19.6490    8.8240 C.3   106  3GP106      0.1802
      8  O4'       21.7260   18.9120    7.6160 O.3   106  3GP106     -0.3326
      9  C3'       20.7480   19.3230    9.7290 C.3   106  3GP106      0.1903
     10  O3'       20.3510   20.5270   10.4000 O.3   106  3GP106     -0.2674
     11  C2'       19.6310   18.7280    8.8430 C.3   106  3GP106      0.2283
     12  O2'       18.5650   19.6350    8.5190 O.3   106  3GP106     -0.2159
     13  C1'       20.3710   18.4530    7.5250 C.3   106  3GP106      0.2292
     14  N9        20.4060   17.0030    7.1480 N.pl3 106  3GP106     -0.2354
     15  C8        19.8330   16.4690    6.0160 C.3   106  3GP106      0.2246
     16  N7        19.9470   15.1780    5.9210 N.2   106  3GP106     -0.2322
     17  C5        20.6500   14.8210    7.0720 C.2   106  3GP106      0.2182
     18  C6        21.0560   13.5610    7.5360 C.1   106  3GP106      0.2372
     19  O6        20.8460   12.5050    6.9830 O.2   106  3GP106     -0.2069
     20  N1        21.7300   13.6050    8.7370 N.2   106  3GP106     -0.2485
     21  C2        22.0030   14.7420    9.4390 C.1   106  3GP106      0.2531
     22  N2        22.6790   14.6100   10.5820 N.pl3 106  3GP106     -0.0226
     23  N3        21.6190   15.9400    9.0100 N.2   106  3GP106     -0.3074
     24  C4        20.9470   15.9100    7.8270 C.2   106  3GP106      0.2300
@<TRIPOS>BOND
     1    16    15    1
     2    16    17    2
     3    15    14    1
     4    19    18    2
     5    17    18    1
     6    17    24    1
     7    14    13    1
     8    14    24    1
     9    13     8    1
    10    13    11    1
    11    18    20    2
    12     8     7    1
    13    24    23    2
    14    12    11    1
    15     5     6    1
    16    20    21    2
    17     7     6    1
    18     7     9    1
    19    11     9    1
    20    23    21    2
    21    21    22    1
    22     9    10    1
    23    10     1    1
    24     1     2    2
    25     1     3    1
    26     1     4    1
