@<TRIPOS>MOLECULE
1lp4_ANP_A_1.pdb
 31 33 0 0 0
SMALL
GASTEIGER

@<TRIPOS>ATOM
      1  PG        26.5350   -0.5290   15.9430 P.3   340  ANP340      0.4884
      2  O1G       25.0670   -0.6390   16.0350 O.3   340  ANP340     -0.1240
      3  O2G       27.1480   -1.6110   16.7990 O.3   340  ANP340     -0.1240
      4  O3G       26.9250   -0.3920   14.5220 O.2   340  ANP340     -0.2331
      5  PB        27.5260    2.3410   16.0260 P.3   340  ANP340      0.4669
      6  O1B       29.0150    2.4140   16.3590 O.3   340  ANP340     -0.1253
      7  O2B       27.2020    2.5300   14.5850 O.2   340  ANP340     -0.2351
      8  N3B       26.8720    0.9720   16.7520 N.3   340  ANP340     -0.0163
      9  PA        25.4000    4.1900   16.7530 P.3   340  ANP340      0.2220
     10  O1A       25.3030    5.2350   15.7220 O.2   340  ANP340     -0.5170
     11  O2A       24.4220    3.1260   16.5590 O.3   340  ANP340     -0.4370
     12  O3A       26.9070    3.5700   16.8820 O.3   340  ANP340     -0.2360
     13  O5'       25.1460    4.6550   18.2770 O.3   340  ANP340     -0.3111
     14  C5'       25.2850    3.7330   19.3530 C.3   340  ANP340      0.1813
     15  C4'       24.2740    4.1170   20.3970 C.3   340  ANP340      0.1821
     16  O4'       24.3750    5.5180   20.7230 O.3   340  ANP340     -0.3135
     17  C3'       22.8730    3.8830   19.8630 C.3   340  ANP340      0.2184
     18  O3'       22.4730    2.5070   19.9190 O.3   340  ANP340     -0.2174
     19  C2'       22.0930    4.8360   20.7460 C.3   340  ANP340      0.2570
     20  O2'       21.7650    4.1990   21.9640 O.3   340  ANP340     -0.2130
     21  C1'       23.0590    5.9680   21.0020 C.3   340  ANP340      0.3186
     22  N9        22.6980    7.0650   20.0530 N.pl3 340  ANP340     -0.1439
     23  C8        23.2260    7.1500   18.8260 C.3   340  ANP340      0.3377
     24  N7        22.7070    8.1790   18.1610 N.2   340  ANP340     -0.2095
     25  C5        21.8080    8.7570   18.9530 C.2   340  ANP340      0.2526
     26  C6        20.9540    9.9340   18.8640 C.2   340  ANP340      0.4393
     27  N6        20.9200   10.6650   17.7420 N.pl3 340  ANP340      0.2180
     28  N1        20.1840   10.2550   19.9120 N.2   340  ANP340      0.0021
     29  C2        20.1980    9.5490   21.0440 C.3   340  ANP340      0.5254
     30  N3        21.0010    8.5050   21.2010 N.2   340  ANP340     -0.0055
     31  C4        21.8020    8.0390   20.2250 C.2   340  ANP340      0.3518
@<TRIPOS>BOND
     1     4     1    2
     2     7     5    2
     3    10     9    2
     4     1     2    1
     5     1     8    1
     6     1     3    1
     7     5     6    1
     8     5     8    1
     9     5    12    1
    10    11     9    1
    11     9    12    1
    12     9    13    1
    13    27    26    1
    14    24    23    1
    15    24    25    2
    16    13    14    1
    17    23    22    1
    18    26    25    1
    19    26    28    2
    20    25    31    1
    21    14    15    1
    22    17    18    1
    23    17    15    1
    24    17    19    1
    25    28    29    1
    26    22    31    1
    27    22    21    1
    28    31    30    2
    29    15    16    1
    30    16    21    1
    31    19    21    1
    32    19    20    1
    33    29    30    1
