@<TRIPOS>MOLECULE
1lp6_C5P_A_1.pdb
 21 22 0 0 0
SMALL
GASTEIGER

@<TRIPOS>ATOM
      1  O3P        1.5880   36.2280   43.9150 O.3   2001  C5P2001    -0.1145
      2  P          2.8520   36.8400   44.3660 P.3   2001  C5P2001     0.5327
      3  O1P        3.7990   36.0010   45.1450 O.3   2001  C5P2001    -0.1145
      4  O2P        3.5280   37.4170   43.1150 O.2   2001  C5P2001    -0.2224
      5  O5'        2.4820   38.1230   45.2350 O.3   2001  C5P2001    -0.2675
      6  C5'        1.8360   37.9450   46.5150 C.3   2001  C5P2001     0.1859
      7  C4'        1.5570   39.2840   47.1180 C.3   2001  C5P2001     0.1801
      8  O4'        2.6980   40.1650   46.9640 O.3   2001  C5P2001    -0.3320
      9  C3'        0.3590   40.0080   46.5350 C.3   2001  C5P2001     0.2158
     10  O3'       -0.8410   39.5570   47.0880 O.3   2001  C5P2001    -0.2175
     11  C2'        0.6510   41.4670   46.8170 C.3   2001  C5P2001     0.2319
     12  O2'        0.0600   41.9380   48.0040 O.3   2001  C5P2001    -0.2157
     13  C1'        2.1970   41.5200   46.8260 C.3   2001  C5P2001     0.2400
     14  N1         2.7010   42.2080   45.6560 N.am  2001  C5P2001    -0.1778
     15  C2         3.2120   43.5470   45.8250 C.1   2001  C5P2001     0.2756
     16  N3         3.7010   44.2630   44.7740 N.2   2001  C5P2001    -0.3024
     17  C4         3.7370   43.7490   43.4920 C.2   2001  C5P2001     0.2346
     18  C5         3.2560   42.4660   43.3030 C.2   2001  C5P2001     0.0687
     19  C6         2.7610   41.6970   44.2750 C.2   2001  C5P2001     0.0836
     20  O2         3.2050   44.1100   47.0550 O.2   2001  C5P2001    -0.1925
     21  N4         4.2290   44.5080   42.4840 N.pl3 2001  C5P2001    -0.0921
@<TRIPOS>BOND
     1    21    17    1
     2     4     2    2
     3    18    17    1
     4    18    19    2
     5    17    16    2
     6     1     2    1
     7    19    14    1
     8     2     3    1
     9     2     5    1
    10    16    15    2
    11     5     6    1
    12    14    15   am
    13    14    13    1
    14    15    20    2
    15     6     7    1
    16     9    11    1
    17     9    10    1
    18     9     7    1
    19    11    13    1
    20    11    12    1
    21    13     8    1
    22     8     7    1
