@<TRIPOS>MOLECULE
1lpb_MUP_B_1.pdb
 15 14 0 0 0
SMALL
GASTEIGER

@<TRIPOS>ATOM
      1  C1         8.6740   26.2900   52.6820 C.3   901  MUP901      0.0809
      2  C2         7.2270   26.0630   53.1390 C.3   901  MUP901      0.0095
      3  C3         7.1220   25.1220   54.3130 C.3   901  MUP901      0.0005
      4  C4         7.8710   23.8540   54.0590 C.3   901  MUP901      0.0000
      5  C5         8.1200   23.1420   55.3520 C.3   901  MUP901      0.0000
      6  C6         8.4760   21.7010   55.0860 C.3   901  MUP901      0.0000
      7  C7         9.9300   21.4020   55.3410 C.3   901  MUP901      0.0000
      8  C8        10.0800   20.3720   56.4640 C.3   901  MUP901      0.0000
      9  C9        10.1520   18.9500   55.9300 C.3   901  MUP901      0.0000
     10  C10        8.7600   18.3410   55.7930 C.3   901  MUP901      0.0000
     11  C11        8.4200   17.9400   54.3630 C.3   901  MUP901      0.0000
     12  CM         9.7450   26.3330   48.7830 C.3   901  MUP901      0.1810
     13  O1P       10.2630   27.9450   51.3520 O.3   901  MUP901     -0.1774
     14  O2P        9.1700   26.0390   50.0920 O.3   901  MUP901     -0.3146
     15  P          8.8810   27.1630   51.2940 P.3   901  MUP901      0.2201
@<TRIPOS>BOND
     1    12    14    1
     2    14    15    1
     3    15    13    1
     4    15     1    1
     5     1     2    1
     6     2     3    1
     7     4     3    1
     8     4     5    1
     9    11    10    1
    10     6     7    1
    11     6     5    1
    12     7     8    1
    13    10     9    1
    14     9     8    1
