@<TRIPOS>MOLECULE
1lpc_CMP_A_1.pdb
 22 25 0 0 0
SMALL
GASTEIGER

@<TRIPOS>ATOM
      1  P         72.3280  -13.7040   -2.7210 P.3   901  CMP901      0.2141
      2  O1P       72.5110  -14.9710   -1.8840 O.3   901  CMP901     -0.4373
      3  O2P       72.7770  -12.4650   -1.9370 O.2   901  CMP901     -0.5172
      4  O5'       73.1950  -13.8320   -4.1270 O.3   901  CMP901     -0.3114
      5  C5'       72.6210  -14.2090   -5.4270 C.3   901  CMP901      0.1812
      6  C4'       71.1680  -13.7020   -5.5530 C.3   901  CMP901      0.1793
      7  O4'       70.4370  -14.1560   -6.7010 O.3   901  CMP901     -0.3136
      8  C3'       70.3490  -14.2140   -4.3620 C.3   901  CMP901      0.1884
      9  O3'       70.7570  -13.5560   -3.1380 O.3   901  CMP901     -0.3111
     10  C2'       68.9220  -13.9710   -4.8120 C.3   901  CMP901      0.2541
     11  O2'       68.4640  -12.7240   -4.3030 O.3   901  CMP901     -0.2131
     12  C1'       69.0400  -13.9780   -6.3660 C.3   901  CMP901      0.3185
     13  N9        68.2580  -15.1070   -6.9290 N.pl3 901  CMP901     -0.1439
     14  C8        68.6550  -16.3720   -7.3430 C.3   901  CMP901      0.3377
     15  N7        67.7540  -17.2980   -7.8270 N.2   901  CMP901     -0.2095
     16  C5        66.6130  -16.5130   -7.7060 C.2   901  CMP901      0.2526
     17  C6        65.2310  -16.8100   -8.0160 C.2   901  CMP901      0.4393
     18  N6        64.8530  -17.9850   -8.4990 N.pl3 901  CMP901      0.2180
     19  N1        64.2890  -15.9000   -7.8210 N.2   901  CMP901      0.0021
     20  C2        64.6040  -14.7110   -7.3370 C.3   901  CMP901      0.5254
     21  N3        65.7820  -14.2530   -6.9920 N.2   901  CMP901     -0.0055
     22  C4        66.8990  -15.1850   -7.1700 C.2   901  CMP901      0.3518
@<TRIPOS>BOND
     1    18    17    1
     2    17    19    2
     3    17    16    1
     4    15    16    2
     5    15    14    1
     6    19    20    1
     7    16    22    1
     8    14    13    1
     9    20    21    1
    10    22    21    2
    11    22    13    1
    12    13    12    1
    13     7    12    1
    14     7     6    1
    15    12    10    1
    16     6     5    1
    17     6     8    1
    18     5     4    1
    19    10     8    1
    20    10    11    1
    21     8     9    1
    22     4     1    1
    23     9     1    1
    24     1     3    2
    25     1     2    1
