@<TRIPOS>MOLECULE
1lpd_ADE_A_1.pdb
 10 11 0 0 0
SMALL
GASTEIGER

@<TRIPOS>ATOM
      1  N9        68.2700  -14.9890   -7.1070 N.2   901  ADE901     -0.1914
      2  C8        68.7320  -16.2340   -7.4660 C.3   901  ADE901      0.2618
      3  N7        67.7860  -17.0720   -7.8130 N.2   901  ADE901     -0.2267
      4  C5        66.6200  -16.3320   -7.6730 C.2   901  ADE901      0.2303
      5  C6        65.2670  -16.6500   -7.8900 C.2   901  ADE901      0.4393
      6  N6        64.8450  -17.8450   -8.3090 N.pl3 901  ADE901      0.2185
      7  N1        64.3500  -15.6840   -7.6570 N.2   901  ADE901     -0.0265
      8  C2        64.7750  -14.4840   -7.2340 C.3   901  ADE901      0.4008
      9  N3        66.0160  -14.0640   -6.9950 N.2   901  ADE901     -0.1640
     10  C4        66.9020  -15.0480   -7.2380 C.1   901  ADE901      0.0579
@<TRIPOS>BOND
     1     6     5    1
     2     5     4    1
     3     5     7    2
     4     3     4    2
     5     3     2    1
     6     4    10    1
     7     7     8    1
     8     2     1    1
     9    10     1    2
    10    10     9    2
    11     8     9    1
