@<TRIPOS>MOLECULE
1lpg_IMA_B_1.pdb
 41 45 0 0 0
SMALL
GASTEIGER

@<TRIPOS>ATOM
      1  C11        2.8550   10.4120   24.2780 C.ar  301  IMA301      0.1391
      2  C12        3.6530    9.8170   25.2820 C.ar  301  IMA301      0.0384
      3  C13        4.7520    9.0450   24.9100 C.ar  301  IMA301      0.0203
      4  C14        5.0520    8.8970   23.5340 C.ar  301  IMA301      0.0605
      5  C15        4.2710    9.5300   22.5180 C.ar  301  IMA301      0.0204
      6  C16        3.1590   10.2750   22.9060 C.ar  301  IMA301      0.0384
      7  C17        4.8320    9.2430   21.2590 C.ar  301  IMA301      0.0234
      8  N18        6.0680    8.2080   22.8800 N.ar  301  IMA301     -0.3194
      9  C19        5.9460    8.4160   21.5380 C.ar  301  IMA301      0.1159
     10  C20        7.0020    7.2760   23.5300 C.3   301  IMA301      0.1329
     11  C21        6.7890    7.9000   20.5480 C.2   301  IMA301      0.2810
     12  N22        6.2690    7.6920   19.3480 N.am  301  IMA301     -0.1956
     13  C23        7.2510    7.2910   18.3640 C.3   301  IMA301      0.1418
     14  C24        7.5000    5.7980   18.2260 C.ar  301  IMA301     -0.0005
     15  O27        7.9720    7.6720   20.7820 O.2   301  IMA301     -0.2668
     16  C28        8.1890    7.9280   24.1650 C.ar  301  IMA301      0.0006
     17  C31        9.8130    7.7780   25.9590 C.ar  301  IMA301      0.0972
     18  C32        8.6300    7.3110   25.3360 C.ar  301  IMA301      0.0056
     19  C33        8.8710    9.0460   23.6240 C.ar  301  IMA301     -0.0024
     20  C34       10.0370    9.5370   24.2490 C.ar  301  IMA301     -0.0000
     21  C35       10.5100    8.8920   25.4060 C.ar  301  IMA301      0.0080
     22  C36       10.2440    7.0540   27.1730 C.2   301  IMA301      0.4766
     23  N37        9.2600    6.4140   27.8440 N.pl3 301  IMA301      0.2047
     24  N38       11.5270    7.0460   27.5550 N.pl3 301  IMA301      0.2047
     25  C39        8.6730    3.7670   18.8340 C.ar  301  IMA301      0.0129
     26  C40        8.1110    3.0840   17.7320 C.ar  301  IMA301      0.0343
     27  C41        7.2000    3.7750   16.9070 C.ar  301  IMA301      0.0129
     28  C42        6.8820    5.1260   17.1570 C.ar  301  IMA301     -0.0013
     29  C43        8.3680    5.1190   19.0860 C.ar  301  IMA301     -0.0013
     30  N44        8.4350    1.7110   17.4010 N.pl3 301  IMA301     -0.3512
     31  C45        9.2820    1.7390   16.2070 C.3   301  IMA301      0.0960
     32  C49        7.2210    0.9230   17.1210 C.3   301  IMA301      0.0960
     33  C53        9.1540    0.8600   18.3650 C.3   301  IMA301      0.0960
     34  O1         1.7490   11.1230   24.7030 O.3   301  IMA301     -0.4706
     35  C1         0.9430   11.7990   23.7470 C.3   301  IMA301      0.2320
     36  C2        -0.0120   12.5760   24.5990 C.ar  301  IMA301      0.0212
     37  C3        -1.1420   13.1320   23.9890 C.ar  301  IMA301     -0.0007
     38  C4        -2.0870   13.8120   24.7850 C.ar  301  IMA301     -0.0002
     39  C5        -1.8730   13.9250   26.1750 C.ar  301  IMA301     -0.0000
     40  C6        -0.7240   13.3910   26.7840 C.ar  301  IMA301     -0.0002
     41  C7         0.2150   12.7180   25.9910 C.ar  301  IMA301     -0.0007
@<TRIPOS>BOND
     1    31    30    1
     2    27    28   ar
     3    27    26   ar
     4    32    30    1
     5    28    14   ar
     6    30    26    1
     7    30    33    1
     8    26    25   ar
     9    14    13    1
    10    14    29   ar
    11    13    12    1
    12    25    29   ar
    13    12    11   am
    14    11    15    2
    15    11     9    1
    16     7     9   ar
    17     7     5   ar
    18     9     8   ar
    19     5     6   ar
    20     5     4   ar
    21     8    10    1
    22     8     4   ar
    23     6     1   ar
    24    10    16    1
    25     4     3   ar
    26    19    16   ar
    27    19    20   ar
    28    35    36    1
    29    35    34    1
    30    37    36   ar
    31    37    38   ar
    32    16    18   ar
    33    20    21   ar
    34     1    34    1
    35     1     2   ar
    36    36    41   ar
    37    38    39   ar
    38     3     2   ar
    39    18    17   ar
    40    21    17   ar
    41    17    22    1
    42    41    40   ar
    43    39    40   ar
    44    22    24    2
    45    22    23    1
