@<TRIPOS>MOLECULE
1lpk_CBB_B_1.pdb
 32 35 0 0 0
SMALL
GASTEIGER

@<TRIPOS>ATOM
      1  C1         3.8210    9.8750   26.1130 C.ar  301  CBB301      0.0015
      2  C2         4.9010    8.9900   25.9320 C.ar  301  CBB301      0.0172
      3  C3         5.3310    8.6980   24.6200 C.ar  301  CBB301      0.0603
      4  C4         4.6690    9.2650   23.4820 C.ar  301  CBB301      0.0175
      5  C5         3.5940   10.1670   23.6850 C.ar  301  CBB301      0.0015
      6  C6         3.1760   10.4780   25.0020 C.ar  301  CBB301      0.0001
      7  N7         6.3460    7.8870   24.1360 N.ar  301  CBB301     -0.3179
      8  C8         6.3380    7.8910   22.7880 C.ar  301  CBB301      0.1369
      9  C9         5.3050    8.7460   22.3310 C.ar  301  CBB301      0.0252
     10  C10        7.2060    7.1050   24.9980 C.3   301  CBB301      0.1329
     11  C11        8.5220    7.7500   25.2980 C.ar  301  CBB301      0.0006
     12  C14        9.1170    8.8700   24.6470 C.ar  301  CBB301     -0.0024
     13  C15       10.3850    9.3330   25.0910 C.ar  301  CBB301     -0.0000
     14  C16       11.0440    8.6820   26.1630 C.ar  301  CBB301      0.0080
     15  C17       10.4030    7.5830   26.7970 C.ar  301  CBB301      0.0972
     16  C18        9.1590    7.1300   26.3490 C.ar  301  CBB301      0.0056
     17  C19       10.9400    6.8680   27.9410 C.2   301  CBB301      0.4766
     18  N20       12.2330    6.9330   28.2540 N.pl3 301  CBB301      0.2047
     19  N21       10.0370    6.1370   28.6400 N.pl3 301  CBB301      0.2047
     20  C31        7.1590    7.1010   21.9870 C.2   301  CBB301      0.3576
     21  O32        6.7100    6.9240   20.7620 O.3   301  CBB301     -0.4394
     22  C33        7.4810    6.1230   19.8210 C.3   301  CBB301      0.2354
     23  C34        7.4760    4.6240   20.1120 C.ar  301  CBB301      0.0215
     24  C37        6.7620    4.0100   21.1760 C.ar  301  CBB301     -0.0007
     25  C38        6.8530    2.6030   21.3750 C.ar  301  CBB301      0.0000
     26  C39        7.6500    1.8160   20.5090 C.ar  301  CBB301      0.0080
     27  C40        8.3510    2.4330   19.4370 C.ar  301  CBB301      0.0973
     28  C41        8.2530    3.8270   19.2440 C.ar  301  CBB301      0.0073
     29  C42        9.2410    1.7160   18.5260 C.2   301  CBB301      0.4766
     30  N43        9.1800    1.9340   17.2200 N.pl3 301  CBB301      0.2047
     31  N44       10.1750    0.9050   19.0140 N.pl3 301  CBB301      0.2047
     32  O49        8.1750    6.5920   22.3530 O.2   301  CBB301     -0.2432
@<TRIPOS>BOND
     1    30    29    2
     2    29    31    1
     3    29    27    1
     4    28    27   ar
     5    28    23   ar
     6    27    26   ar
     7    22    23    1
     8    22    21    1
     9    23    24   ar
    10    26    25   ar
    11    21    20    1
    12    24    25   ar
    13    20    32    2
    14    20     8    1
    15     9     8   ar
    16     9     4   ar
    17     8     7   ar
    18     4     5   ar
    19     4     3   ar
    20     5     6   ar
    21     7     3   ar
    22     7    10    1
    23     3     2   ar
    24    12    13   ar
    25    12    11   ar
    26    10    11    1
    27     6     1   ar
    28    13    14   ar
    29    11    16   ar
    30     2     1   ar
    31    14    15   ar
    32    16    15   ar
    33    15    17    1
    34    17    18    2
    35    17    19    1
