@<TRIPOS>MOLECULE
1lpm_MPA_A_1.pdb
 19 19 0 0 0
SMALL
GASTEIGER

@<TRIPOS>ATOM
      1  C1        65.7980   55.0430  -16.0260 C.3   560  MPA560      0.0812
      2  C2        65.6270   55.9590  -17.2550 C.3   560  MPA560      0.0142
      3  C3        64.5710   57.1240  -17.0480 C.3   560  MPA560      0.0262
      4  C4        63.9220   57.7870  -18.3720 C.2   560  MPA560     -0.0307
      5  C5        62.9130   58.9950  -18.2580 C.2   560  MPA560     -0.0304
      6  C6        62.6230   59.7300  -19.5530 C.3   560  MPA560      0.0303
      7  C7        67.9730   52.6050  -13.9430 C.3   560  MPA560      0.1212
      8  C8        68.7430   51.4330  -14.4300 C.3   560  MPA560      0.0300
      9  C9        69.8100   51.0570  -13.3890 C.3   560  MPA560      0.0024
     10  C10       69.1880   50.8840  -11.9650 C.3   560  MPA560      0.0002
     11  C11       68.2390   52.0100  -11.4950 C.3   560  MPA560      0.0024
     12  C12       67.2880   52.4420  -12.5710 C.3   560  MPA560      0.0276
     13  C13       70.5170   49.7960  -13.8910 C.3   560  MPA560      0.0001
     14  C14       66.5400   53.8050  -12.3290 C.3   560  MPA560      0.0023
     15  C15       65.7850   53.8870  -11.0130 C.3   560  MPA560      0.0001
     16  C16       67.4520   55.0430  -12.5470 C.3   560  MPA560      0.0001
     17  O1        66.9250   52.8920  -14.8620 O.3   560  MPA560     -0.3199
     18  O2        68.4370   54.2610  -16.4960 O.3   560  MPA560     -0.1774
     19  P1        67.1200   53.7900  -16.1920 P.3   560  MPA560      0.2200
@<TRIPOS>BOND
     1     6     5    1
     2     4     5    2
     3     4     3    1
     4     2     3    1
     5     2     1    1
     6    18    19    1
     7    19     1    1
     8    19    17    1
     9    17     7    1
    10     8     7    1
    11     8     9    1
    12     7    12    1
    13    13     9    1
    14     9    10    1
    15    12    14    1
    16    12    11    1
    17    16    14    1
    18    14    15    1
    19    10    11    1
