@<TRIPOS>MOLECULE
1lpn_DSC_A_1.pdb
 15 14 0 0 0
SMALL
GASTEIGER

@<TRIPOS>ATOM
      1  S         66.2630   53.6450  -16.2480 S.3   560  DSC560     -0.0184
      2  O1S       66.0600   52.8540  -15.0860 O.3   560  DSC560     -0.0782
      3  O2S       67.5710   54.1420  -16.4890 O.3   560  DSC560     -0.0782
      4  C1        65.0350   54.9760  -16.2540 C.3   560  DSC560      0.1479
      5  C2        65.1340   55.8980  -17.4590 C.3   560  DSC560      0.0250
      6  C3        64.1450   57.0380  -17.2930 C.3   560  DSC560      0.0018
      7  C4        63.7930   57.6620  -18.6020 C.3   560  DSC560      0.0001
      8  C5        62.7820   58.7500  -18.4010 C.3   560  DSC560      0.0000
      9  C6        62.4990   59.4550  -19.6900 C.3   560  DSC560      0.0000
     10  C7        61.4260   60.4860  -19.4860 C.3   560  DSC560      0.0000
     11  C8        60.0960   59.8560  -19.1700 C.3   560  DSC560      0.0000
     12  C9        59.0210   60.9170  -19.2200 C.3   560  DSC560      0.0000
     13  C10       57.6550   60.3360  -18.9500 C.3   560  DSC560      0.0000
     14  C11       57.4110   60.1690  -17.4840 C.3   560  DSC560      0.0000
     15  C12       57.1660   61.5480  -16.8900 C.3   560  DSC560      0.0000
@<TRIPOS>BOND
     1     9    10    1
     2     9     8    1
     3    10    11    1
     4    12    11    1
     5    12    13    1
     6    13    14    1
     7     7     8    1
     8     7     6    1
     9    14    15    1
    10     5     6    1
    11     5     4    1
    12     3     1    1
    13     4     1    1
    14     1     2    1
