@<TRIPOS>MOLECULE
1lpo_HDS_A_1.pdb
 19 18 0 0 0
SMALL
GASTEIGER

@<TRIPOS>ATOM
      1  C1        65.3870   55.3260  -16.1150 C.3   560  HDS560      0.1479
      2  C2        65.3640   56.1780  -17.3790 C.3   560  HDS560      0.0250
      3  C3        64.2210   57.1900  -17.3020 C.3   560  HDS560      0.0018
      4  C4        64.0160   57.9300  -18.6120 C.3   560  HDS560      0.0001
      5  C5        62.8400   58.8960  -18.5150 C.3   560  HDS560      0.0000
      6  C6        62.6140   59.6210  -19.8280 C.3   560  HDS560      0.0000
      7  C7        61.5190   60.6610  -19.7090 C.3   560  HDS560      0.0000
      8  C8        60.1780   60.0170  -19.4010 C.3   560  HDS560      0.0000
      9  C9        59.0650   61.0600  -19.3600 C.3   560  HDS560      0.0000
     10  C10       57.7150   60.4180  -19.0760 C.3   560  HDS560      0.0000
     11  C11       57.3080   60.5520  -17.6270 C.3   560  HDS560      0.0000
     12  C12       57.2350   62.0210  -17.2360 C.3   560  HDS560      0.0000
     13  C13       56.3690   62.2700  -16.0090 C.3   560  HDS560      0.0000
     14  C14       56.9460   61.6630  -14.7460 C.3   560  HDS560      0.0000
     15  C15       56.3430   62.2970  -13.5060 C.3   560  HDS560      0.0000
     16  C16       54.8690   61.9450  -13.4810 C.3   560  HDS560      0.0000
     17  S1        66.6490   54.0200  -16.1620 S.3   560  HDS560     -0.0184
     18  O1S       67.9370   54.4300  -16.4830 O.3   560  HDS560     -0.0782
     19  O3S       66.5580   53.2530  -15.0290 O.3   560  HDS560     -0.0782
@<TRIPOS>BOND
     1     6     7    1
     2     6     5    1
     3     7     8    1
     4     8     9    1
     5     9    10    1
     6    10    11    1
     7     4     5    1
     8     4     3    1
     9    11    12    1
    10     2     3    1
    11     2     1    1
    12    12    13    1
    13    18    17    1
    14    17     1    1
    15    17    19    1
    16    13    14    1
    17    14    15    1
    18    15    16    1
