@<TRIPOS>MOLECULE
1lpp_HDS_A_1.pdb
 19 18 0 0 0
SMALL
GASTEIGER

@<TRIPOS>ATOM
      1  C1        65.1730   54.9910  -16.0800 C.3   560  HDS560      0.1479
      2  C2        65.2290   55.8690  -17.3320 C.3   560  HDS560      0.0250
      3  C3        64.2170   56.9940  -17.2070 C.3   560  HDS560      0.0018
      4  C4        63.9570   57.6750  -18.5240 C.3   560  HDS560      0.0001
      5  C5        62.9160   58.7680  -18.3750 C.3   560  HDS560      0.0000
      6  C6        62.7220   59.5240  -19.6780 C.3   560  HDS560      0.0000
      7  C7        61.6930   60.6330  -19.5280 C.3   560  HDS560      0.0000
      8  C8        60.2770   60.1070  -19.3410 C.3   560  HDS560      0.0000
      9  C9        59.2900   61.2780  -19.3370 C.3   560  HDS560      0.0000
     10  C10       57.8340   60.8170  -19.2900 C.3   560  HDS560      0.0000
     11  C11       57.3830   60.4120  -17.9070 C.3   560  HDS560      0.0000
     12  C12       57.2430   61.6300  -17.0000 C.3   560  HDS560      0.0000
     13  C13       56.6600   61.2410  -15.6530 C.3   560  HDS560      0.0000
     14  C14       56.4360   62.4480  -14.7490 C.3   560  HDS560      0.0000
     15  C15       55.7890   62.0430  -13.4280 C.3   560  HDS560      0.0000
     16  C16       54.2820   61.8610  -13.6260 C.3   560  HDS560      0.0000
     17  S1        66.3780   53.6350  -16.1960 S.3   560  HDS560     -0.0184
     18  O1S       67.6560   54.1610  -16.4360 O.3   560  HDS560     -0.0782
     19  O3S       66.2520   52.8190  -15.0470 O.3   560  HDS560     -0.0782
@<TRIPOS>BOND
     1     6     7    1
     2     6     5    1
     3     7     8    1
     4     8     9    1
     5     9    10    1
     6    10    11    1
     7     4     5    1
     8     4     3    1
     9    11    12    1
    10     2     3    1
    11     2     1    1
    12    12    13    1
    13    18    17    1
    14    17     1    1
    15    17    19    1
    16    13    14    1
    17    14    15    1
    18    16    15    1
