@<TRIPOS>MOLECULE
1lps_MPC_A_1.pdb
 19 19 0 0 0
SMALL
GASTEIGER

@<TRIPOS>ATOM
      1  C1        65.7710   55.2700  -15.9460 C.3   560  MPC560      0.0855
      2  C2        65.5930   56.0150  -17.2680 C.3   560  MPC560      0.0352
      3  C3        64.4910   57.0950  -17.1300 C.2   560  MPC560     -0.0302
      4  C4        64.0940   57.8510  -18.4480 C.2   560  MPC560     -0.0307
      5  C5        62.9480   58.9190  -18.4410 C.3   560  MPC560      0.0257
      6  C6        62.8490   59.8510  -19.6760 C.3   560  MPC560      0.0050
      7  C7        67.0650   52.1800  -13.9010 C.3   560  MPC560      0.1212
      8  C8        68.4870   51.9290  -14.2810 C.3   560  MPC560      0.0300
      9  C9        68.9290   50.6110  -13.6340 C.3   560  MPC560      0.0024
     10  C10       68.7630   50.6790  -12.0730 C.3   560  MPC560      0.0002
     11  C11       67.4690   51.2390  -11.4710 C.3   560  MPC560      0.0024
     12  C12       66.9350   52.3780  -12.3340 C.3   560  MPC560      0.0276
     13  C13       70.3750   50.2700  -14.1480 C.3   560  MPC560      0.0001
     14  C14       65.4950   52.7950  -11.9900 C.3   560  MPC560      0.0023
     15  C15       65.3360   52.9370  -10.4770 C.3   560  MPC560      0.0001
     16  C16       64.3650   51.9350  -12.6460 C.3   560  MPC560      0.0001
     17  O1        66.5690   53.3690  -14.5210 O.3   560  MPC560     -0.3199
     18  O2        68.3940   54.1490  -16.3590 O.3   560  MPC560     -0.1774
     19  P1        66.9920   53.8930  -16.0330 P.3   560  MPC560      0.2203
@<TRIPOS>BOND
     1     6     5    1
     2     4     5    1
     3     4     3    2
     4     2     3    1
     5     2     1    1
     6    18    19    1
     7    19     1    1
     8    19    17    1
     9    17     7    1
    10     8     7    1
    11     8     9    1
    12    13     9    1
    13     7    12    1
    14     9    10    1
    15    16    14    1
    16    12    14    1
    17    12    11    1
    18    10    11    1
    19    14    15    1
