@<TRIPOS>MOLECULE
1lpz_CMB_B_1.pdb
 32 35 0 0 0
SMALL
GASTEIGER

@<TRIPOS>ATOM
      1  C1         3.9020    9.7100   25.8190 C.ar  301  CMB301      0.0012
      2  C2         5.0190    8.9440   25.4540 C.ar  301  CMB301      0.0172
      3  C3         5.3240    8.7110   24.0820 C.ar  301  CMB301      0.0599
      4  C4         4.5650    9.2430   23.0410 C.ar  301  CMB301      0.0134
      5  C5         3.4020   10.0360   23.4190 C.ar  301  CMB301     -0.0204
      6  C6         3.0890   10.2410   24.7900 C.ar  301  CMB301     -0.0042
      7  N7         6.3100    7.8910   23.5500 N.ar  301  CMB301     -0.3194
      8  C8         6.1790    7.9630   22.1710 C.ar  301  CMB301      0.1159
      9  C9         5.1020    8.8590   21.7940 C.ar  301  CMB301      0.0230
     10  C10        2.5560   10.6660   22.3880 C.3   301  CMB301      0.0311
     11  C11        6.9710    7.2330   21.2470 C.2   301  CMB301      0.2810
     12  N12        6.4300    6.9100   20.0470 N.am  301  CMB301     -0.1956
     13  C13        7.2180    6.1500   19.0760 C.3   301  CMB301      0.1419
     14  C14        7.5250    4.6930   19.4150 C.ar  301  CMB301      0.0011
     15  C17        7.1730    7.0070   24.3450 C.3   301  CMB301      0.1329
     16  C18        8.4660    7.6430   24.7880 C.ar  301  CMB301      0.0006
     17  C21        9.1520    8.6530   24.0800 C.ar  301  CMB301     -0.0024
     18  C22       10.4430    9.0430   24.4850 C.ar  301  CMB301     -0.0000
     19  C23       11.0080    8.4270   25.6190 C.ar  301  CMB301      0.0080
     20  C24       10.2730    7.4690   26.3560 C.ar  301  CMB301      0.0972
     21  C25        9.0090    7.0820   25.9340 C.ar  301  CMB301      0.0056
     22  C26        8.4830    3.9960   18.6620 C.ar  301  CMB301      0.0089
     23  C27        8.7180    2.6240   18.8490 C.ar  301  CMB301      0.0583
     24  C28        7.9850    1.9400   19.8330 C.ar  301  CMB301      0.0228
     25  C29        7.0210    2.6140   20.6080 C.ar  301  CMB301      0.0583
     26  C30        6.8080    3.9930   20.3970 C.ar  301  CMB301      0.0089
     27  C31       10.7420    6.8550   27.5860 C.2   301  CMB301      0.4766
     28  N32       12.0200    6.8870   27.9700 N.pl3 301  CMB301      0.2047
     29 CL1         9.8430    1.7730   17.8020 Cl    301  CMB301     -0.0822
     30 CL2         6.0320    1.7510   21.7850 Cl    301  CMB301     -0.0822
     31  O45        8.1180    6.8820   21.5360 O.2   301  CMB301     -0.2668
     32  N53        9.8220    6.2060   28.2890 N.pl3 301  CMB301      0.2047
@<TRIPOS>BOND
     1    29    23    1
     2    22    23   ar
     3    22    14   ar
     4    23    24   ar
     5    13    14    1
     6    13    12    1
     7    14    26   ar
     8    24    25   ar
     9    12    11   am
    10    26    25   ar
    11    25    30    1
    12    11    31    2
    13    11     8    1
    14     9     8   ar
    15     9     4   ar
    16     8     7   ar
    17    10     5    1
    18     4     5   ar
    19     4     3   ar
    20     5     6   ar
    21     7     3   ar
    22     7    15    1
    23    17    18   ar
    24    17    16   ar
    25     3     2   ar
    26    15    16    1
    27    18    19   ar
    28    16    21   ar
    29     6     1   ar
    30     2     1   ar
    31    19    20   ar
    32    21    20   ar
    33    20    27    1
    34    27    28    2
    35    27    32    1
