@<TRIPOS>MOLECULE
1lq2_IDD_A_1.pdb
 20 22 0 0 0
SMALL
GASTEIGER

@<TRIPOS>ATOM
      1  C1        27.0460   29.5630   35.8810 C.ar  621  IDD621      0.0271
      2  C2        27.5870   29.9620   37.1400 C.ar  621  IDD621      0.0023
      3  C3        28.3160   31.1800   37.2430 C.ar  621  IDD621      0.0001
      4  C4        28.4970   31.9890   36.0980 C.ar  621  IDD621      0.0000
      5  C5        27.9580   31.5960   34.8520 C.ar  621  IDD621      0.0001
      6  C6        27.2380   30.3860   34.7450 C.ar  621  IDD621      0.0023
      7  C1B       25.3490   26.3270   36.3640 C.2   621  IDD621      0.1933
      8  C2B       24.8550   25.1600   37.1860 C.3   621  IDD621      0.2504
      9  C3B       24.0990   24.1090   36.3310 C.3   621  IDD621      0.2222
     10  C4B       23.3960   24.7700   35.0930 C.3   621  IDD621      0.2057
     11  C5B       24.4300   25.4400   34.1790 C.3   621  IDD621      0.1410
     12  C6B       23.8720   26.1050   32.8640 C.3   621  IDD621      0.2044
     13  O2B       25.9450   24.5620   37.8940 O.3   621  IDD621     -0.2111
     14  O3B       23.1870   23.4890   37.1860 O.3   621  IDD621     -0.2171
     15  O4B       22.6930   23.7450   34.3350 O.3   621  IDD621     -0.2184
     16  N1B       25.1580   26.4640   35.0260 N.pl3 621  IDD621     -0.2749
     17  O6B       23.0100   27.2450   33.1410 O.3   621  IDD621     -0.2185
     18  N2B       26.0280   27.3800   36.8150 N.2   621  IDD621     -0.3914
     19  C7B       26.2930   28.2460   35.7640 C.2   621  IDD621      0.1302
     20  C8B       25.7480   27.6690   34.6640 C.3   621  IDD621      0.1523
@<TRIPOS>BOND
     1    12    17    1
     2    12    11    1
     3    11    16    1
     4    11    10    1
     5    15    10    1
     6    20    16    1
     7    20    19    1
     8     6     5   ar
     9     6     1   ar
    10     5     4   ar
    11    16     7    1
    12    10     9    1
    13    19     1    1
    14    19    18    2
    15     1     2   ar
    16     4     3   ar
    17     9     8    1
    18     9    14    1
    19     7    18    2
    20     7     8    1
    21     2     3   ar
    22     8    13    1
