@<TRIPOS>MOLECULE
1lq2_NAG_A_1.pdb
 14 14 0 0 0
SMALL
GASTEIGER

@<TRIPOS>ATOM
      1  C1        20.7590   37.3210   55.4180 C.3   611  NAG611      0.1665
      2  C2        20.5710   38.8350   55.5410 C.3   611  NAG611      0.1576
      3  C3        20.2360   39.4320   54.1690 C.3   611  NAG611      0.2069
      4  C4        21.2480   38.9870   53.0960 C.3   611  NAG611      0.2134
      5  C5        21.4560   37.4610   53.1370 C.3   611  NAG611      0.1809
      6  C6        22.5790   37.0000   52.2180 C.3   611  NAG611      0.2141
      7  C7        19.7610   39.5120   57.7150 C.2   611  NAG611      0.2420
      8  C8        18.5670   39.7750   58.6170 C.3   611  NAG611      0.0964
      9  N2        19.4930   39.1180   56.4730 N.am  611  NAG611     -0.2019
     10  O3        20.2300   40.8740   54.2580 O.3   611  NAG611     -0.2184
     11  O4        20.7590   39.3670   51.7900 O.3   611  NAG611     -0.2176
     12  O5        21.7950   37.0360   54.4740 O.3   611  NAG611     -0.3489
     13  O6        23.5710   36.2640   52.9200 O.3   611  NAG611     -0.2176
     14  O7        20.9090   39.6620   58.1460 O.2   611  NAG611     -0.2733
@<TRIPOS>BOND
     1    11     4    1
     2     6    13    1
     3     6     5    1
     4     4     5    1
     5     4     3    1
     6     5    12    1
     7     3    10    1
     8     3     2    1
     9    12     1    1
    10     1     2    1
    11     2     9    1
    12     9     7   am
    13     7    14    2
    14     7     8    1
