@<TRIPOS>MOLECULE
1lq8_MAN_G_1.pdb
 11 11 0 0 0
SMALL
GASTEIGER

@<TRIPOS>ATOM
      1  C1        28.0050   12.3750   37.0510 C.3     6  MAN6        0.1777
      2  C2        28.5550   11.3150   38.0360 C.3     6  MAN6        0.2141
      3  C3        27.4270   10.4880   38.6410 C.3     6  MAN6        0.2173
      4  C4        26.2790   11.4110   39.0210 C.3     6  MAN6        0.2142
      5  C5        25.6830   12.0620   37.7630 C.3     6  MAN6        0.1810
      6  C6        25.2530   13.5040   37.9920 C.3     6  MAN6        0.2141
      7  O2        29.3030   11.9430   39.0670 O.3     6  MAN6       -0.2176
      8  O3        27.8950    9.7980   39.7880 O.3     6  MAN6       -0.2175
      9  O4        25.2850   10.6660   39.6920 O.3     6  MAN6       -0.2176
     10  O5        26.6520   12.0660   36.6800 O.3     6  MAN6       -0.3481
     11  O6        24.1550   13.8600   37.1620 O.3     6  MAN6       -0.2176
@<TRIPOS>BOND
     1    10     1    1
     2    10     5    1
     3     1     2    1
     4    11     6    1
     5     5     6    1
     6     5     4    1
     7     2     3    1
     8     2     7    1
     9     3     4    1
    10     3     8    1
    11     4     9    1
