@<TRIPOS>MOLECULE
1lqa_NDP_A_1.pdb
 48 52 0 0 0
SMALL
GASTEIGER

@<TRIPOS>ATOM
      1  PA         6.9890    3.3850   29.1990 P.3   1400  NDP1400     0.2189
      2  O1A        5.5570    3.5730   29.0600 O.2   1400  NDP1400    -0.5170
      3  O2A        7.8230    4.5860   29.4150 O.3   1400  NDP1400    -0.4371
      4  O5B        7.3420    2.2820   30.3220 O.3   1400  NDP1400    -0.3112
      5  C5B        6.5470    1.0940   30.3530 C.3   1400  NDP1400     0.1813
      6  C4B        6.9460    0.2550   31.5950 C.3   1400  NDP1400     0.1820
      7  O4B        6.3760    0.8900   32.7550 O.3   1400  NDP1400    -0.3136
      8  C3B        6.3200   -1.1330   31.5670 C.3   1400  NDP1400     0.2157
      9  O3B        7.1940   -2.0620   30.9190 O.3   1400  NDP1400    -0.2175
     10  C2B        6.1130   -1.4860   33.0500 C.3   1400  NDP1400     0.2314
     11  O2B        7.4000   -1.7750   33.4720 O.3   1400  NDP1400    -0.2630
     12  C1B        5.7540   -0.1110   33.6040 C.3   1400  NDP1400     0.3158
     13  N9A        4.3290    0.1930   33.5460 N.pl3 1400  NDP1400    -0.1439
     14  C8A        3.5940    0.3570   32.3830 C.3   1400  NDP1400     0.3377
     15  N7A        2.3030    0.6900   32.7080 N.2   1400  NDP1400    -0.2095
     16  C5A        2.2270    0.7600   34.0590 C.2   1400  NDP1400     0.2526
     17  C6A        1.1700    1.0780   34.9080 C.2   1400  NDP1400     0.4393
     18  N6A       -0.0130    1.4720   34.4450 N.pl3 1400  NDP1400     0.2180
     19  N1A        1.3950    1.0040   36.2570 N.2   1400  NDP1400     0.0021
     20  C2A        2.6320    0.6520   36.7400 C.3   1400  NDP1400     0.5254
     21  N3A        3.6910    0.3390   35.9100 N.2   1400  NDP1400    -0.0055
     22  C4A        3.4820    0.4270   34.5850 C.2   1400  NDP1400     0.3518
     23  O3         7.4310    2.6390   27.8260 O.3   1400  NDP1400    -0.2703
     24  PN         8.7280    1.8020   27.3880 P.3   1400  NDP1400     0.2189
     25  O1N        8.4710    0.3730   27.7500 O.2   1400  NDP1400    -0.5170
     26  O2N        9.9960    2.4560   27.7620 O.3   1400  NDP1400    -0.4371
     27  O5D        8.5770    1.9390   25.8060 O.3   1400  NDP1400    -0.3112
     28  C5D        7.3790    1.5520   25.1190 C.3   1400  NDP1400     0.1813
     29  C4D        7.7170    1.0020   23.7190 C.3   1400  NDP1400     0.1799
     30  O4D        8.3320    2.0730   22.9920 O.3   1400  NDP1400    -0.3327
     31  C3D        8.7440   -0.1080   23.6380 C.3   1400  NDP1400     0.2158
     32  O3D        8.1600   -1.3620   23.9080 O.3   1400  NDP1400    -0.2175
     33  C2D        9.2820    0.0580   22.2280 C.3   1400  NDP1400     0.2309
     34  O2D        8.3510   -0.5190   21.3350 O.3   1400  NDP1400    -0.2158
     35  C1D        9.2990    1.5710   22.1100 C.3   1400  NDP1400     0.2263
     36  N1N       10.6380    2.1110   22.4210 N.pl3 1400  NDP1400    -0.2787
     37  C2N       11.3940    2.4980   21.3510 C.3   1400  NDP1400     0.1244
     38  C3N       12.6360    3.1020   21.5740 C.2   1400  NDP1400     0.0544
     39  C7N       13.4460    3.5760   20.4030 C.2   1400  NDP1400     0.2818
     40  O7N       14.7610    3.8920   20.6390 O.2   1400  NDP1400    -0.2670
     41  N7N       12.8770    3.7290   19.2330 N.am  1400  NDP1400    -0.0839
     42  C4N       13.1830    3.3660   22.9430 C.2   1400  NDP1400     0.0033
     43  C5N       12.2700    2.8920   24.0310 C.2   1400  NDP1400     0.0157
     44  C6N       11.0260    2.3000   23.7210 C.2   1400  NDP1400     0.0633
     45  P2B        7.6760   -2.6000   34.8020 P.3   1400  NDP1400     0.5328
     46  O1X        8.9650   -3.3090   34.7010 O.2   1400  NDP1400    -0.2224
     47  O2X        7.7720   -1.5940   35.9290 O.3   1400  NDP1400    -0.1145
     48  O3X        6.4260   -3.4410   35.0530 O.3   1400  NDP1400    -0.1145
@<TRIPOS>BOND
     1    41    39   am
     2    39    40    2
     3    39    38    1
     4    34    33    1
     5    37    38    1
     6    37    36    1
     7    38    42    2
     8    35    33    1
     9    35    36    1
    10    35    30    1
    11    33    31    1
    12    36    44    1
    13    42    43    1
    14    30    29    1
    15    31    29    1
    16    31    32    1
    17    29    28    1
    18    44    43    2
    19    28    27    1
    20    27    24    1
    21    24    25    2
    22    24    26    1
    23    24    23    1
    24    23     1    1
    25     2     1    2
    26     1     3    1
    27     1     4    1
    28     4     5    1
    29     5     6    1
    30     9     8    1
    31     8     6    1
    32     8    10    1
    33     6     7    1
    34    14    15    1
    35    14    13    1
    36    15    16    2
    37     7    12    1
    38    10    11    1
    39    10    12    1
    40    11    45    1
    41    13    12    1
    42    13    22    1
    43    16    22    1
    44    16    17    1
    45    18    17    1
    46    22    21    2
    47    46    45    2
    48    45    48    1
    49    45    47    1
    50    17    19    2
    51    21    20    1
    52    19    20    1
