@<TRIPOS>MOLECULE
1lqd_CMI_B_1.pdb
 32 35 0 0 0
SMALL
GASTEIGER

@<TRIPOS>ATOM
      1  C1         3.9950    9.8270   26.0300 C.ar  301  CMI301      0.0012
      2  C2         5.1220    9.0170   25.7360 C.ar  301  CMI301      0.0172
      3  C3         5.4830    8.7740   24.3940 C.ar  301  CMI301      0.0599
      4  C4         4.7220    9.3540   23.3370 C.ar  301  CMI301      0.0134
      5  C5         3.6250   10.1630   23.6360 C.ar  301  CMI301     -0.0204
      6  C6         3.2440   10.3960   24.9770 C.ar  301  CMI301     -0.0042
      7  N7         6.4910    8.0150   23.8430 N.ar  301  CMI301     -0.3194
      8  C8         6.4200    8.0830   22.4790 C.ar  301  CMI301      0.1159
      9  C9         5.3180    8.9120   22.1370 C.ar  301  CMI301      0.0230
     10  C10        2.8670   10.8550   22.5810 C.3   301  CMI301      0.0311
     11  C11        7.3340    7.4780   21.5790 C.2   301  CMI301      0.2810
     12  N12        6.8170    6.8980   20.4730 N.am  301  CMI301     -0.1956
     13  C13        7.6720    6.1290   19.5650 C.3   301  CMI301      0.1418
     14  C14        7.6970    4.6350   19.7800 C.ar  301  CMI301     -0.0012
     15  C17        7.4060    7.1730   24.6290 C.3   301  CMI301      0.1329
     16  C18        8.6510    7.8780   25.0410 C.ar  301  CMI301      0.0006
     17  C21        9.1340    9.0130   24.3640 C.ar  301  CMI301     -0.0024
     18  C22       10.3580    9.5810   24.7100 C.ar  301  CMI301     -0.0000
     19  C23       11.0850    9.0040   25.7540 C.ar  301  CMI301      0.0080
     20  C24       10.5980    7.8850   26.4720 C.ar  301  CMI301      0.0972
     21  C25        9.3620    7.3300   26.1050 C.ar  301  CMI301      0.0056
     22  C26        8.5200    3.8950   18.9260 C.ar  301  CMI301     -0.0068
     23  C27        8.6650    2.5220   19.1280 C.ar  301  CMI301     -0.0224
     24  C28        7.9680    1.8700   20.1460 C.ar  301  CMI301     -0.0085
     25  C29        7.1220    2.5790   20.9880 C.ar  301  CMI301     -0.0224
     26  C30        6.9850    3.9750   20.8130 C.ar  301  CMI301     -0.0068
     27  C31       11.3900    7.2820   27.5660 C.2   301  CMI301      0.4766
     28  N32       12.6920    7.5590   27.7040 N.pl3 301  CMI301      0.2047
     29  C33        9.6010    1.7610   18.3000 C.3   301  CMI301      0.0310
     30  C37        6.3970    1.8470   22.0430 C.3   301  CMI301      0.0310
     31  O45        8.5510    7.5220   21.7870 O.2   301  CMI301     -0.2668
     32  N53       10.8420    6.4280   28.4260 N.pl3 301  CMI301      0.2047
@<TRIPOS>BOND
     1    29    23    1
     2    22    23   ar
     3    22    14   ar
     4    23    24   ar
     5    13    14    1
     6    13    12    1
     7    14    26   ar
     8    24    25   ar
     9    12    11   am
    10    26    25   ar
    11    25    30    1
    12    11    31    2
    13    11     8    1
    14     9     8   ar
    15     9     4   ar
    16     8     7   ar
    17    10     5    1
    18     4     5   ar
    19     4     3   ar
    20     5     6   ar
    21     7     3   ar
    22     7    15    1
    23    17    18   ar
    24    17    16   ar
    25     3     2   ar
    26    15    16    1
    27    18    19   ar
    28     6     1   ar
    29    16    21   ar
    30     2     1   ar
    31    19    20   ar
    32    21    20   ar
    33    20    27    1
    34    27    28    2
    35    27    32    1
