@<TRIPOS>MOLECULE
1lqe_IMA_A_1.pdb
 33 36 0 0 0
SMALL
GASTEIGER

@<TRIPOS>ATOM
      1  C11       19.5150    6.9410   32.1460 C.ar  250  IMA250      0.0001
      2  C12       19.5270    7.1310   30.7400 C.ar  250  IMA250      0.0015
      3  C13       20.3170    6.3180   29.9190 C.ar  250  IMA250      0.0172
      4  C14       21.1170    5.3200   30.5040 C.ar  250  IMA250      0.0603
      5  C15       21.1490    5.1150   31.9240 C.ar  250  IMA250      0.0174
      6  C16       20.3250    5.9390   32.7460 C.ar  250  IMA250      0.0015
      7  C17       22.0850    4.0790   32.1910 C.ar  250  IMA250      0.0233
      8  N18       21.9960    4.4270   29.9650 N.ar  250  IMA250     -0.3194
      9  C19       22.5900    3.6990   30.9250 C.ar  250  IMA250      0.1159
     10  C20       22.1110    4.1210   28.5670 C.3   250  IMA250      0.1329
     11  C21       23.6260    2.7910   30.6180 C.2   250  IMA250      0.2810
     12  N22       24.8580    2.9790   31.1060 N.am  250  IMA250     -0.1956
     13  C23       25.7630    1.8360   31.0880 C.3   250  IMA250      0.1418
     14  C24       26.9050    2.0080   30.1040 C.ar  250  IMA250     -0.0005
     15  O27       23.4660    1.7930   29.6200 O.2   250  IMA250     -0.2668
     16  C28       20.9470    3.3010   28.1190 C.ar  250  IMA250      0.0006
     17  C31       19.5690    3.0770   26.1630 C.ar  250  IMA250      0.0972
     18  C32       20.5050    3.7710   26.9000 C.ar  250  IMA250      0.0056
     19  C33       20.3720    2.1460   28.7280 C.ar  250  IMA250     -0.0024
     20  C34       19.4040    1.4170   27.9680 C.ar  250  IMA250     -0.0000
     21  C35       19.0190    1.8670   26.6690 C.ar  250  IMA250      0.0080
     22  C36       19.3260    3.7140   24.8750 C.2   250  IMA250      0.4766
     23  N37       19.5020    5.0390   24.7510 N.pl3 250  IMA250      0.2047
     24  N38       18.9960    2.9600   23.8200 N.pl3 250  IMA250      0.2047
     25  C39       28.0690    3.0930   28.2700 C.ar  250  IMA250      0.0129
     26  C40       29.1510    2.1580   28.3840 C.ar  250  IMA250      0.0343
     27  C41       29.0950    1.1910   29.4200 C.ar  250  IMA250      0.0129
     28  C42       27.9710    1.1070   30.2490 C.ar  250  IMA250     -0.0013
     29  C43       26.9470    3.0220   29.1230 C.ar  250  IMA250     -0.0013
     30  N44       30.2840    2.1270   27.4630 N.pl3 250  IMA250     -0.3512
     31  C45       30.3200    0.8860   26.6670 C.3   250  IMA250      0.0960
     32  C49       31.5800    2.2060   28.1560 C.3   250  IMA250      0.0960
     33  C53       30.3550    3.2500   26.5230 C.3   250  IMA250      0.0960
@<TRIPOS>BOND
     1    24    22    2
     2    23    22    1
     3    22    17    1
     4    17    21   ar
     5    17    18   ar
     6    33    30    1
     7    31    30    1
     8    21    20   ar
     9    18    16   ar
    10    30    32    1
    11    30    26    1
    12    20    19   ar
    13    16    10    1
    14    16    19   ar
    15    25    26   ar
    16    25    29   ar
    17    26    27   ar
    18    10     8    1
    19    29    14   ar
    20    27    28   ar
    21    15    11    2
    22     3     4   ar
    23     3     2   ar
    24     8     4   ar
    25     8     9   ar
    26    14    28   ar
    27    14    13    1
    28     4     5   ar
    29    11     9    1
    30    11    12   am
    31     2     1   ar
    32     9     7   ar
    33    13    12    1
    34     5     7   ar
    35     5     6   ar
    36     1     6   ar
