@<TRIPOS>MOLECULE
1lqx_HEM_A_1.pdb
 43 50 0 0 0
SMALL
GASTEIGER

@<TRIPOS>ATOM
      1 FE         11.6850    2.2450   -2.2380 Fe    201  HEM201      0.0000
      2  CHA       10.5560    2.8470   -5.3870 C.2   201  HEM201      0.0000
      3  CHB       14.4810    4.1590   -2.8640 C.2   201  HEM201      0.0000
      4  CHC       12.9110    1.4530    0.8260 C.2   201  HEM201      0.0000
      5  CHD        8.8320    0.3980   -1.5630 C.2   201  HEM201      0.0000
      6  NA        12.3700    3.2740   -3.7730 N.ar  201  HEM201      0.0000
      7  C1A       11.7950    3.3660   -5.0500 C.ar  201  HEM201      0.0000
      8  C2A       12.6630    4.1020   -5.9540 C.ar  201  HEM201      0.0000
      9  C3A       13.7310    4.5090   -5.2170 C.ar  201  HEM201      0.0000
     10  C4A       13.5370    4.0140   -3.8730 C.ar  201  HEM201      0.0000
     11  CMA       14.9440    5.2950   -5.6920 C.3   201  HEM201      0.0000
     12  CAA       12.4780    4.3590   -7.4480 C.3   201  HEM201      0.0000
     13  CBA       12.6170    3.1110   -8.3090 C.3   201  HEM201      0.0000
     14  CGA       13.9240    2.3860   -8.0710 C.2   201  HEM201      0.0000
     15  O1A       14.9890    3.0250   -8.1960 O.co2 201  HEM201      0.0000
     16  O2A       13.8870    1.1760   -7.7590 O.co2 201  HEM201      0.0000
     17  NB        13.3310    2.7030   -1.2500 N.2   201  HEM201      0.0000
     18  C1B       14.3810    3.5220   -1.6340 C.2   201  HEM201      0.0000
     19  C2B       15.3920    3.5970   -0.5980 C.2   201  HEM201      0.0000
     20  C3B       14.9340    2.8680    0.4390 C.2   201  HEM201      0.0000
     21  C4B       13.6780    2.2870    0.0290 C.2   201  HEM201      0.0000
     22  CMB       16.7070    4.3660   -0.6470 C.3   201  HEM201      0.0000
     23  CAB       15.4920    2.8600    1.7130 C.3   201  HEM201      0.0000
     24  CBB       16.4000    1.9050    2.1360 C.3   201  HEM201      0.0000
     25  NC        11.0000    1.1670   -0.7120 N.ar  201  HEM201      0.0000
     26  C1C       11.6840    0.8950    0.4700 C.ar  201  HEM201      0.0000
     27  C2C       10.9550   -0.0300    1.3080 C.ar  201  HEM201      0.0000
     28  C3C        9.7830   -0.3090    0.6740 C.ar  201  HEM201      0.0000
     29  C4C        9.8100    0.4530   -0.5800 C.ar  201  HEM201      0.0000
     30  CMC       11.4220   -0.5680    2.6730 C.3   201  HEM201      0.0000
     31  CAC        8.7510   -1.1630    1.0660 C.3   201  HEM201      0.0000
     32  CBC        8.5190   -1.7430    2.3220 C.3   201  HEM201      0.0000
     33  ND        10.0570    1.7420   -3.2330 N.2   201  HEM201      0.0000
     34  C1D        8.9540    1.0130   -2.8050 C.2   201  HEM201      0.0000
     35  C2D        7.9280    0.9900   -3.8250 C.2   201  HEM201      0.0000
     36  C3D        8.4140    1.6470   -4.8930 C.2   201  HEM201      0.0000
     37  C4D        9.7430    2.1030   -4.5410 C.2   201  HEM201      0.0000
     38  CMD        6.5390    0.3910   -3.7020 C.3   201  HEM201      0.0000
     39  CAD        7.6560    1.8650   -6.2000 C.3   201  HEM201      0.0000
     40  CBD        8.0760    0.8780   -7.2710 C.3   201  HEM201      0.0000
     41  CGD        7.1780    0.9280   -8.4920 C.2   201  HEM201      0.0000
     42  O1D        7.0110    2.0240   -9.0660 O.co2 201  HEM201      0.0000
     43  O2D        6.6420   -0.1320   -8.8790 O.co2 201  HEM201      0.0000
@<TRIPOS>BOND
     1    42    41   ar
     2    43    41   ar
     3    41    40    1
     4    13    14    1
     5    13    12    1
     6    15    14   ar
     7    14    16   ar
     8    12     8    1
     9    40    39    1
    10    39    36    1
    11     8     9   ar
    12     8     7   ar
    13    11     9    1
    14     2     7    2
    15     2    37    1
    16     9    10   ar
    17     7     6   ar
    18    36    37    1
    19    36    35    2
    20    37    33    2
    21    10     6   ar
    22    10     3    2
    23    35    38    1
    24    35    34    1
    25     6     1    1
    26    33    34    1
    27    33     1    1
    28     3    18    1
    29    34     5    2
    30     1    17    1
    31     1    25    1
    32    18    17    2
    33    18    19    1
    34     5    29    1
    35    17    21    1
    36    25    29   ar
    37    25    26   ar
    38    22    19    1
    39    19    20    2
    40    29    28   ar
    41    21    20    1
    42    21     4    2
    43    20    23    1
    44    26     4    1
    45    26    27   ar
    46    28    31    1
    47    28    27   ar
    48    31    32    1
    49    27    30    1
    50    23    24    1
