@<TRIPOS>MOLECULE
1lqy_BB2_A_1.pdb
 27 27 0 0 0
SMALL
GASTEIGER

@<TRIPOS>ATOM
      1  C5        16.3200    6.4370   28.9550 C.3   401  BB2401      0.0603
      2  C3        16.5440    7.5990   29.9660 C.2   401  BB2401      0.0873
      3  O4        17.6730    8.0620   30.1680 O.2   401  BB2401     -0.5395
      4  N1        15.4870    8.0860   30.6150 N.am  401  BB2401     -0.2030
      5  O2        15.6770    9.1420   31.5370 O.3   401  BB2401     -0.4026
      6  C6        16.5510    5.1390   29.7410 C.3   401  BB2401      0.0845
      7  C12       16.7870    3.9850   28.7280 C.2   401  BB2401      0.2417
      8  O13       15.9580    3.7640   27.8080 O.2   401  BB2401     -0.2733
      9  C7        15.2840    4.8610   30.6160 C.3   401  BB2401      0.0095
     10  C8        15.2140    3.4590   31.2900 C.3   401  BB2401      0.0005
     11  C9        16.3000    3.2870   32.3360 C.3   401  BB2401      0.0000
     12  C10       15.9540    2.0920   33.2640 C.3   401  BB2401      0.0000
     13  C11       16.2330    0.7010   32.6660 C.3   401  BB2401      0.0000
     14  N14       17.9580    3.2620   29.0140 N.am  401  BB2401     -0.1978
     15  C15       18.2150    2.1760   28.1320 C.3   401  BB2401      0.1712
     16  C16       19.5620    2.3790   27.3670 C.3   401  BB2401      0.0289
     17  C18       19.9460    1.1300   26.5310 C.3   401  BB2401      0.0023
     18  C17       19.4710    3.6090   26.4500 C.3   401  BB2401      0.0023
     19  C19       18.3440    0.9140   29.0290 C.2   401  BB2401      0.2458
     20  O20       19.0490    1.0260   30.0560 O.2   401  BB2401     -0.2730
     21  N21       17.8460   -0.3070   28.6190 N.am  401  BB2401     -0.2727
     22  C22       17.7700   -1.4200   29.6120 C.3   401  BB2401      0.1402
     23  C23       16.5620   -0.2400   27.9050 C.3   401  BB2401      0.0939
     24  C24       16.0290   -1.6880   27.9860 C.3   401  BB2401      0.0237
     25  C25       16.3880   -2.0650   29.4230 C.3   401  BB2401      0.0296
     26  C26       18.9800   -2.2850   29.2400 C.2   401  BB2401      0.2269
     27  O27       19.3870   -3.0730   30.0670 O.2   401  BB2401     -0.2865
@<TRIPOS>BOND
     1    18    16    1
     2    17    16    1
     3    16    15    1
     4     8     7    2
     5    23    24    1
     6    23    21    1
     7    24    25    1
     8    15    14    1
     9    15    19    1
    10    21    19   am
    11    21    22    1
    12     7    14   am
    13     7     6    1
    14     1     6    1
    15     1     2    1
    16    19    20    2
    17    26    22    1
    18    26    27    2
    19    25    22    1
    20     6     9    1
    21     2     3    2
    22     2     4   am
    23     4     5    1
    24     9    10    1
    25    10    11    1
    26    11    12    1
    27    13    12    1
