@<TRIPOS>MOLECULE
1lr5_BMA_A_1.pdb
 11 11 0 0 0
SMALL
GASTEIGER

@<TRIPOS>ATOM
      1  C1        26.9970   53.4650   90.4650 C.3   183  BMA183      0.1777
      2  C2        27.1780   52.9760   91.9590 C.3   183  BMA183      0.2141
      3  C3        27.9770   54.0920   92.5900 C.3   183  BMA183      0.2173
      4  C4        29.3370   54.2050   91.9490 C.3   183  BMA183      0.2142
      5  C5        29.0150   54.6250   90.4750 C.3   183  BMA183      0.1810
      6  C6        30.2260   55.0560   89.7580 C.3   183  BMA183      0.2141
      7  O2        27.9080   51.7840   91.9360 O.3   183  BMA183     -0.2176
      8  O3        28.1490   53.8340   93.9840 O.3   183  BMA183     -0.2175
      9  O4        30.0730   55.2680   92.5060 O.3   183  BMA183     -0.2176
     10  O5        28.3170   53.5410   89.8870 O.3   183  BMA183     -0.3481
     11  O6        31.1410   53.8730   89.9000 O.3   183  BMA183     -0.2176
@<TRIPOS>BOND
     1     6    11    1
     2     6     5    1
     3    10     1    1
     4    10     5    1
     5     1     2    1
     6     5     4    1
     7     7     2    1
     8     4     9    1
     9     4     3    1
    10     2     3    1
    11     3     8    1
