@<TRIPOS>MOLECULE
1lr5_MAN_A_1.pdb
 11 11 0 0 0
SMALL
GASTEIGER

@<TRIPOS>ATOM
      1  C1        32.5860   53.8450   89.5780 C.3   184  MAN184      0.1777
      2  C2        33.4640   52.5860   89.4450 C.3   184  MAN184      0.2141
      3  C3        33.4280   52.1100   90.8910 C.3   184  MAN184      0.2173
      4  C4        34.0280   53.0170   91.9170 C.3   184  MAN184      0.2142
      5  C5        33.1350   54.2670   91.8550 C.3   184  MAN184      0.1810
      6  C6        33.4910   55.3670   92.7910 C.3   184  MAN184      0.2141
      7  O2        34.7370   52.8620   88.9840 O.3   184  MAN184     -0.2176
      8  O3        34.2410   50.8870   90.8660 O.3   184  MAN184     -0.2175
      9  O4        34.0150   52.3970   93.2040 O.3   184  MAN184     -0.2176
     10  O5        33.1640   54.7620   90.5120 O.3   184  MAN184     -0.3481
     11  O6        34.9270   55.6090   92.6110 O.3   184  MAN184     -0.2176
@<TRIPOS>BOND
     1     7     2    1
     2     2     1    1
     3     2     3    1
     4     1    10    1
     5    10     5    1
     6     8     3    1
     7     3     4    1
     8     5     4    1
     9     5     6    1
    10     4     9    1
    11    11     6    1
