@<TRIPOS>MOLECULE
1lr6_HEM_A_1.pdb
 43 50 0 0 0
SMALL
GASTEIGER

@<TRIPOS>ATOM
      1 FE         11.0380    2.1250   -2.3950 Fe    201  HEM201      0.0000
      2  CHA        9.9420    2.8150   -5.5280 C.2   201  HEM201      0.0000
      3  CHB       13.8840    4.0060   -2.9620 C.2   201  HEM201      0.0000
      4  CHC       12.2250    1.2800    0.6710 C.2   201  HEM201      0.0000
      5  CHD        8.1400    0.3700   -1.7510 C.2   201  HEM201      0.0000
      6  NA        11.7730    3.1630   -3.8980 N.ar  201  HEM201      0.0000
      7  C1A       11.2070    3.2980   -5.1650 C.ar  201  HEM201      0.0000
      8  C2A       12.1050    4.0010   -6.0550 C.ar  201  HEM201      0.0000
      9  C3A       13.1690    4.3660   -5.3210 C.ar  201  HEM201      0.0000
     10  C4A       12.9750    3.8430   -3.9930 C.ar  201  HEM201      0.0000
     11  CMA       14.3390    5.2160   -5.8020 C.3   201  HEM201      0.0000
     12  CAA       11.9660    4.2550   -7.5500 C.3   201  HEM201      0.0000
     13  CBA       12.0910    3.0080   -8.4070 C.3   201  HEM201      0.0000
     14  CGA       13.3970    2.2860   -8.1840 C.2   201  HEM201      0.0000
     15  O1A       14.4600    2.9160   -8.3620 O.co2 201  HEM201      0.0000
     16  O2A       13.3630    1.0880   -7.8330 O.co2 201  HEM201      0.0000
     17  NB        12.6740    2.5560   -1.3770 N.2   201  HEM201      0.0000
     18  C1B       13.7330    3.3950   -1.7270 C.2   201  HEM201      0.0000
     19  C2B       14.7310    3.4530   -0.6820 C.2   201  HEM201      0.0000
     20  C3B       14.3080    2.6220    0.3200 C.2   201  HEM201      0.0000
     21  C4B       13.0200    2.0930   -0.1120 C.2   201  HEM201      0.0000
     22  CMB       16.0000    4.2990   -0.7100 C.3   201  HEM201      0.0000
     23  CAB       14.9950    2.2170    1.4690 C.3   201  HEM201      0.0000
     24  CBB       15.8940    2.9750    2.2130 C.3   201  HEM201      0.0000
     25  NC        10.3240    1.0530   -0.8630 N.ar  201  HEM201      0.0000
     26  C1C       10.9740    0.7860    0.3260 C.ar  201  HEM201      0.0000
     27  C2C       10.2250   -0.1230    1.1530 C.ar  201  HEM201      0.0000
     28  C3C        9.0580   -0.3990    0.4910 C.ar  201  HEM201      0.0000
     29  C4C        9.1270    0.3650   -0.7590 C.ar  201  HEM201      0.0000
     30  CMC       10.7150   -0.6670    2.5050 C.3   201  HEM201      0.0000
     31  CAC        8.0010   -1.2660    0.8160 C.3   201  HEM201      0.0000
     32  CBC        7.7250   -1.9130    2.0280 C.3   201  HEM201      0.0000
     33  ND         9.4240    1.6620   -3.4060 N.2   201  HEM201      0.0000
     34  C1D        8.2810    0.9960   -2.9890 C.2   201  HEM201      0.0000
     35  C2D        7.2580    1.0430   -4.0340 C.2   201  HEM201      0.0000
     36  C3D        7.7750    1.6880   -5.0850 C.2   201  HEM201      0.0000
     37  C4D        9.1200    2.0670   -4.7080 C.2   201  HEM201      0.0000
     38  CMD        5.8480    0.4940   -3.9890 C.3   201  HEM201      0.0000
     39  CAD        7.0500    1.9490   -6.4140 C.3   201  HEM201      0.0000
     40  CBD        7.2760    0.8080   -7.3890 C.3   201  HEM201      0.0000
     41  CGD        6.3830    0.8900   -8.6170 C.2   201  HEM201      0.0000
     42  O1D        6.5210    0.0230   -9.5070 O.co2 201  HEM201      0.0000
     43  O2D        5.5420    1.8130   -8.6900 O.co2 201  HEM201      0.0000
@<TRIPOS>BOND
     1    42    41   ar
     2    43    41   ar
     3    41    40    1
     4    13    14    1
     5    13    12    1
     6    15    14   ar
     7    14    16   ar
     8    12     8    1
     9    40    39    1
    10    39    36    1
    11     8     9   ar
    12     8     7   ar
    13    11     9    1
    14     2     7    2
    15     2    37    1
    16     9    10   ar
    17     7     6   ar
    18    36    37    1
    19    36    35    2
    20    37    33    2
    21    35    38    1
    22    35    34    1
    23    10     6   ar
    24    10     3    2
    25     6     1    1
    26    33    34    1
    27    33     1    1
    28    34     5    2
    29     3    18    1
    30     1    17    1
    31     1    25    1
    32     5    29    1
    33    18    17    2
    34    18    19    1
    35    17    21    1
    36    25    29   ar
    37    25    26   ar
    38    29    28   ar
    39    22    19    1
    40    19    20    2
    41    21    20    1
    42    21     4    2
    43    20    23    1
    44    26     4    1
    45    26    27   ar
    46    28    31    1
    47    28    27   ar
    48    31    32    1
    49    27    30    1
    50    23    24    1
