@<TRIPOS>MOLECULE
1lr8_IHS_A_1.pdb
 28 23 0 0 0
SMALL
GASTEIGER

@<TRIPOS>ATOM
      1  C1        60.6630   16.1120   21.7700 C.3    30  IHS30       0.2070
      2  O1        61.7160   15.1690   21.9540 O.3    30  IHS30      -0.2383
      3  S1        61.3210   13.5030   21.5430 S.3    30  IHS30      -0.0001
      4  O4        61.5280   12.5690   22.6020 O.3    30  IHS30      -0.2682
      5  O3        59.8710   13.5420   21.3060 O.2    30  IHS30      -0.3452
      6  O2        62.0910   13.0470   20.3540 O.2    30  IHS30      -0.3452
      7  C2        61.7820   17.9850   22.7450 C.3    30  IHS30       0.2070
      8  O12       61.2640   18.3580   24.0160 O.3    30  IHS30      -0.2383
      9  S2        62.3320   19.1260   25.2060 S.3    30  IHS30      -0.0001
     10  O32       63.2390   20.1120   24.5890 O.2    30  IHS30      -0.3452
     11  O22       61.4670   19.8580   26.1490 O.3    30  IHS30      -0.2682
     12  O42       63.0910   18.1600   25.9840 O.2    30  IHS30      -0.3452
     13  C3        62.3460   17.8790   19.0530 C.3    30  IHS30       0.2070
     14  O13       62.6560   18.0250   17.6580 O.3    30  IHS30      -0.2383
     15  S3        63.6960   16.9280   16.7300 S.3    30  IHS30      -0.0001
     16  O33       63.9290   15.6390   17.4320 O.3    30  IHS30      -0.2682
     17  O23       63.0660   16.6490   15.4160 O.2    30  IHS30      -0.3452
     18  O43       64.9520   17.5620   16.4480 O.2    30  IHS30      -0.3452
     19  O14       63.2770   19.0000   21.6470 O.3    30  IHS30      -0.0200
     20  S4        63.4470   20.7860   20.7160 S.3    30  IHS30       0.2666
     21  O34       62.3350   20.7240   19.7660 O.2    30  IHS30      -0.1133
     22  O24       63.4260   22.0560   21.4410 O.3    30  IHS30      -0.0200
     23  O44       64.7300   20.6920   20.0210 O.2    30  IHS30      -0.1133
     24  O15       66.4690   17.6820   22.6010 O.3    30  IHS30      -0.0200
     25  S5        65.8300   16.8320   21.6130 S.3    30  IHS30       0.2666
     26  O35       64.3940   17.1740   21.4860 O.2    30  IHS30      -0.1133
     27  O25       65.9780   15.4390   21.9960 O.3    30  IHS30      -0.0200
     28  O45       66.4770   17.0270   20.3240 O.2    30  IHS30      -0.1133
@<TRIPOS>BOND
     1    17    15    2
     2    18    15    2
     3    15    16    1
     4    15    14    1
     5    14    13    1
     6    21    20    2
     7    23    20    2
     8    28    25    2
     9     6     3    2
    10    20    22    1
    11    20    19    1
    12     5     3    2
    13    26    25    2
    14     3     2    1
    15     3     4    1
    16    25    27    1
    17    25    24    1
    18     1     2    1
    19     7     8    1
    20     8     9    1
    21    10     9    2
    22     9    12    2
    23     9    11    1
