@<TRIPOS>MOLECULE
1lra_2GP_A_1.pdb
 24 26 0 0 0
SMALL
GASTEIGER

@<TRIPOS>ATOM
      1  P          6.4600    0.0420   17.0220 P.3   105  2GP105      0.5327
      2  O1P        7.8170    0.2030   17.6220 O.3   105  2GP105     -0.1145
      3  O2P        5.7480    1.2550   16.5870 O.3   105  2GP105     -0.1145
      4  O3P        6.6500   -0.6480   15.6120 O.2   105  2GP105     -0.2224
      5  O5'        3.1040   -2.7230   22.0360 O.3   105  2GP105     -0.2176
      6  C5'        2.9770   -1.4330   21.3580 C.3   105  2GP105      0.2142
      7  C4'        3.8300   -1.4800   20.1250 C.3   105  2GP105      0.1827
      8  O4'        3.5590   -2.7350   19.3700 O.3   105  2GP105     -0.3326
      9  C3'        3.2530   -0.4070   19.0790 C.3   105  2GP105      0.2132
     10  O3'        3.8420    0.8760   19.4820 O.3   105  2GP105     -0.2176
     11  C2'        4.1070   -0.8860   17.9580 C.3   105  2GP105      0.2054
     12  O2'        5.4860   -0.6510   17.9620 O.3   105  2GP105     -0.2657
     13  C1'        4.1290   -2.4860   18.0790 C.3   105  2GP105      0.2266
     14  N9         3.1540   -3.2160   17.3000 N.pl3 105  2GP105     -0.2354
     15  C8         3.3450   -4.4740   16.6850 C.3   105  2GP105      0.2246
     16  N7         2.2890   -4.9320   16.0380 N.2   105  2GP105     -0.2322
     17  C5         1.3560   -3.9450   16.2240 C.2   105  2GP105      0.2182
     18  C6         0.0270   -3.7040   15.8100 C.1   105  2GP105      0.2372
     19  O6        -0.5890   -4.5280   15.0910 O.2   105  2GP105     -0.2069
     20  N1        -0.6400   -2.4760   16.1600 N.2   105  2GP105     -0.2485
     21  C2        -0.0830   -1.4360   16.9950 C.1   105  2GP105      0.2531
     22  N2        -0.8480   -0.4210   17.1300 N.pl3 105  2GP105     -0.0226
     23  N3         1.1670   -1.6960   17.3660 N.2   105  2GP105     -0.3074
     24  C4         1.8920   -2.8520   16.9870 C.2   105  2GP105      0.2300
@<TRIPOS>BOND
     1    19    18    2
     2     4     1    2
     3    18    20    2
     4    18    17    1
     5    16    17    2
     6    16    15    1
     7    20    21    2
     8    17    24    1
     9     3     1    1
    10    15    14    1
    11    24    14    1
    12    24    23    2
    13    21    22    1
    14    21    23    2
    15     1     2    1
    16     1    12    1
    17    14    13    1
    18    11    12    1
    19    11    13    1
    20    11     9    1
    21    13     8    1
    22     9    10    1
    23     9     7    1
    24     8     7    1
    25     7     6    1
    26     6     5    1
