@<TRIPOS>MOLECULE
1lrh_NLA_A_1.pdb
 14 15 0 0 0
SMALL
GASTEIGER

@<TRIPOS>ATOM
      1  C1         9.6520   57.4480   63.6220 C.ar  5190  NLA5190    -0.0034
      2  C2        10.7730   56.9010   62.9800 C.ar  5190  NLA5190    -0.0109
      3  C3        10.7900   56.7280   61.5750 C.ar  5190  NLA5190    -0.0037
      4  C4         9.6730   57.1640   60.8110 C.ar  5190  NLA5190    -0.0003
      5  C5         8.5930   57.7260   61.4140 C.ar  5190  NLA5190    -0.0000
      6  C6         8.5280   57.8860   62.8060 C.ar  5190  NLA5190    -0.0003
      7  C7         7.3710   58.4550   63.4740 C.ar  5190  NLA5190    -0.0000
      8  C8         7.3460   58.5890   64.8440 C.ar  5190  NLA5190    -0.0000
      9  C9         8.4520   58.1850   65.6290 C.ar  5190  NLA5190    -0.0000
     10  C10        9.5930   57.6390   65.0590 C.ar  5190  NLA5190    -0.0003
     11  C11       12.0190   56.4100   63.8130 C.3   5190  NLA5190     0.1404
     12  C12       12.5400   55.1320   63.2350 C.2   5190  NLA5190     0.3692
     13  O1        12.1150   53.9180   63.4710 O.co2 5190  NLA5190    -0.2453
     14  O2        13.4750   55.3890   62.3510 O.co2 5190  NLA5190    -0.2453
@<TRIPOS>BOND
     1     4     5   ar
     2     4     3   ar
     3     5     6   ar
     4     3     2   ar
     5    14    12   ar
     6     6     7   ar
     7     6     1   ar
     8     2     1   ar
     9     2    11    1
    10    12    13   ar
    11    12    11    1
    12     7     8   ar
    13     1    10   ar
    14     8     9   ar
    15    10     9   ar
