@<TRIPOS>MOLECULE
1lrh_BMA_A_1.pdb
 11 11 0 0 0
SMALL
GASTEIGER

@<TRIPOS>ATOM
      1  C1        26.8550   53.8210   90.5960 C.3   183  BMA183      0.1777
      2  C2        26.8790   53.5000   92.1370 C.3   183  BMA183      0.2141
      3  C3        27.7710   54.5020   92.8050 C.3   183  BMA183      0.2173
      4  C4        29.1560   54.4870   92.1780 C.3   183  BMA183      0.2142
      5  C5        28.9030   54.8440   90.6720 C.3   183  BMA183      0.1810
      6  C6        30.1310   55.2700   89.9770 C.3   183  BMA183      0.2141
      7  O2        27.3870   52.2110   92.3680 O.3   183  BMA183     -0.2176
      8  O3        27.8960   54.1820   94.2150 O.3   183  BMA183     -0.2175
      9  O4        29.8760   55.5630   92.7310 O.3   183  BMA183     -0.2176
     10  O5        28.2260   53.7470   90.0820 O.3   183  BMA183     -0.3481
     11  O6        31.0310   54.0780   90.0200 O.3   183  BMA183     -0.2176
@<TRIPOS>BOND
     1     6    11    1
     2     6     5    1
     3    10     1    1
     4    10     5    1
     5     1     2    1
     6     5     4    1
     7     2     7    1
     8     2     3    1
     9     4     9    1
    10     4     3    1
    11     3     8    1
