@<TRIPOS>MOLECULE
1lrh_MAN_A_1.pdb
 11 11 0 0 0
SMALL
GASTEIGER

@<TRIPOS>ATOM
      1  C1        32.4820   53.9270   89.7220 C.3   184  MAN184      0.1777
      2  C2        33.3280   52.6370   89.6630 C.3   184  MAN184      0.2141
      3  C3        33.2660   52.1630   91.1170 C.3   184  MAN184      0.2173
      4  C4        33.8400   53.0560   92.1740 C.3   184  MAN184      0.2142
      5  C5        32.9750   54.3150   92.0310 C.3   184  MAN184      0.1810
      6  C6        33.2920   55.4250   93.0000 C.3   184  MAN184      0.2141
      7  O2        34.6630   52.8700   89.2560 O.3   184  MAN184     -0.2176
      8  O3        33.9970   50.8900   91.1700 O.3   184  MAN184     -0.2175
      9  O4        33.7560   52.4560   93.4750 O.3   184  MAN184     -0.2176
     10  O5        33.0550   54.8350   90.6880 O.3   184  MAN184     -0.3481
     11  O6        34.7450   55.6400   92.7070 O.3   184  MAN184     -0.2176
@<TRIPOS>BOND
     1     7     2    1
     2     2     1    1
     3     2     3    1
     4     1    10    1
     5    10     5    1
     6     3     8    1
     7     3     4    1
     8     5     4    1
     9     5     6    1
    10     4     9    1
    11    11     6    1
