@<TRIPOS>MOLECULE
1lrj_UD1_A_1.pdb
 39 41 0 0 0
SMALL
GASTEIGER

@<TRIPOS>ATOM
      1  C1'       18.2850    7.9320   35.2990 C.3   341  UD1341      0.2633
      2  C2'       19.4640    8.6960   34.6390 C.3   341  UD1341      0.1845
      3  C3'       20.4820    7.7860   33.8570 C.3   341  UD1341      0.2094
      4  C4'       20.6580    6.4530   34.5940 C.3   341  UD1341      0.2136
      5  C5'       19.3330    5.6600   34.4630 C.3   341  UD1341      0.1834
      6  C6'       19.2870    4.3180   35.2290 C.3   341  UD1341      0.2142
      7  C7'       19.4320   11.0410   34.6210 C.2   341  UD1341      0.2420
      8  C8'       18.6140   12.2830   34.4930 C.3   341  UD1341      0.0964
      9  N2'       19.0810    9.9300   33.9530 N.am  341  UD1341     -0.1992
     10  O1'       17.0550    8.6950   35.1300 O.3   341  UD1341     -0.2864
     11  O3'       21.8160    8.3770   33.7660 O.3   341  UD1341     -0.2183
     12  O4'       21.8320    5.7230   34.1520 O.3   341  UD1341     -0.2176
     13  O5'       18.1600    6.4800   34.9020 O.3   341  UD1341     -0.3260
     14  O6'       19.3640    3.1070   34.3780 O.3   341  UD1341     -0.2176
     15  O7'       20.4170   11.0600   35.3620 O.2   341  UD1341     -0.2733
     16  N1        15.4400   15.0690   39.6050 N.am  341  UD1341     -0.1766
     17  C2        15.2300   16.3650   39.9820 C.1   341  UD1341      0.2845
     18  N3        16.3980   17.0790   40.1870 N.2   341  UD1341     -0.2452
     19  C4        17.7310   16.6010   40.0830 C.1   341  UD1341      0.2182
     20  C5        17.8500   15.2410   39.6710 C.2   341  UD1341      0.1242
     21  C6        16.7370   14.5310   39.4900 C.2   341  UD1341      0.0929
     22  O2        14.0860   16.8320   40.0420 O.2   341  UD1341     -0.1918
     23  O4        18.6470   17.3460   40.3070 O.2   341  UD1341     -0.2085
     24  C1B       14.2140   14.2920   39.3750 C.3   341  UD1341      0.2401
     25  C2B       13.7860   13.8540   37.8970 C.3   341  UD1341      0.2319
     26  O2'       12.5570   14.5280   37.4250 O.3   341  UD1341     -0.2157
     27  C3B       13.2630   12.4140   38.1160 C.3   341  UD1341      0.2158
     28  C4B       13.8510   12.0000   39.4830 C.3   341  UD1341      0.1799
     29  O4B       14.2430   13.1990   40.2160 O.3   341  UD1341     -0.3320
     30  O3B       11.8260   12.4570   38.1230 O.3   341  UD1341     -0.2175
     31  C5B       15.0360   11.0750   39.4340 C.3   341  UD1341      0.1813
     32  O5B       15.9940   11.7880   38.6600 O.3   341  UD1341     -0.3112
     33  PA        17.2760   11.0020   38.1980 P.3   341  UD1341      0.2189
     34  O1A       17.9840   11.7160   37.1120 O.2   341  UD1341     -0.5170
     35  O2A       18.2020   10.8440   39.3410 O.3   341  UD1341     -0.4371
     36  O3A       16.8840    9.4840   37.6680 O.3   341  UD1341     -0.2703
     37  PB        16.0410    9.0000   36.4350 P.3   341  UD1341      0.2208
     38  O1B       15.2840    7.6780   36.7050 O.3   341  UD1341     -0.4371
     39  O2B       15.0210   10.0700   36.0460 O.2   341  UD1341     -0.5170
@<TRIPOS>BOND
     1    11     3    1
     2     3     4    1
     3     3     2    1
     4     9     7   am
     5     9     2    1
     6    12     4    1
     7    14     6    1
     8     5     4    1
     9     5    13    1
    10     5     6    1
    11     8     7    1
    12     7    15    2
    13     2     1    1
    14    13     1    1
    15    10     1    1
    16    10    37    1
    17    39    37    2
    18    37    38    1
    19    37    36    1
    20    34    33    2
    21    26    25    1
    22    36    33    1
    23    25    27    1
    24    25    24    1
    25    27    30    1
    26    27    28    1
    27    33    32    1
    28    33    35    1
    29    32    31    1
    30    24    16    1
    31    24    29    1
    32    31    28    1
    33    28    29    1
    34    21    16    1
    35    21    20    2
    36    16    17   am
    37    20    19    1
    38    17    22    2
    39    17    18    2
    40    19    18    2
    41    19    23    2
