@<TRIPOS>MOLECULE
1lrj_NAD_A_1.pdb
 44 48 0 0 0
SMALL
GASTEIGER

@<TRIPOS>ATOM
      1  PA        31.1880    4.6690   37.7060 P.3   340  NAD340      0.2189
      2  O1A       31.7270    5.7200   36.7430 O.2   340  NAD340     -0.5170
      3  O2A       31.3290    4.9860   39.1410 O.3   340  NAD340     -0.4371
      4  O5B       31.8910    3.2570   37.4160 O.3   340  NAD340     -0.3112
      5  C5B       32.4100    3.0340   36.0820 C.3   340  NAD340      0.1813
      6  C4B       33.8750    2.7410   36.1740 C.3   340  NAD340      0.1821
      7  O4B       34.3210    2.3710   34.8530 O.3   340  NAD340     -0.3135
      8  C3B       34.7710    3.8930   36.6540 C.3   340  NAD340      0.2184
      9  O3B       35.6010    3.4390   37.7440 O.3   340  NAD340     -0.2174
     10  C2B       35.5360    4.2840   35.3750 C.3   340  NAD340      0.2570
     11  O2B       36.8870    4.7250   35.6640 O.3   340  NAD340     -0.2130
     12  C1B       35.5210    2.9920   34.5740 C.3   340  NAD340      0.3186
     13  N9A       35.5880    3.1400   33.1220 N.pl3 340  NAD340     -0.1439
     14  C8A       34.8880    3.9470   32.2580 C.3   340  NAD340      0.3377
     15  N7A       35.2440    3.7740   30.9660 N.2   340  NAD340     -0.2095
     16  C5A       36.2110    2.7730   31.0360 C.2   340  NAD340      0.2526
     17  C6A       36.9630    2.1430   30.0380 C.2   340  NAD340      0.4393
     18  N6A       36.8640    2.3880   28.7390 N.pl3 340  NAD340      0.2180
     19  N1A       37.8630    1.2090   30.4520 N.2   340  NAD340      0.0021
     20  C2A       37.9660    0.9130   31.7910 C.3   340  NAD340      0.5254
     21  N3A       37.2950    1.4310   32.8000 N.2   340  NAD340     -0.0055
     22  C4A       36.4380    2.3830   32.3470 C.2   340  NAD340      0.3518
     23  O3        29.7120    4.2630   37.3320 O.3   340  NAD340     -0.2703
     24  PN        28.6670    3.1620   37.9730 P.3   340  NAD340      0.2189
     25  O1N       27.5240    3.8940   38.5860 O.2   340  NAD340     -0.5170
     26  O2N       29.4260    2.3200   38.9600 O.3   340  NAD340     -0.4371
     27  O5D       28.1460    2.3360   36.7490 O.3   340  NAD340     -0.3112
     28  C5D       29.0390    1.8030   35.7930 C.3   340  NAD340      0.1813
     29  C4D       28.2110    0.8210   35.0110 C.3   340  NAD340      0.1799
     30  O4D       26.8700    0.6570   35.5860 O.3   340  NAD340     -0.3327
     31  C3D       27.9820    1.1540   33.5620 C.3   340  NAD340      0.2158
     32  O3D       27.7630   -0.0700   32.8760 O.3   340  NAD340     -0.2175
     33  C2D       26.7030    1.9830   33.7020 C.3   340  NAD340      0.2309
     34  O2D       26.0440    2.0190   32.4180 O.3   340  NAD340     -0.2158
     35  C1D       25.9260    1.1340   34.6630 C.3   340  NAD340      0.2261
     36  N1N       24.7670    1.8560   35.2120 N.pl3 340  NAD340     -0.2828
     37  C2N       24.8390    2.7990   36.2420 C.3   340  NAD340      0.1025
     38  C3N       23.7310    3.7100   36.5240 C.3   340  NAD340      0.1040
     39  C7N       23.9690    4.7020   37.6100 C.2   340  NAD340      0.2623
     40  O7N       23.0390    5.4960   37.8460 O.2   340  NAD340     -0.2716
     41  N7N       25.1210    4.7590   38.3390 N.am  340  NAD340     -0.0877
     42  C4N       22.3780    3.1500   36.2430 C.3   340  NAD340      0.0383
     43  C5N       22.3920    2.2010   35.0900 C.2   340  NAD340     -0.0098
     44  C6N       23.4800    1.6130   34.6610 C.2   340  NAD340      0.0584
@<TRIPOS>BOND
     1    18    17    1
     2    17    19    2
     3    17    16    1
     4    19    20    1
     5    15    16    2
     6    15    14    1
     7    16    22    1
     8    20    21    1
     9    14    13    1
    10    22    21    2
    11    22    13    1
    12    34    33    1
    13    32    31    1
    14    13    12    1
    15    31    33    1
    16    31    29    1
    17    33    35    1
    18    12     7    1
    19    12    10    1
    20    44    43    2
    21    44    36    1
    22    35    36    1
    23    35    30    1
    24     7     6    1
    25    29    30    1
    26    29    28    1
    27    43    42    1
    28    36    37    1
    29    10    11    1
    30    10     8    1
    31    28    27    1
    32     5     6    1
    33     5     4    1
    34     6     8    1
    35    37    38    1
    36    42    38    1
    37    38    39    1
    38     8     9    1
    39     2     1    2
    40    27    24    1
    41    23     1    1
    42    23    24    1
    43     4     1    1
    44    39    40    2
    45    39    41   am
    46     1     3    1
    47    24    25    2
    48    24    26    1
