@<TRIPOS>MOLECULE
1lrk_NAD_A_1.pdb
 44 48 0 0 0
SMALL
GASTEIGER

@<TRIPOS>ATOM
      1  PA        31.3850    4.8080   37.8710 P.3   340  NAD340      0.2189
      2  O1A       31.8970    5.9030   36.9640 O.2   340  NAD340     -0.5170
      3  O2A       31.6790    5.0200   39.3550 O.3   340  NAD340     -0.4371
      4  O5B       32.0600    3.3870   37.5330 O.3   340  NAD340     -0.3112
      5  C5B       32.5580    3.1410   36.1900 C.3   340  NAD340      0.1813
      6  C4B       34.0520    2.8680   36.3050 C.3   340  NAD340      0.1821
      7  O4B       34.5690    2.4810   34.9940 O.3   340  NAD340     -0.3135
      8  C3B       34.8980    4.0650   36.7730 C.3   340  NAD340      0.2184
      9  O3B       35.6980    3.5940   37.8540 O.3   340  NAD340     -0.2174
     10  C2B       35.7160    4.4600   35.5150 C.3   340  NAD340      0.2570
     11  O2B       37.0810    4.8570   35.8380 O.3   340  NAD340     -0.2130
     12  C1B       35.7720    3.1320   34.7670 C.3   340  NAD340      0.3186
     13  N9A       35.8850    3.2550   33.3310 N.pl3 340  NAD340     -0.1439
     14  C8A       35.2060    4.0910   32.4800 C.3   340  NAD340      0.3377
     15  N7A       35.4880    3.8660   31.1950 N.2   340  NAD340     -0.2095
     16  C5A       36.4470    2.8510   31.2380 C.2   340  NAD340      0.2526
     17  C6A       37.1620    2.2210   30.2010 C.2   340  NAD340      0.4393
     18  N6A       37.0270    2.5240   28.8840 N.pl3 340  NAD340      0.2180
     19  N1A       38.0890    1.3080   30.6090 N.2   340  NAD340      0.0021
     20  C2A       38.2110    1.0330   31.9530 C.3   340  NAD340      0.5254
     21  N3A       37.6260    1.5790   32.9790 N.2   340  NAD340     -0.0055
     22  C4A       36.7200    2.4810   32.5430 C.2   340  NAD340      0.3518
     23  O3        29.8410    4.5720   37.6180 O.3   340  NAD340     -0.2703
     24  PN        28.8880    3.3460   38.1760 P.3   340  NAD340      0.2189
     25  O1N       27.7020    4.0410   38.6990 O.2   340  NAD340     -0.5170
     26  O2N       29.5780    2.5280   39.2210 O.3   340  NAD340     -0.4371
     27  O5D       28.4730    2.5520   36.8970 O.3   340  NAD340     -0.3112
     28  C5D       28.9420    1.2420   36.6470 C.3   340  NAD340      0.1813
     29  C4D       28.0970    0.7210   35.4960 C.3   340  NAD340      0.1799
     30  O4D       26.7240    0.7760   35.9080 O.3   340  NAD340     -0.3327
     31  C3D       28.1580    1.4190   34.1140 C.3   340  NAD340      0.2158
     32  O3D       28.0890    0.4180   33.1060 O.3   340  NAD340     -0.2175
     33  C2D       26.8550    2.2490   34.1880 C.3   340  NAD340      0.2309
     34  O2D       26.3020    2.5550   32.8970 O.3   340  NAD340     -0.2158
     35  C1D       25.9190    1.3150   34.9140 C.3   340  NAD340      0.2263
     36  N1N       24.8520    2.1320   35.5190 N.pl3 340  NAD340     -0.2787
     37  C2N       23.5770    2.2010   35.0360 C.3   340  NAD340      0.1244
     38  C3N       22.4390    2.9240   35.6950 C.2   340  NAD340      0.0544
     39  C7N       21.3000    3.2180   34.7990 C.2   340  NAD340      0.2818
     40  O7N       21.4300    2.9470   33.5940 O.2   340  NAD340     -0.2670
     41  N7N       20.1750    3.8030   35.2170 N.am  340  NAD340     -0.0839
     42  C4N       22.8450    3.9840   36.6900 C.2   340  NAD340      0.0033
     43  C5N       24.2480    3.8300   37.1490 C.2   340  NAD340      0.0157
     44  C6N       25.1210    2.9580   36.6390 C.2   340  NAD340      0.0633
@<TRIPOS>BOND
     1    18    17    1
     2    17    19    2
     3    17    16    1
     4    19    20    1
     5    15    16    2
     6    15    14    1
     7    16    22    1
     8    20    21    1
     9    14    13    1
    10    22    21    2
    11    22    13    1
    12    34    33    1
    13    32    31    1
    14    13    12    1
    15    40    39    2
    16    31    33    1
    17    31    29    1
    18    33    35    1
    19    12     7    1
    20    12    10    1
    21    39    41   am
    22    39    38    1
    23    35    36    1
    24    35    30    1
    25     7     6    1
    26    37    36    1
    27    37    38    1
    28    29    30    1
    29    29    28    1
    30    10    11    1
    31    10     8    1
    32    36    44    1
    33    38    42    2
    34     5     6    1
    35     5     4    1
    36     6     8    1
    37    44    43    2
    38    28    27    1
    39    42    43    1
    40     8     9    1
    41    27    24    1
    42     2     1    2
    43     4     1    1
    44    23     1    1
    45    23    24    1
    46     1     3    1
    47    24    25    2
    48    24    26    1
