@<TRIPOS>MOLECULE
1lrk_UD1_A_1.pdb
 39 41 0 0 0
SMALL
GASTEIGER

@<TRIPOS>ATOM
      1  C1'       17.2640    8.7810   34.7360 C.3   341  UD1341      0.2633
      2  C2'       18.1100    9.7220   33.8610 C.3   341  UD1341      0.1845
      3  C3'       17.1430   10.2040   32.7830 C.3   341  UD1341      0.2094
      4  C4'       16.5290    9.0890   31.9300 C.3   341  UD1341      0.2136
      5  C5'       16.0560    7.8980   32.7990 C.3   341  UD1341      0.1834
      6  C6'       15.8780    6.5900   31.9970 C.3   341  UD1341      0.2142
      7  C7'       19.7880   11.0000   34.8970 C.2   341  UD1341      0.2420
      8  C8'       20.2430   12.0920   35.8150 C.3   341  UD1341      0.0964
      9  N2'       18.5110   10.9120   34.5920 N.am  341  UD1341     -0.1992
     10  O1'       16.0470    9.4760   35.0810 O.3   341  UD1341     -0.2864
     11  O3'       17.7120   11.2450   31.9600 O.3   341  UD1341     -0.2183
     12  O4'       15.3940    9.5800   31.1970 O.3   341  UD1341     -0.2176
     13  O5'       16.9490    7.6220   33.9250 O.3   341  UD1341     -0.3260
     14  O6'       14.9150    5.6870   32.6060 O.3   341  UD1341     -0.2176
     15  O7'       20.5580   10.1900   34.4420 O.2   341  UD1341     -0.2733
     16  N1        14.5830   15.4090   39.7840 N.am  341  UD1341     -0.1766
     17  C2        14.2960   16.6630   40.2860 C.1   341  UD1341      0.2845
     18  N3        15.3960   17.4640   40.4620 N.2   341  UD1341     -0.2452
     19  C4        16.7420   17.1500   40.1950 C.1   341  UD1341      0.2182
     20  C5        16.9500   15.8430   39.6810 C.2   341  UD1341      0.1242
     21  C6        15.9080   15.0440   39.4980 C.2   341  UD1341      0.0929
     22  O2        13.1670   17.0560   40.5490 O.2   341  UD1341     -0.1918
     23  O4        17.5890   17.9860   40.4200 O.2   341  UD1341     -0.2085
     24  C1B       13.4680   14.4540   39.6340 C.3   341  UD1341      0.2401
     25  C2B       13.1800   13.8950   38.2630 C.3   341  UD1341      0.2319
     26  O2'       12.1900   14.6990   37.5690 O.3   341  UD1341     -0.2157
     27  C3B       12.5660   12.4970   38.6250 C.3   341  UD1341      0.2158
     28  C4B       13.3840   12.1020   39.8530 C.3   341  UD1341      0.1799
     29  O4B       13.7770   13.3500   40.4700 O.3   341  UD1341     -0.3320
     30  O3B       11.1540   12.5570   38.9260 O.3   341  UD1341     -0.2175
     31  C5B       14.6680   11.2990   39.6440 C.3   341  UD1341      0.1813
     32  O5B       15.4410   11.9420   38.6110 O.3   341  UD1341     -0.3112
     33  PA        16.8290   11.2940   38.1300 P.3   341  UD1341      0.2189
     34  O1A       17.2890   12.0130   36.8970 O.2   341  UD1341     -0.5170
     35  O2A       17.8310   11.1250   39.2150 O.3   341  UD1341     -0.4371
     36  O3A       16.3010    9.7650   37.7190 O.3   341  UD1341     -0.2703
     37  PB        15.3570    9.2440   36.5530 P.3   341  UD1341      0.2208
     38  O1B       15.2610    7.7350   36.8130 O.3   341  UD1341     -0.4371
     39  O2B       14.0160    9.9910   36.5040 O.2   341  UD1341     -0.5170
@<TRIPOS>BOND
     1    12     4    1
     2     4     3    1
     3     4     5    1
     4    11     3    1
     5     6    14    1
     6     6     5    1
     7     3     2    1
     8     5    13    1
     9     2     9    1
    10     2     1    1
    11    13     1    1
    12    15     7    2
    13     9     7   am
    14     1    10    1
    15     7     8    1
    16    10    37    1
    17    39    37    2
    18    37    38    1
    19    37    36    1
    20    34    33    2
    21    26    25    1
    22    36    33    1
    23    33    32    1
    24    33    35    1
    25    25    27    1
    26    25    24    1
    27    32    31    1
    28    27    30    1
    29    27    28    1
    30    21    20    2
    31    21    16    1
    32    24    16    1
    33    24    29    1
    34    31    28    1
    35    20    19    1
    36    16    17   am
    37    28    29    1
    38    19    23    2
    39    19    18    2
    40    17    18    2
    41    17    22    2
