@<TRIPOS>MOLECULE
1lrl_NAD_A_1.pdb
 44 48 0 0 0
SMALL
GASTEIGER

@<TRIPOS>ATOM
      1  PA        31.1110    4.7350   37.9310 P.3   340  NAD340      0.2189
      2  O1A       31.6350    5.7160   36.9470 O.2   340  NAD340     -0.5170
      3  O2A       31.4070    5.0600   39.3690 O.3   340  NAD340     -0.4371
      4  O5B       31.8490    3.3590   37.6380 O.3   340  NAD340     -0.3112
      5  C5B       32.3590    3.1310   36.2860 C.3   340  NAD340      0.1813
      6  C4B       33.8630    2.8620   36.3720 C.3   340  NAD340      0.1821
      7  O4B       34.3920    2.4680   35.0830 O.3   340  NAD340     -0.3135
      8  C3B       34.7180    4.0640   36.8140 C.3   340  NAD340      0.2184
      9  O3B       35.4880    3.6620   37.9600 O.3   340  NAD340     -0.2174
     10  C2B       35.5140    4.4700   35.5480 C.3   340  NAD340      0.2570
     11  O2B       36.8590    4.8410   35.9220 O.3   340  NAD340     -0.2130
     12  C1B       35.5520    3.1490   34.7800 C.3   340  NAD340      0.3186
     13  N9A       35.5600    3.2730   33.3360 N.pl3 340  NAD340     -0.1439
     14  C8A       34.8210    4.1020   32.5220 C.3   340  NAD340      0.3377
     15  N7A       35.1200    3.9360   31.2060 N.2   340  NAD340     -0.2095
     16  C5A       36.0490    2.8970   31.1970 C.2   340  NAD340      0.2526
     17  C6A       36.7300    2.2450   30.1640 C.2   340  NAD340      0.4393
     18  N6A       36.6530    2.4900   28.8620 N.pl3 340  NAD340      0.2180
     19  N1A       37.6590    1.3260   30.5180 N.2   340  NAD340      0.0021
     20  C2A       37.8620    1.0710   31.8460 C.3   340  NAD340      0.5254
     21  N3A       37.3120    1.6180   32.8680 N.2   340  NAD340     -0.0055
     22  C4A       36.3740    2.5150   32.4930 C.2   340  NAD340      0.3518
     23  O3        29.5770    4.5200   37.6840 O.3   340  NAD340     -0.2703
     24  PN        28.6450    3.2550   38.1850 P.3   340  NAD340      0.2189
     25  O1N       27.4700    3.9120   38.7390 O.2   340  NAD340     -0.5170
     26  O2N       29.3620    2.4310   39.1880 O.3   340  NAD340     -0.4371
     27  O5D       28.3300    2.5650   36.8230 O.3   340  NAD340     -0.3112
     28  C5D       28.7090    1.2510   36.6630 C.3   340  NAD340      0.1813
     29  C4D       27.8980    0.7730   35.5020 C.3   340  NAD340      0.1799
     30  O4D       26.5230    0.6900   35.8710 O.3   340  NAD340     -0.3327
     31  C3D       27.9880    1.4870   34.1560 C.3   340  NAD340      0.2158
     32  O3D       27.8090    0.4450   33.2190 O.3   340  NAD340     -0.2175
     33  C2D       26.6800    2.2700   34.1810 C.3   340  NAD340      0.2309
     34  O2D       26.2130    2.4980   32.8220 O.3   340  NAD340     -0.2158
     35  C1D       25.7540    1.2780   34.8750 C.3   340  NAD340      0.2261
     36  N1N       24.6020    1.9900   35.4510 N.pl3 340  NAD340     -0.2828
     37  C2N       24.7100    2.9220   36.4640 C.3   340  NAD340      0.1025
     38  C3N       23.5790    3.8870   36.7370 C.3   340  NAD340      0.1040
     39  C7N       23.7920    4.9360   37.7840 C.2   340  NAD340      0.2623
     40  O7N       22.8620    5.7620   38.0370 O.2   340  NAD340     -0.2716
     41  N7N       24.9460    5.0040   38.4630 N.am  340  NAD340     -0.0877
     42  C4N       22.1910    3.4570   36.3140 C.3   340  NAD340      0.0383
     43  C5N       22.2160    2.4610   35.2180 C.2   340  NAD340     -0.0098
     44  C6N       23.3050    1.7450   34.9420 C.2   340  NAD340      0.0584
@<TRIPOS>BOND
     1    18    17    1
     2    17    19    2
     3    17    16    1
     4    19    20    1
     5    16    15    2
     6    16    22    1
     7    15    14    1
     8    20    21    1
     9    22    21    2
    10    22    13    1
    11    14    13    1
    12    34    33    1
    13    32    31    1
    14    13    12    1
    15    31    33    1
    16    31    29    1
    17    33    35    1
    18    12     7    1
    19    12    10    1
    20    35    36    1
    21    35    30    1
    22    44    43    2
    23    44    36    1
    24     7     6    1
    25    43    42    1
    26    36    37    1
    27    29    30    1
    28    29    28    1
    29    10    11    1
    30    10     8    1
    31     5     6    1
    32     5     4    1
    33    42    38    1
    34     6     8    1
    35    37    38    1
    36    28    27    1
    37    38    39    1
    38     8     9    1
    39    27    24    1
    40     2     1    2
    41     4     1    1
    42    23     1    1
    43    23    24    1
    44    39    40    2
    45    39    41   am
    46     1     3    1
    47    24    25    2
    48    24    26    1
