@<TRIPOS>MOLECULE
1lrl_UPG_A_1.pdb
 36 38 0 0 0
SMALL
GASTEIGER

@<TRIPOS>ATOM
      1  N1        15.0010   15.2840   40.0650 N.am  341  UPG341     -0.1766
      2  C2        14.6550   16.5700   40.4680 C.1   341  UPG341      0.2845
      3  N3        15.7280   17.4060   40.6280 N.2   341  UPG341     -0.2452
      4  C4        17.0960   17.0840   40.4440 C.1   341  UPG341      0.2182
      5  C5        17.3610   15.7320   40.0690 C.2   341  UPG341      0.1242
      6  C6        16.3430   14.9100   39.8660 C.2   341  UPG341      0.0929
      7  O2        13.4990   16.9510   40.6660 O.2   341  UPG341     -0.1918
      8  O4        17.9300   17.9590   40.6340 O.2   341  UPG341     -0.2085
      9  C1C       13.9420   14.2820   39.8950 C.3   341  UPG341      0.2401
     10  C2C       13.6670   13.8340   38.4780 C.3   341  UPG341      0.2319
     11  O2C       12.7700   14.7610   37.8170 O.3   341  UPG341     -0.2157
     12  C3C       12.9760   12.4530   38.7220 C.3   341  UPG341      0.2158
     13  C4C       13.6500   11.9660   40.0120 C.3   341  UPG341      0.1799
     14  O4C       14.2850   13.1390   40.6060 O.3   341  UPG341     -0.3320
     15  O3C       11.5480   12.5150   38.7850 O.3   341  UPG341     -0.2175
     16  C5C       14.7590   10.9870   39.8050 C.3   341  UPG341      0.1813
     17  O5C       15.6020   11.7160   38.9120 O.3   341  UPG341     -0.3112
     18  PA        16.8910   11.0800   38.2420 P.3   341  UPG341      0.2189
     19  O1A       17.2280   11.8200   37.0060 O.2   341  UPG341     -0.5170
     20  O2A       18.0280   10.9130   39.1800 O.3   341  UPG341     -0.4371
     21  O3A       16.1570    9.6350   37.9460 O.3   341  UPG341     -0.2703
     22  PB        15.7650    8.9460   36.6200 P.3   341  UPG341      0.2208
     23  O1B       14.9680    7.7970   37.2230 O.3   341  UPG341     -0.4371
     24  O2B       14.9000    9.8040   35.7530 O.2   341  UPG341     -0.5170
     25  O3B       17.0970    8.4820   35.7290 O.3   341  UPG341     -0.2857
     26  C1'       17.8870    7.2620   35.9830 C.3   341  UPG341      0.2742
     27  C2'       19.3970    7.3890   35.5550 C.3   341  UPG341      0.2409
     28  C3'       19.6740    7.3900   34.0110 C.3   341  UPG341      0.2198
     29  C4'       18.7230    6.4920   33.1270 C.3   341  UPG341      0.2144
     30  C5'       17.3140    6.1990   33.8010 C.3   341  UPG341      0.1835
     31  C6'       16.3860    5.0910   33.2010 C.3   341  UPG341      0.2142
     32  O2'       20.1590    8.4170   36.2550 O.3   341  UPG341     -0.2149
     33  O3'       21.0790    7.1170   33.7620 O.3   341  UPG341     -0.2174
     34  O4'       18.5360    7.0970   31.8210 O.3   341  UPG341     -0.2176
     35  O5'       17.3630    6.0680   35.2900 O.3   341  UPG341     -0.3254
     36  O6'       15.0540    5.5770   32.6400 O.3   341  UPG341     -0.2176
@<TRIPOS>BOND
     1    34    29    1
     2    36    31    1
     3    29    30    1
     4    29    28    1
     5    31    30    1
     6    33    28    1
     7    30    35    1
     8    28    27    1
     9    35    26    1
    10    27    26    1
    11    27    32    1
    12    25    26    1
    13    25    22    1
    14    24    22    2
    15    22    23    1
    16    22    21    1
    17    19    18    2
    18    11    10    1
    19    21    18    1
    20    18    17    1
    21    18    20    1
    22    10    12    1
    23    10     9    1
    24    12    15    1
    25    12    13    1
    26    17    16    1
    27    16    13    1
    28     6     1    1
    29     6     5    2
    30     9     1    1
    31     9    14    1
    32    13    14    1
    33     1     2   am
    34     5     4    1
    35     4     3    2
    36     4     8    2
    37     2     3    2
    38     2     7    2
