@<TRIPOS>MOLECULE
1lrm_HBI_A_1.pdb
 17 18 0 0 0
SMALL
GASTEIGER

@<TRIPOS>ATOM
      1  N1        -7.5110   22.3620    7.5210 N.2   429  HBI429     -0.2672
      2  N2        -6.5270   20.4190    8.1790 N.pl3 429  HBI429     -0.0220
      3  C2        -6.3640   21.6880    7.7090 C.1   429  HBI429      0.2609
      4  N3        -5.1060   22.1700    7.4610 N.2   429  HBI429     -0.2466
      5  C4        -4.9520   23.4580    6.9860 C.1   429  HBI429      0.2569
      6  O4        -3.6540   23.8500    6.7730 O.2   429  HBI429     -0.2052
      7  C4A       -6.1600   24.3490    6.7230 C.2   429  HBI429      0.2989
      8  C8A       -7.4660   23.6470    7.0490 C.1   429  HBI429      0.1401
      9  N8        -8.7640   24.3440    6.8690 N.2   429  HBI429     -0.1992
     10  C7        -8.7670   25.7910    6.3320 C.3   429  HBI429      0.1940
     11  C6        -7.3920   26.4880    5.9940 C.2   429  HBI429      0.1466
     12  N5        -6.2000   25.7760    6.1950 N.2   429  HBI429     -0.3830
     13  C9        -7.4180   27.9810    5.4270 C.3   429  HBI429      0.2313
     14  O9        -8.4940   28.0770    4.5050 O.3   429  HBI429     -0.2130
     15  C10       -7.5220   29.1120    6.6040 C.3   429  HBI429      0.1888
     16  O10       -8.7680   28.9660    7.4260 O.3   429  HBI429     -0.2200
     17  C11       -6.3000   29.0370    7.6000 C.3   429  HBI429      0.0387
@<TRIPOS>BOND
     1    14    13    1
     2    13    11    1
     3    13    15    1
     4    11    12    2
     5    11    10    1
     6    12     7    2
     7    10     9    1
     8    15    16    1
     9    15    17    1
    10     7     5    1
    11     7     8    1
    12     6     5    2
    13     9     8    2
    14     5     4    2
    15     8     1    2
    16     4     3    2
    17     1     3    2
    18     3     2    1
