@<TRIPOS>MOLECULE
1lro_PEP_A_1.pdb
 10 9 0 0 0
SMALL
GASTEIGER

@<TRIPOS>ATOM
      1  C1        33.7770   52.6900   20.7190 C.2   1268  PEP1268     0.4216
      2  O1        34.8550   53.3670   20.9000 O.co2 1268  PEP1268    -0.2371
      3  O2'       32.7090   53.1990   20.6320 O.co2 1268  PEP1268    -0.2371
      4  C2        33.9880   51.1740   20.6290 C.2   1268  PEP1268     0.2283
      5  C3        35.1220   50.5090   20.9480 C.2   1268  PEP1268     0.0477
      6  O2        32.7330   50.5730   20.3500 O.2   1268  PEP1268    -0.3930
      7  P         32.4140   49.4740   19.2460 P.3   1268  PEP1268     0.5889
      8  O1P       32.9950   48.1950   19.6890 O.3   1268  PEP1268    -0.1039
      9  O2P       32.9680   49.8970   17.9310 O.2   1268  PEP1268    -0.2114
     10  O3P       30.8790   49.6430   19.1990 O.3   1268  PEP1268    -0.1039
@<TRIPOS>BOND
     1     9     7    2
     2    10     7    1
     3     7     8    1
     4     7     6    1
     5     6     4    1
     6     4     1    1
     7     4     5    2
     8     3     1   ar
     9     1     2   ar
