@<TRIPOS>MOLECULE
1lrq_A5P_A_1.pdb
 14 13 0 0 0
SMALL
GASTEIGER

@<TRIPOS>ATOM
      1  C1        36.0590   51.4330   17.8190 C.2   1269  A5P1269     0.2427
      2  O1        35.4120   50.4040   17.7990 O.2   1269  A5P1269    -0.2854
      3  C2        35.4580   52.7710   17.4370 C.3   1269  A5P1269     0.2486
      4  O2        34.0390   52.9020   17.4730 O.3   1269  A5P1269    -0.2118
      5  C3        36.5510   53.6530   18.0460 C.3   1269  A5P1269     0.2224
      6  O3        36.5910   54.0060   19.4270 O.3   1269  A5P1269    -0.2171
      7  C4        36.4800   54.9910   17.3040 C.3   1269  A5P1269     0.2151
      8  O4        35.3940   55.5690   16.5770 O.3   1269  A5P1269    -0.2176
      9  C5        37.3120   54.7170   16.0630 C.3   1269  A5P1269     0.1892
     10  O5        38.6850   54.6320   16.4110 O.3   1269  A5P1269    -0.2674
     11  P         39.6710   55.5330   15.5600 P.3   1269  A5P1269     0.5327
     12  O1P       40.9920   55.2220   16.1580 O.3   1269  A5P1269    -0.1145
     13  O2P       39.5390   55.0850   14.1520 O.2   1269  A5P1269    -0.2224
     14  O3P       39.2730   56.9520   15.7720 O.3   1269  A5P1269    -0.1145
@<TRIPOS>BOND
     1    13    11    2
     2    11    14    1
     3    11    12    1
     4    11    10    1
     5     9    10    1
     6     9     7    1
     7     8     7    1
     8     7     5    1
     9     3     4    1
    10     3     1    1
    11     3     5    1
    12     2     1    2
    13     5     6    1
