@<TRIPOS>MOLECULE
1lrq_PEP_A_1.pdb
 10 9 0 0 0
SMALL
GASTEIGER

@<TRIPOS>ATOM
      1  C1        33.3570   52.6810   20.5310 C.2   1268  PEP1268     0.4216
      2  O1        34.2550   53.4730   20.9630 O.co2 1268  PEP1268    -0.2371
      3  O2'       32.4060   53.1070   19.9520 O.co2 1268  PEP1268    -0.2371
      4  C2        33.6190   51.1740   20.7730 C.2   1268  PEP1268     0.2283
      5  C3        34.7930   50.6330   21.1900 C.2   1268  PEP1268     0.0477
      6  O2        32.4910   50.3840   20.4980 O.2   1268  PEP1268    -0.3930
      7  P         32.3030   49.3910   19.2830 P.3   1268  PEP1268     0.5889
      8  O1P       33.0100   48.1340   19.5320 O.3   1268  PEP1268    -0.1039
      9  O2P       32.8350   50.0510   18.0600 O.2   1268  PEP1268    -0.2114
     10  O3P       30.7650   49.3290   19.0580 O.3   1268  PEP1268    -0.1039
@<TRIPOS>BOND
     1     9     7    2
     2    10     7    1
     3     7     8    1
     4     7     6    1
     5     3     1   ar
     6     6     4    1
     7     1     4    1
     8     1     2   ar
     9     4     5    2
