@<TRIPOS>MOLECULE
1lrt_IMP_A_1.pdb
 23 25 0 0 0
SMALL
GASTEIGER

@<TRIPOS>ATOM
      1  P        -21.0950   34.9770   49.7810 P.3   801  IMP801      0.5327
      2  O1P      -19.7350   35.3460   49.2940 O.3   801  IMP801     -0.1145
      3  O2P      -21.2220   35.0730   51.2850 O.3   801  IMP801     -0.1145
      4  O3P      -21.5020   33.5220   49.2780 O.2   801  IMP801     -0.2224
      5  O5'      -22.0070   36.0310   49.2620 O.3   801  IMP801     -0.2675
      6  C5'      -23.3690   35.8540   49.1130 C.3   801  IMP801      0.1860
      7  C4'      -24.0610   37.0040   48.6310 C.3   801  IMP801      0.1823
      8  O4'      -23.8580   36.9800   47.1920 O.3   801  IMP801     -0.3135
      9  C3'      -25.5850   37.2800   48.7980 C.3   801  IMP801      0.2184
     10  O3'      -26.0800   38.0710   49.9040 O.3   801  IMP801     -0.2174
     11  C2'      -25.9490   37.9740   47.4770 C.3   801  IMP801      0.2570
     12  O2'      -25.7990   39.3400   47.4850 O.3   801  IMP801     -0.2130
     13  C1'      -25.0460   37.2850   46.4790 C.3   801  IMP801      0.3186
     14  N9       -25.7490   36.2290   45.7220 N.pl3 801  IMP801     -0.1435
     15  C8       -26.9080   35.5070   46.0800 C.3   801  IMP801      0.3382
     16  N7       -27.2750   34.6750   44.9720 N.2   801  IMP801     -0.2054
     17  C5       -26.2910   34.9440   43.9990 C.2   801  IMP801      0.2446
     18  C6       -26.1930   34.3500   42.6430 C.1   801  IMP801      0.1792
     19  O6       -26.9480   33.5270   42.1240 O.2   801  IMP801     -0.2203
     20  N1       -25.0520   34.8770   41.9660 N.2   801  IMP801     -0.1458
     21  C2       -24.1180   35.8350   42.4760 C.3   801  IMP801      0.4017
     22  N3       -24.2940   36.3210   43.7110 N.2   801  IMP801     -0.0334
     23  C4       -25.3760   35.8510   44.4220 C.2   801  IMP801      0.3528
@<TRIPOS>BOND
     1    20    21    1
     2    20    18    2
     3    19    18    2
     4    21    22    1
     5    18    17    1
     6    22    23    2
     7    17    23    1
     8    17    16    2
     9    23    14    1
    10    16    15    1
    11    14    15    1
    12    14    13    1
    13    13     8    1
    14    13    11    1
    15     8     7    1
    16    11    12    1
    17    11     9    1
    18     7     9    1
    19     7     6    1
    20     9    10    1
    21     6     5    1
    22     5     1    1
    23     4     1    2
    24     2     1    1
    25     1     3    1
