@<TRIPOS>MOLECULE
1lrt_TAD_A_1.pdb
 43 47 0 0 0
SMALL
GASTEIGER

@<TRIPOS>ATOM
      1  PA       -34.9250   41.6780   40.7010 P.3   901  TAD901      0.3820
      2  O1A      -36.3190   41.5350   41.1820 O.3   901  TAD901     -0.1392
      3  O2A      -34.3060   42.9820   41.1420 O.2   901  TAD901     -0.2548
      4  O5B      -34.8450   41.5810   39.1080 O.3   901  TAD901     -0.2896
      5  C5B      -35.3390   40.5030   38.3530 C.3   901  TAD901      0.1836
      6  C4B      -36.0310   41.0680   37.2010 C.3   901  TAD901      0.1822
      7  O4B      -37.4100   41.4050   37.1830 O.3   901  TAD901     -0.3135
      8  C3B      -35.3150   42.3220   36.6510 C.3   901  TAD901      0.2184
      9  O3B      -34.8030   42.0880   35.3210 O.3   901  TAD901     -0.2174
     10  C2B      -36.2940   43.4590   36.6320 C.3   901  TAD901      0.2570
     11  O2B      -36.0640   44.2970   35.5010 O.3   901  TAD901     -0.2130
     12  C1B      -37.6530   42.7630   36.7890 C.3   901  TAD901      0.3186
     13  N9A      -38.5330   43.4040   37.6990 N.pl3 901  TAD901     -0.1439
     14  C8A      -38.4150   43.5560   39.0560 C.3   901  TAD901      0.3377
     15  N7A      -39.4390   44.2100   39.5970 N.2   901  TAD901     -0.2095
     16  C5A      -40.1880   44.4540   38.5450 C.2   901  TAD901      0.2526
     17  C6A      -41.4170   45.1320   38.5600 C.2   901  TAD901      0.4393
     18  N6A      -41.9460   45.5960   39.6800 N.pl3 901  TAD901      0.2180
     19  N1A      -42.0340   45.2810   37.3370 N.2   901  TAD901      0.0021
     20  C2A      -41.5050   44.8060   36.1600 C.3   901  TAD901      0.5254
     21  N3A      -40.3380   44.1620   36.1700 N.2   901  TAD901     -0.0055
     22  C4A      -39.6470   43.9650   37.3380 C.2   901  TAD901      0.3518
     23  C3       -33.9210   40.3910   41.1120 C.3   901  TAD901      0.2353
     24  PN       -32.3340   39.9570   40.6910 P.3   901  TAD901      0.3820
     25  O1N      -31.6740   41.2750   40.7560 O.3   901  TAD901     -0.1392
     26  O2N      -32.3880   39.2790   39.3640 O.2   901  TAD901     -0.2548
     27  O5D      -31.7030   39.0350   41.8310 O.3   901  TAD901     -0.2896
     28  C5D      -32.0620   37.6540   42.0860 C.3   901  TAD901      0.1835
     29  C4D      -31.2540   37.1190   43.2910 C.3   901  TAD901      0.1786
     30  O4D      -29.8600   36.7910   43.0510 O.3   901  TAD901     -0.3431
     31  C3D      -31.3150   38.1750   44.3540 C.3   901  TAD901      0.2144
     32  O3D      -31.9730   37.6200   45.4930 O.3   901  TAD901     -0.2176
     33  C2D      -29.9070   38.5370   44.7440 C.3   901  TAD901      0.2189
     34  O2D      -29.6280   38.5640   46.1220 O.3   901  TAD901     -0.2172
     35  C1D      -29.0610   37.6230   43.9310 C.3   901  TAD901      0.2057
     36  C2N      -27.8840   38.1850   43.2030 C.2   901  TAD901      0.1642
     37  N3N      -27.0490   39.0400   43.7760 N.2   901  TAD901     -0.3963
     38  C4N      -26.0760   39.3560   42.9080 C.2   901  TAD901      0.1768
     39  C5N      -26.1450   38.7530   41.7000 C.3   901  TAD901      0.1280
     40  S1N      -27.5120   37.7090   41.5970 S.3   901  TAD901     -0.0765
     41  C6N      -25.0230   40.3240   43.3390 C.2   901  TAD901      0.3106
     42  O6N      -24.0840   40.6790   42.6310 O.2   901  TAD901     -0.2642
     43  N6N      -25.2060   40.7730   44.5820 N.am  901  TAD901     -0.0817
@<TRIPOS>BOND
     1     9     8    1
     2    11    10    1
     3    20    21    1
     4    20    19    1
     5    21    22    2
     6    10     8    1
     7    10    12    1
     8     8     6    1
     9    12     7    1
    10    12    13    1
    11     7     6    1
    12     6     5    1
    13    19    17    2
    14    22    13    1
    15    22    16    1
    16    13    14    1
    17     5     4    1
    18    16    17    1
    19    16    15    2
    20    17    18    1
    21    14    15    1
    22     4     1    1
    23    26    24    2
    24    24    25    1
    25    24    23    1
    26    24    27    1
    27     1    23    1
    28     1     3    2
    29     1     2    1
    30    40    39    1
    31    40    36    1
    32    39    38    1
    33    27    28    1
    34    28    29    1
    35    42    41    2
    36    38    41    1
    37    38    37    2
    38    30    29    1
    39    30    35    1
    40    36    37    2
    41    36    35    1
    42    29    31    1
    43    41    43   am
    44    35    33    1
    45    31    33    1
    46    31    32    1
    47    33    34    1
