@<TRIPOS>MOLECULE
1lru_BB2_A_1.pdb
 27 27 0 0 0
SMALL
GASTEIGER

@<TRIPOS>ATOM
      1  C5       -33.6620   28.5440   66.6210 C.3   501  BB2501      0.0603
      2  C3       -32.7850   28.4930   65.3750 C.2   501  BB2501      0.0873
      3  O4       -33.0980   29.0810   64.3220 O.2   501  BB2501     -0.5395
      4  N1       -31.6550   27.8160   65.3780 N.am  501  BB2501     -0.2030
      5  O2       -30.9460   27.7420   64.1470 O.3   501  BB2501     -0.4026
      6  C6       -34.4410   27.2210   66.7220 C.3   501  BB2501      0.0845
      7  C12      -35.6310   27.3460   67.6710 C.2   501  BB2501      0.2417
      8  O13      -35.5210   27.8780   68.7720 O.2   501  BB2501     -0.2733
      9  C7       -33.5900   26.0320   67.2000 C.3   501  BB2501      0.0095
     10  C8       -34.3740   24.7040   67.3500 C.3   501  BB2501      0.0005
     11  C9       -34.4360   23.9440   66.0590 C.3   501  BB2501      0.0000
     12  C10      -35.4750   22.8230   66.1300 C.3   501  BB2501      0.0000
     13  C11      -35.6930   22.1120   67.4400 C.3   501  BB2501      0.0000
     14  N14      -36.7500   26.7830   67.2450 N.am  501  BB2501     -0.1978
     15  C15      -37.9760   26.7650   68.0300 C.3   501  BB2501      0.1711
     16  C16      -38.9930   27.8160   67.5190 C.3   501  BB2501      0.0289
     17  C18      -40.2010   27.8240   68.3990 C.3   501  BB2501      0.0023
     18  C17      -38.3770   29.2070   67.5030 C.3   501  BB2501      0.0023
     19  C19      -38.5230   25.3480   67.8160 C.2   501  BB2501      0.2455
     20  O20      -38.6540   24.9030   66.6740 O.2   501  BB2501     -0.2730
     21  N21      -38.8410   24.6280   68.9100 N.am  501  BB2501     -0.2772
     22  C22      -39.3620   23.2540   68.8790 C.3   501  BB2501      0.1083
     23  C23      -38.8510   25.1460   70.2840 C.3   501  BB2501      0.0935
     24  C24      -38.6940   23.9040   71.0830 C.3   501  BB2501      0.0233
     25  C25      -39.5380   22.9190   70.3720 C.3   501  BB2501      0.0243
     26  C26      -40.6730   23.3770   68.0730 C.3   501  BB2501      0.2017
     27  O27      -41.3410   22.1560   67.7700 O.3   501  BB2501     -0.2186
@<TRIPOS>BOND
     1     5     4    1
     2     3     2    2
     3     2     4   am
     4     2     1    1
     5    11    12    1
     6    11    10    1
     7    12    13    1
     8     1     6    1
     9    20    19    2
    10     6     9    1
    11     6     7    1
    12     9    10    1
    13    14     7   am
    14    14    15    1
    15    18    16    1
    16    16    15    1
    17    16    17    1
    18     7     8    2
    19    27    26    1
    20    19    15    1
    21    19    21   am
    22    26    22    1
    23    22    21    1
    24    22    25    1
    25    21    23    1
    26    23    24    1
    27    25    24    1
