@<TRIPOS>MOLECULE
1lrw_PQQ_A_1.pdb
 24 26 0 0 0
SMALL
GASTEIGER

@<TRIPOS>ATOM
      1  N1        22.1050   43.2810   57.1410 N.2   701  PQQ701     -0.3986
      2  C2        21.3510   44.1270   56.3520 C.2   701  PQQ701      0.2104
      3  C2X       21.7580   44.6580   54.9970 C.2   701  PQQ701      0.4168
      4  O2A       22.9390   44.4580   54.6430 O.co2 701  PQQ701     -0.2377
      5  O2B       20.8950   45.2560   54.3190 O.co2 701  PQQ701     -0.2377
      6  C3        20.2070   44.4550   57.0250 C.2   701  PQQ701      0.0444
      7  C3A       20.2720   43.7900   58.2640 C.2   701  PQQ701      0.0711
      8  C1A       21.4790   43.0630   58.3050 C.2   701  PQQ701      0.1232
      9  C4        19.3220   43.8200   59.3830 C.2   701  PQQ701      0.2387
     10  O4        18.3420   44.4930   59.4650 O.2   701  PQQ701     -0.2830
     11  C5        19.7480   42.9810   60.6210 C.2   701  PQQ701      0.2601
     12  O5        18.9640   42.8850   61.5460 O.2   701  PQQ701     -0.2807
     13  C6A       21.0700   42.2400   60.6020 C.2   701  PQQ701      0.1617
     14  N6        21.3240   41.6540   61.7800 N.2   701  PQQ701     -0.3954
     15  C7        22.5010   41.0080   61.9300 C.2   701  PQQ701      0.2103
     16  C7X       22.7800   40.3240   63.2560 C.2   701  PQQ701      0.4168
     17  O7A       21.7910   40.0200   63.9560 O.co2 701  PQQ701     -0.2377
     18  O7B       23.9740   40.1210   63.5760 O.co2 701  PQQ701     -0.2377
     19  C8        23.4400   40.9340   60.9020 C.2   701  PQQ701      0.0420
     20  C9        23.2010   41.5470   59.6350 C.2   701  PQQ701      0.0734
     21  C9X       24.2750   41.4140   58.5550 C.2   701  PQQ701      0.3847
     22  O9A       25.3930   41.0090   58.9380 O.co2 701  PQQ701     -0.2409
     23  O9B       23.9790   41.6370   57.3610 O.co2 701  PQQ701     -0.2409
     24  C9A       21.9590   42.2420   59.4760 C.3   701  PQQ701      0.1366
@<TRIPOS>BOND
     1     5     3   ar
     2     4     3   ar
     3     3     2    1
     4     2     6    1
     5     2     1    2
     6     6     7    2
     7     1     8    2
     8    23    21   ar
     9     7     8    1
    10     7     9    1
    11     8    24    1
    12    21    22   ar
    13    21    20    1
    14     9    10    2
    15     9    11    1
    16    24    20    1
    17    24    13    1
    18    20    19    2
    19    13    11    1
    20    13    14    2
    21    11    12    2
    22    19    15    1
    23    14    15    2
    24    15    16    1
    25    16    18   ar
    26    16    17   ar
