@<TRIPOS>MOLECULE
1lry_BB2_A_1.pdb
 27 27 0 0 0
SMALL
GASTEIGER

@<TRIPOS>ATOM
      1  C5        12.0190   32.4070   37.7070 C.3   170  BB2170      0.0603
      2  C3        12.1050   31.4110   36.5650 C.2   170  BB2170      0.0873
      3  O4        13.1300   31.3790   35.8400 O.2   170  BB2170     -0.5395
      4  N1        11.0580   30.5850   36.4350 N.am  170  BB2170     -0.2030
      5  O2        10.9320   29.6030   35.4600 O.3   170  BB2170     -0.4026
      6  C6        11.2820   33.6640   37.2620 C.3   170  BB2170      0.0845
      7  C12       11.7260   34.8370   38.1180 C.2   170  BB2170      0.2417
      8  O13       11.7930   34.7350   39.3380 O.2   170  BB2170     -0.2733
      9  C7         9.7740   33.4760   37.4220 C.3   170  BB2170      0.0095
     10  C8         8.9320   33.9790   36.2510 C.3   170  BB2170      0.0005
     11  C9         9.2100   35.4370   35.9180 C.3   170  BB2170      0.0000
     12  C10        7.9250   36.2360   35.8600 C.3   170  BB2170      0.0000
     13  C11        6.8690   35.5050   35.0870 C.3   170  BB2170      0.0000
     14  N14       12.0460   35.9460   37.4590 N.am  170  BB2170     -0.1978
     15  C15       12.4720   37.1690   38.1300 C.3   170  BB2170      0.1711
     16  C16       13.9760   37.4780   37.8720 C.3   170  BB2170      0.0289
     17  C18       14.8450   36.2770   38.2090 C.3   170  BB2170      0.0023
     18  C17       14.4130   38.6620   38.7040 C.3   170  BB2170      0.0023
     19  C19       11.6110   38.2700   37.5200 C.2   170  BB2170      0.2455
     20  O20       11.5360   38.3840   36.2970 O.2   170  BB2170     -0.2730
     21  N21       10.9100   39.0590   38.3580 N.am  170  BB2170     -0.2772
     22  C22       10.0380   40.1540   37.9070 C.3   170  BB2170      0.1083
     23  C23       10.7610   38.8570   39.8090 C.3   170  BB2170      0.0935
     24  C24        9.3570   39.3580   40.0470 C.3   170  BB2170      0.0233
     25  C25        9.3430   40.5920   39.2030 C.3   170  BB2170      0.0243
     26  C26       11.0230   41.1880   37.3480 C.3   170  BB2170      0.2017
     27  O27       10.3750   42.4440   37.1880 O.3   170  BB2170     -0.2186
@<TRIPOS>BOND
     1    13    12    1
     2     5     4    1
     3     3     2    2
     4    12    11    1
     5    11    10    1
     6    10     9    1
     7    20    19    2
     8     4     2   am
     9     2     1    1
    10    27    26    1
    11     6     9    1
    12     6     1    1
    13     6     7    1
    14    26    22    1
    15    14     7   am
    16    14    15    1
    17    19    15    1
    18    19    21   am
    19    16    15    1
    20    16    17    1
    21    16    18    1
    22    22    21    1
    23    22    25    1
    24     7     8    2
    25    21    23    1
    26    25    24    1
    27    23    24    1
