@<TRIPOS>MOLECULE
1ls3_PLP_A_1.pdb
 15 15 0 0 0
SMALL
GASTEIGER

@<TRIPOS>ATOM
      1  N1        -5.2020  193.5000  -48.6580 N.ar  419  PLP419     -0.2452
      2  C2        -4.7380  194.7530  -48.6030 C.ar  419  PLP419      0.0978
      3  C2A       -3.3010  194.9310  -48.9150 C.3   419  PLP419      0.0555
      4  C3        -5.6770  195.7820  -48.2470 C.ar  419  PLP419      0.2049
      5  O3        -5.2580  197.0310  -48.1930 O.3   419  PLP419     -0.2857
      6  C4        -7.0320  195.4210  -47.9410 C.ar  419  PLP419      0.0182
      7  C4A       -7.9670  196.5080  -47.5860 C.3   419  PLP419      0.0342
      8  C5        -7.4540  194.0750  -47.9880 C.ar  419  PLP419      0.0261
      9  C6        -6.4830  193.1130  -48.3850 C.ar  419  PLP419      0.0965
     10  C5A       -8.7410  193.4490  -47.5960 C.3   419  PLP419      0.1815
     11  O4P       -9.9230  193.7420  -48.2880 O.3   419  PLP419     -0.2653
     12  P        -11.3650  193.3820  -47.8450 P.3   419  PLP419      0.5329
     13  O1P      -11.2600  191.9300  -47.5560 O.3   419  PLP419     -0.1145
     14  O2P      -11.6620  194.2890  -46.6060 O.3   419  PLP419     -0.1145
     15  O3P      -12.4130  193.6780  -48.8680 O.2   419  PLP419     -0.2224
@<TRIPOS>BOND
     1     3     2    1
     2    15    12    2
     3     1     2   ar
     4     1     9   ar
     5     2     4   ar
     6     9     8   ar
     7    11    12    1
     8    11    10    1
     9     4     5    1
    10     4     6   ar
    11     8     6   ar
    12     8    10    1
    13     6     7    1
    14    12    13    1
    15    12    14    1
