@<TRIPOS>MOLECULE
1ls5_III_C_1.pdb
 48 47 0 0 0
SMALL
GASTEIGER

@<TRIPOS>ATOM
      1  CA       -34.8580   39.9170   43.8260 C.3     1  IVA1        0.0868
      2  CB       -35.7650   40.4930   42.7360 C.3     1  IVA1        0.0091
      3  CG1      -37.1790   39.9850   43.0940 C.3     1  IVA1        0.0005
      4  CG2      -35.2780   40.1150   41.3090 C.3     1  IVA1        0.0005
      5  C        -33.4190   40.3060   43.7210 C.2     1  IVA1        0.2418
      6  O        -33.1170   41.4980   43.6180 O.2     1  IVA1       -0.2733
      7  N        -32.5800   39.2540   43.7740 N.am    2  VAL2       -0.1978
      8  CA       -31.1100   39.5350   43.7140 C.3     2  VAL2        0.1726
      9  C        -30.6010   38.3950   42.8470 C.2     2  VAL2        0.2616
     10  O        -31.1750   37.3090   42.8510 O.2     2  VAL2       -0.2715
     11  CB       -30.4800   39.4420   45.1370 C.3     2  VAL2        0.0290
     12  CG1      -29.0100   39.7290   45.1320 C.3     2  VAL2        0.0023
     13  CG2      -30.9050   40.5450   46.1080 C.3     2  VAL2        0.0023
     14  N        -29.5050   38.7300   42.1580 N.am    3  VAL3       -0.1963
     15  CA       -28.8780   37.7700   41.2600 C.3     3  VAL3        0.1727
     16  C        -27.3670   37.8230   41.6380 C.2     3  VAL3        0.2612
     17  O        -26.5870   38.5700   41.0350 O.2     3  VAL3       -0.2715
     18  CB       -29.0680   38.1680   39.7520 C.3     3  VAL3        0.0290
     19  CG1      -28.4030   37.1570   38.8060 C.3     3  VAL3        0.0023
     20  CG2      -30.5070   38.1430   39.3280 C.3     3  VAL3        0.0023
     21  N        -27.0040   37.0120   42.6390 N.am    4  STA4       -0.2031
     22  CA       -25.7790   37.1700   43.4350 C.3     4  STA4        0.1261
     23  CB       -26.3270   37.4980   44.8220 C.3     4  STA4        0.0243
     24  CG       -25.5920   38.4570   45.7320 C.3     4  STA4        0.0018
     25  CD1      -25.5430   39.8250   45.0910 C.3     4  STA4        0.0001
     26  CD2      -26.3300   38.5910   47.0360 C.3     4  STA4        0.0001
     27  CH       -24.8270   35.9360   43.4970 C.3     4  STA4        0.1809
     28  OH       -25.6200   34.8080   43.8340 O.3     4  STA4       -0.2208
     29  CM       -24.2420   35.5010   42.1460 C.3     4  STA4        0.1214
     30  C        -23.3600   36.5180   41.4960 C.2     4  STA4        0.2444
     31  O        -23.8530   37.5300   41.0090 O.2     4  STA4       -0.2732
     32  N        -22.0390   36.1970   41.5090 N.am    5  ALA5       -0.1977
     33  CA       -21.0640   37.0910   40.9050 C.3     5  ALA5        0.1728
     34  C        -21.0410   37.0410   39.3970 C.2     5  ALA5        0.2612
     35  O        -21.1830   35.9630   38.8360 O.2     5  ALA5       -0.2715
     36  CB       -19.6990   36.7370   41.4570 C.3     5  ALA5        0.0334
     37  N        -20.8880   38.1970   38.6930 N.am    6  STA6       -0.2031
     38  CA       -20.4570   38.1530   37.2160 C.3     6  STA6        0.1262
     39  CB       -21.5880   38.7670   36.3330 C.3     6  STA6        0.0243
     40  CG       -22.9920   38.1170   36.4460 C.3     6  STA6        0.0018
     41  CD1      -22.8640   36.6330   36.0930 C.3     6  STA6        0.0001
     42  CD2      -23.9500   38.8680   35.5370 C.3     6  STA6        0.0001
     43  CH       -19.0970   38.9170   36.9470 C.3     6  STA6        0.1830
     44  OH       -19.2500   40.4090   37.1140 O.3     6  STA6       -0.2207
     45  CM       -18.0210   38.2730   37.8240 C.3     6  STA6        0.1486
     46  C        -16.6700   38.8960   37.6780 C.2     6  STA6        0.3675
     47  O        -16.2600   39.6270   38.5580 O.co2   6  STA6       -0.2456
     48  OXT      -16.0480   38.6170   36.6410 O.co2   6  STA6       -0.2456
@<TRIPOS>BOND
     1    42    40    1
     2    41    40    1
     3    39    40    1
     4    39    38    1
     5    48    46   ar
     6    43    44    1
     7    43    38    1
     8    43    45    1
     9    38    37    1
    10    46    45    1
    11    46    47   ar
    12    37    34   am
    13    19    18    1
    14    35    34    2
    15    20    18    1
    16    34    33    1
    17    18    15    1
    18    33    36    1
    19    33    32    1
    20    31    30    2
    21    17    16    2
    22    15    16    1
    23    15    14    1
    24     4     2    1
    25    30    32   am
    26    30    29    1
    27    16    21   am
    28    29    27    1
    29    14     9   am
    30    21    22    1
    31     2     3    1
    32     2     1    1
    33     9    10    2
    34     9     8    1
    35    22    27    1
    36    22    23    1
    37    27    28    1
    38     6     5    2
    39     8     7    1
    40     8    11    1
    41     5     7   am
    42     5     1    1
    43    23    24    1
    44    25    24    1
    45    12    11    1
    46    11    13    1
    47    24    26    1
