@<TRIPOS>MOLECULE
1ls6_NPO_A_1.pdb
 10 10 0 0 0
SMALL
GASTEIGER

@<TRIPOS>ATOM
      1  C1        17.0540  104.7850   56.9900 C.ar  3001  NPO3001     0.1431
      2  C2        18.3690  105.2460   57.0740 C.ar  3001  NPO3001     0.0274
      3  C3        18.9770  105.3630   58.3340 C.ar  3001  NPO3001     0.0437
      4  C4        18.2690  105.0220   59.5050 C.ar  3001  NPO3001     0.1958
      5  C5        16.9430  104.5540   59.4440 C.ar  3001  NPO3001     0.0437
      6  C6        16.3320  104.4340   58.1820 C.ar  3001  NPO3001     0.0274
      7  OH        18.8950  105.1500   60.7000 O.3   3001  NPO3001    -0.2866
      8  N1        16.4080  104.6630   55.6680 N.pl3 3001  NPO3001     0.0577
      9  O2        17.0030  104.9570   54.6230 O.2   3001  NPO3001    -0.1261
     10  O3        15.2490  104.2590   55.6130 O.2   3001  NPO3001    -0.1261
@<TRIPOS>BOND
     1     9     8    2
     2    10     8    2
     3     8     1    1
     4     1     2   ar
     5     1     6   ar
     6     2     3   ar
     7     6     5   ar
     8     3     4   ar
     9     5     4   ar
    10     4     7    1
