@<TRIPOS>MOLECULE
1ls6_A3P_A_1.pdb
 27 29 0 0 0
SMALL
GASTEIGER

@<TRIPOS>ATOM
      1  P1        16.3530  116.8590   63.5900 P.3   2001  A3P2001     0.5327
      2  O1P       15.5410  116.1710   62.5670 O.2   2001  A3P2001    -0.2224
      3  O2P       17.2830  117.9300   63.1340 O.3   2001  A3P2001    -0.1145
      4  O3P       15.5150  117.1450   64.7790 O.3   2001  A3P2001    -0.1145
      5  P2        19.5320  109.9490   63.6490 P.3   2001  A3P2001     0.5327
      6  O4P       18.5520  109.7380   62.5550 O.2   2001  A3P2001    -0.2224
      7  O5P       20.9650  110.0880   63.2610 O.3   2001  A3P2001    -0.1145
      8  O6P       19.2140  109.0430   64.7950 O.3   2001  A3P2001    -0.1145
      9  O5'       19.1260  111.3660   64.2420 O.3   2001  A3P2001    -0.2675
     10  C5'       18.8310  112.4630   63.3750 C.3   2001  A3P2001     0.1859
     11  C4'       18.5760  113.7140   64.1810 C.3   2001  A3P2001     0.1796
     12  O4'       19.8040  114.0950   64.8850 O.3   2001  A3P2001    -0.3136
     13  C3'       18.1750  114.9540   63.3680 C.3   2001  A3P2001     0.1928
     14  O3'       17.3400  115.7480   64.2130 O.3   2001  A3P2001    -0.2673
     15  C2'       19.5350  115.6130   63.1440 C.3   2001  A3P2001     0.2543
     16  O2'       19.5050  116.9730   62.7380 O.3   2001  A3P2001    -0.2131
     17  C1'       20.1440  115.4320   64.5300 C.3   2001  A3P2001     0.3185
     18  N9        21.5970  115.6100   64.6250 N.pl3 2001  A3P2001    -0.1439
     19  C8        22.5810  115.1470   63.7800 C.3   2001  A3P2001     0.3377
     20  N7        23.7960  115.4740   64.1550 N.2   2001  A3P2001    -0.2095
     21  C5        23.5910  116.3410   65.2140 C.2   2001  A3P2001     0.2526
     22  C6        24.4790  117.1320   65.9920 C.2   2001  A3P2001     0.4393
     23  N6        25.8130  117.0960   65.8560 N.pl3 2001  A3P2001     0.2180
     24  N1        23.9470  117.8790   66.9970 N.2   2001  A3P2001     0.0021
     25  C2        22.6120  117.8090   67.2220 C.3   2001  A3P2001     0.5254
     26  N3        21.6710  117.1740   66.5000 N.2   2001  A3P2001    -0.0055
     27  C4        22.2390  116.4020   65.5450 C.2   2001  A3P2001     0.3518
@<TRIPOS>BOND
     1     6     5    2
     2     2     1    2
     3    16    15    1
     4     3     1    1
     5    15    13    1
     6    15    17    1
     7     7     5    1
     8    13    11    1
     9    13    14    1
    10    10    11    1
    11    10     9    1
    12     1    14    1
    13     1     4    1
    14     5     9    1
    15     5     8    1
    16    19    20    1
    17    19    18    1
    18    20    21    2
    19    11    12    1
    20    17    18    1
    21    17    12    1
    22    18    27    1
    23    21    27    1
    24    21    22    1
    25    27    26    2
    26    23    22    1
    27    22    24    2
    28    26    25    1
    29    24    25    1
