@<TRIPOS>MOLECULE
1ls9_HEM_A_1.pdb
 43 50 0 0 0
SMALL
GASTEIGER

@<TRIPOS>ATOM
      1 FE          1.6870   23.5650   14.8520 Fe     92  HEM92       0.0000
      2  CHA        5.0360   24.1860   15.2850 C.2    92  HEM92       0.0000
      3  CHB        2.3250   20.2090   14.6070 C.2    92  HEM92       0.0000
      4  CHC       -1.6580   22.9460   14.7110 C.2    92  HEM92       0.0000
      5  CHD        1.0650   26.9210   14.7810 C.2    92  HEM92       0.0000
      6  NA         3.3370   22.4120   14.9560 N.ar   92  HEM92       0.0000
      7  C1A        4.6330   22.8870   15.1330 C.ar   92  HEM92       0.0000
      8  C2A        5.5200   21.7450   15.0750 C.ar   92  HEM92       0.0000
      9  C3A        4.7790   20.6340   14.9450 C.ar   92  HEM92       0.0000
     10  C4A        3.4180   21.0490   14.8490 C.ar   92  HEM92       0.0000
     11  CMA        5.2060   19.1950   14.9050 C.3    92  HEM92       0.0000
     12  CAA        7.0590   21.8880   15.1910 C.3    92  HEM92       0.0000
     13  CBA        7.5780   22.3990   13.8110 C.3    92  HEM92       0.0000
     14  CGA        8.9820   22.9000   13.8810 C.2    92  HEM92       0.0000
     15  O1A        9.6340   23.0920   12.7730 O.co2  92  HEM92       0.0000
     16  O2A        9.5370   23.1870   14.9270 O.co2  92  HEM92       0.0000
     17  NB         0.5580   21.9170   14.6880 N.2    92  HEM92       0.0000
     18  C1B        1.0070   20.6270   14.5180 C.2    92  HEM92       0.0000
     19  C2B       -0.0960   19.7170   14.4280 C.2    92  HEM92       0.0000
     20  C3B       -1.2230   20.4840   14.5250 C.2    92  HEM92       0.0000
     21  C4B       -0.8320   21.8380   14.6560 C.2    92  HEM92       0.0000
     22  CMB        0.0190   18.2350   14.2040 C.3    92  HEM92       0.0000
     23  CAB       -2.6980   20.0240   14.5080 C.3    92  HEM92       0.0000
     24  CBB       -3.0710   19.1400   15.6260 C.3    92  HEM92       0.0000
     25  NC         0.0460   24.6980   14.7600 N.ar   92  HEM92       0.0000
     26  C1C       -1.2540   24.2460   14.6560 C.ar   92  HEM92       0.0000
     27  C2C       -2.1770   25.3820   14.5020 C.ar   92  HEM92       0.0000
     28  C3C       -1.3850   26.4840   14.4930 C.ar   92  HEM92       0.0000
     29  C4C        0.0040   26.0720   14.6580 C.ar   92  HEM92       0.0000
     30  CMC       -3.6690   25.2610   14.3150 C.3    92  HEM92       0.0000
     31  CAC       -1.8110   27.9270   14.2530 C.3    92  HEM92       0.0000
     32  CBC       -2.8510   28.4730   15.0950 C.3    92  HEM92       0.0000
     33  ND         2.8260   25.2230   15.0060 N.2    92  HEM92       0.0000
     34  C1D        2.3590   26.5240   14.9370 C.2    92  HEM92       0.0000
     35  C2D        3.4630   27.3910   15.2660 C.2    92  HEM92       0.0000
     36  C3D        4.5450   26.6510   15.4190 C.2    92  HEM92       0.0000
     37  C4D        4.1850   25.2630   15.2730 C.2    92  HEM92       0.0000
     38  CMD        3.3150   28.9150   15.3650 C.3    92  HEM92       0.0000
     39  CAD        5.9420   27.1190   15.8460 C.3    92  HEM92       0.0000
     40  CBD        6.0580   26.9430   17.4000 C.3    92  HEM92       0.0000
     41  CGD        7.3530   27.5290   17.8490 C.2    92  HEM92       0.0000
     42  O1D        8.3790   26.8250   17.9530 O.co2  92  HEM92       0.0000
     43  O2D        7.3790   28.7430   18.0900 O.co2  92  HEM92       0.0000
@<TRIPOS>BOND
     1    15    14   ar
     2    13    14    1
     3    13    12    1
     4    14    16   ar
     5    22    19    1
     6    31    28    1
     7    31    32    1
     8    30    27    1
     9    19    18    1
    10    19    20    2
    11    28    27   ar
    12    28    29   ar
    13    27    26   ar
    14    23    20    1
    15    23    24    1
    16    18     3    1
    17    18    17    2
    18    20    21    1
    19     3    10    2
    20    21    17    1
    21    21     4    2
    22    26     4    1
    23    26    25   ar
    24    29    25   ar
    25    29     5    1
    26    17     1    1
    27    25     1    1
    28     5    34    2
    29    10     9   ar
    30    10     6   ar
    31     1     6    1
    32     1    33    1
    33    11     9    1
    34    34    33    1
    35    34    35    1
    36     9     8   ar
    37     6     7   ar
    38    33    37    2
    39     8     7   ar
    40     8    12    1
    41     7     2    2
    42    35    38    1
    43    35    36    2
    44    37     2    1
    45    37    36    1
    46    36    39    1
    47    39    40    1
    48    40    41    1
    49    41    42   ar
    50    41    43   ar
