@<TRIPOS>MOLECULE
1lsh_UPL_A_12.pdb
 13 12 0 0 0
SMALL
GASTEIGER

@<TRIPOS>ATOM
      1  C1        65.8540   63.4480   16.8000 C.3   2015  UPL2015     0.0000
      2  C2        64.7970   64.3120   16.0570 C.3   2015  UPL2015     0.0000
      3  C3        63.8900   65.0640   17.0340 C.3   2015  UPL2015     0.0000
      4  C4        62.5990   65.5080   16.3230 C.3   2015  UPL2015     0.0000
      5  C5        61.4570   66.0640   17.1540 C.3   2015  UPL2015     0.0000
      6  C6        61.2230   65.3780   18.4490 C.3   2015  UPL2015     0.0000
      7  C7        60.4430   66.2110   19.4690 C.3   2015  UPL2015     0.0000
      8  C8        60.8070   65.9330   20.8810 C.3   2015  UPL2015     0.0000
      9  C9        59.7290   65.2310   21.7340 C.3   2015  UPL2015     0.0000
     10  C10       59.5760   65.7630   23.1440 C.3   2015  UPL2015     0.0000
     11  C11       60.7650   66.6300   23.5600 C.3   2015  UPL2015     0.0000
     12  C12       60.2990   67.7510   24.4330 C.3   2015  UPL2015     0.0000
     13  C13       60.5830   67.3160   25.8530 C.3   2015  UPL2015     0.0000
@<TRIPOS>BOND
     1     2     1    1
     2     2     3    1
     3     4     3    1
     4     4     5    1
     5     5     6    1
     6     6     7    1
     7     7     8    1
     8     8     9    1
     9     9    10    1
    10    10    11    1
    11    11    12    1
    12    12    13    1
