@<TRIPOS>MOLECULE
1lsj_NAD_A_1.pdb
 44 48 0 0 0
SMALL
GASTEIGER

@<TRIPOS>ATOM
      1  PA        42.9090   35.2130   30.6920 P.3   350  NAD350      0.2189
      2  O1A       44.3090   34.9420   30.2640 O.2   350  NAD350     -0.5170
      3  O2A       42.1810   34.0290   31.2270 O.3   350  NAD350     -0.4371
      4  O5B       42.0590   35.8290   29.4600 O.3   350  NAD350     -0.3112
      5  C5B       42.5710   36.7480   28.4560 C.3   350  NAD350      0.1813
      6  C4B       42.1410   36.4280   27.1490 C.3   350  NAD350      0.1821
      7  O4B       42.6090   37.4540   26.2360 O.3   350  NAD350     -0.3135
      8  C3B       42.6700   35.1220   26.5510 C.3   350  NAD350      0.2184
      9  O3B       41.6510   34.1110   26.4810 O.3   350  NAD350     -0.2174
     10  C2B       43.3440   35.6000   25.2450 C.3   350  NAD350      0.2570
     11  O2B       43.2440   34.6250   24.1840 O.3   350  NAD350     -0.2130
     12  C1B       42.6270   36.9170   24.9540 C.3   350  NAD350      0.3186
     13  N9A       43.2390   37.8670   23.9970 N.pl3 350  NAD350     -0.1439
     14  C8A       44.5260   38.3160   23.9360 C.3   350  NAD350      0.3377
     15  N7A       44.7920   39.1530   22.9320 N.2   350  NAD350     -0.2095
     16  C5A       43.5830   39.2680   22.2750 C.2   350  NAD350      0.2526
     17  C6A       43.1500   39.9790   21.1190 C.2   350  NAD350      0.4393
     18  N6A       43.8850   40.7550   20.3440 N.pl3 350  NAD350      0.2180
     19  N1A       41.8440   39.8870   20.7120 N.2   350  NAD350      0.0021
     20  C2A       40.9920   39.0980   21.4500 C.3   350  NAD350      0.5254
     21  N3A       41.3050   38.3950   22.5270 N.2   350  NAD350     -0.0055
     22  C4A       42.6060   38.5000   22.9140 C.2   350  NAD350      0.3518
     23  O3        42.9810   36.2690   31.8390 O.3   350  NAD350     -0.2703
     24  PN        41.9870   37.1130   32.8500 P.3   350  NAD350      0.2189
     25  O1N       42.2260   36.5900   34.2110 O.3   350  NAD350     -0.4371
     26  O2N       40.5720   36.8730   32.4570 O.2   350  NAD350     -0.5170
     27  O5D       42.5150   38.6030   32.7760 O.3   350  NAD350     -0.3112
     28  C5D       41.7620   39.7310   32.3110 C.3   350  NAD350      0.1813
     29  C4D       42.6390   40.9600   32.3390 C.3   350  NAD350      0.1799
     30  O4D       42.1740   41.7340   33.4660 O.3   350  NAD350     -0.3327
     31  C3D       44.1400   40.7730   32.5500 C.3   350  NAD350      0.2158
     32  O3D       44.9070   41.6200   31.7030 O.3   350  NAD350     -0.2175
     33  C2D       44.3310   41.0620   34.0440 C.3   350  NAD350      0.2309
     34  O2D       45.6310   41.5530   34.4170 O.3   350  NAD350     -0.2158
     35  C1D       43.1810   41.9950   34.4040 C.3   350  NAD350      0.2263
     36  N1N       42.5470   41.7770   35.7090 N.pl3 350  NAD350     -0.2787
     37  C2N       42.6110   40.5380   36.3720 C.3   350  NAD350      0.1244
     38  C3N       41.8300   40.2400   37.6040 C.2   350  NAD350      0.0544
     39  C7N       41.9120   38.8480   38.1150 C.2   350  NAD350      0.2818
     40  O7N       41.2560   38.5600   39.1350 O.2   350  NAD350     -0.2670
     41  N7N       42.6400   37.8680   37.5350 N.am  350  NAD350     -0.0839
     42  C4N       41.0760   41.4160   38.2040 C.2   350  NAD350      0.0033
     43  C5N       41.1320   42.7080   37.4410 C.2   350  NAD350      0.0157
     44  C6N       41.7920   42.8510   36.2940 C.2   350  NAD350      0.0633
@<TRIPOS>BOND
     1    18    17    1
     2    19    17    2
     3    19    20    1
     4    17    16    1
     5    20    21    1
     6    16    22    1
     7    16    15    2
     8    21    22    2
     9    22    13    1
    10    15    14    1
    11    14    13    1
    12    13    12    1
    13    11    10    1
    14    12    10    1
    15    12     7    1
    16    10     8    1
    17     7     6    1
    18     9     8    1
    19     8     6    1
    20     6     5    1
    21     5     4    1
    22     4     1    1
    23     2     1    2
    24     1     3    1
    25     1    23    1
    26    32    31    1
    27    23    24    1
    28    28    29    1
    29    28    27    1
    30    29    31    1
    31    29    30    1
    32    26    24    2
    33    31    33    1
    34    27    24    1
    35    24    25    1
    36    30    35    1
    37    33    35    1
    38    33    34    1
    39    35    36    1
    40    36    44    1
    41    36    37    1
    42    44    43    2
    43    37    38    1
    44    43    42    1
    45    41    39   am
    46    38    39    1
    47    38    42    2
    48    39    40    2
