@<TRIPOS>MOLECULE
1lsl_FUC_A_1.pdb
 10 10 0 0 0
SMALL
GASTEIGER

@<TRIPOS>ATOM
      1  C1        70.9700  101.9120    9.4020 C.3   1489  FUC1489     0.1776
      2  C2        72.1400  101.3810    8.5340 C.3   1489  FUC1489     0.2141
      3  C3        73.2420  102.4490    8.5130 C.3   1489  FUC1489     0.2172
      4  C4        73.6510  102.8470    9.9410 C.3   1489  FUC1489     0.2116
      5  C5        72.4260  103.1870   10.8140 C.3   1489  FUC1489     0.1483
      6  C6        72.7980  103.3480   12.2750 C.3   1489  FUC1489     0.0349
      7  O2        71.7170  101.1170    7.2040 O.3   1489  FUC1489    -0.2176
      8  O3        74.3730  101.9620    7.7990 O.3   1489  FUC1489    -0.2175
      9  O4        74.4080  101.8050   10.5420 O.3   1489  FUC1489    -0.2177
     10  O5        71.4320  102.1350   10.7420 O.3   1489  FUC1489    -0.3508
@<TRIPOS>BOND
     1     7     2    1
     2     8     3    1
     3     3     2    1
     4     3     4    1
     5     2     1    1
     6     1    10    1
     7     4     9    1
     8     4     5    1
     9    10     5    1
    10     5     6    1
