@<TRIPOS>MOLECULE
1lsl_FUL_A_1.pdb
 10 10 0 0 0
SMALL
GASTEIGER

@<TRIPOS>ATOM
      1  C1        27.7760   64.5600    7.6790 C.3   1432  FUL1432     0.1776
      2  C2        26.8180   65.5960    8.3190 C.3   1432  FUL1432     0.2141
      3  O2        25.8600   64.9270    9.1300 O.3   1432  FUL1432    -0.2176
      4  C3        27.5750   66.5990    9.1900 C.3   1432  FUL1432     0.2172
      5  O3        26.6880   67.6330    9.5870 O.3   1432  FUL1432    -0.2175
      6  C4        28.7480   67.2010    8.4250 C.3   1432  FUL1432     0.2116
      7  O4        28.2510   67.9430    7.3200 O.3   1432  FUL1432    -0.2177
      8  C5        29.6470   66.0710    7.9280 C.3   1432  FUL1432     0.1483
      9  C6        30.8530   66.5730    7.1500 C.3   1432  FUL1432     0.0349
     10  O5        28.8980   65.2100    7.0450 O.3   1432  FUL1432    -0.3508
@<TRIPOS>BOND
     1    10     1    1
     2    10     8    1
     3     9     8    1
     4     7     6    1
     5     1     2    1
     6     8     6    1
     7     2     3    1
     8     2     4    1
     9     6     4    1
    10     4     5    1
