@<TRIPOS>MOLECULE
1lso_NAD_A_1.pdb
 44 48 0 0 0
SMALL
GASTEIGER

@<TRIPOS>ATOM
      1  PA        42.5730   36.2710   30.2940 P.3   350  NAD350      0.2189
      2  O1A       43.8930   35.8240   29.7630 O.2   350  NAD350     -0.5170
      3  O2A       41.8220   35.2660   31.0940 O.3   350  NAD350     -0.4371
      4  O5B       41.6380   36.7350   29.0680 O.3   350  NAD350     -0.3112
      5  C5B       42.0560   37.5690   27.9510 C.3   350  NAD350      0.1813
      6  C4B       41.4730   37.1380   26.7370 C.3   350  NAD350      0.1821
      7  O4B       41.8510   38.0900   25.7240 O.3   350  NAD350     -0.3135
      8  C3B       41.9630   35.7970   26.1830 C.3   350  NAD350      0.2184
      9  O3B       40.9030   34.8340   26.1870 O.3   350  NAD350     -0.2174
     10  C2B       42.5800   36.1650   24.8160 C.3   350  NAD350      0.2570
     11  O2B       42.4360   35.1540   23.7970 O.3   350  NAD350     -0.2130
     12  C1B       41.8650   37.4640   24.4780 C.3   350  NAD350      0.3186
     13  N9A       42.5250   38.3670   23.5260 N.pl3 350  NAD350     -0.1439
     14  C8A       43.8290   38.7460   23.5130 C.3   350  NAD350      0.3377
     15  N7A       44.1740   39.5860   22.5370 N.2   350  NAD350     -0.2095
     16  C5A       42.9960   39.7690   21.8480 C.2   350  NAD350      0.2526
     17  C6A       42.6500   40.5230   20.7090 C.2   350  NAD350      0.4393
     18  N6A       43.4680   41.2740   20.0040 N.pl3 350  NAD350      0.2180
     19  N1A       41.3700   40.5080   20.2410 N.2   350  NAD350      0.0021
     20  C2A       40.4420   39.7500   20.9130 C.3   350  NAD350      0.5254
     21  N3A       40.6680   39.0100   21.9810 N.2   350  NAD350     -0.0055
     22  C4A       41.9570   39.0380   22.4250 C.2   350  NAD350      0.3518
     23  O3        42.7920   37.5750   31.1180 O.3   350  NAD350     -0.2703
     24  PN        41.8510   38.5450   32.0490 P.3   350  NAD350      0.2189
     25  O1N       42.3910   38.2170   33.3720 O.3   350  NAD350     -0.4371
     26  O2N       40.4400   38.0830   31.9640 O.2   350  NAD350     -0.5170
     27  O5D       42.1850   40.0750   31.7900 O.3   350  NAD350     -0.3112
     28  C5D       41.1890   41.0290   31.4240 C.3   350  NAD350      0.1813
     29  C4D       41.7230   42.4410   31.4170 C.3   350  NAD350      0.1799
     30  O4D       41.2470   42.8400   32.7140 O.3   350  NAD350     -0.3327
     31  C3D       43.2180   42.7600   31.4630 C.3   350  NAD350      0.2158
     32  O3D       43.4700   44.0230   30.8320 O.3   350  NAD350     -0.2175
     33  C2D       43.5490   42.8080   32.9610 C.3   350  NAD350      0.2309
     34  O2D       44.5890   43.7200   33.3390 O.3   350  NAD350     -0.2158
     35  C1D       42.2500   43.2130   33.6070 C.3   350  NAD350      0.2263
     36  N1N       41.9480   42.5540   34.8810 N.pl3 350  NAD350     -0.2787
     37  C2N       42.4190   41.2780   35.2920 C.3   350  NAD350      0.1244
     38  C3N       42.0130   40.6670   36.6090 C.2   350  NAD350      0.0544
     39  C7N       42.5490   39.3300   37.0060 C.2   350  NAD350      0.2818
     40  O7N       42.1860   38.8320   38.0960 O.2   350  NAD350     -0.2670
     41  N7N       43.4140   38.6130   36.2570 N.am  350  NAD350     -0.0839
     42  C4N       41.0830   41.5090   37.4720 C.2   350  NAD350      0.0033
     43  C5N       40.6570   42.8380   36.9250 C.2   350  NAD350      0.0157
     44  C6N       41.0620   43.2950   35.7440 C.2   350  NAD350      0.0633
@<TRIPOS>BOND
     1    18    17    1
     2    19    17    2
     3    19    20    1
     4    17    16    1
     5    20    21    1
     6    16    22    1
     7    16    15    2
     8    21    22    2
     9    22    13    1
    10    15    14    1
    11    14    13    1
    12    13    12    1
    13    11    10    1
    14    12    10    1
    15    12     7    1
    16    10     8    1
    17     7     6    1
    18     8     9    1
    19     8     6    1
    20     6     5    1
    21     5     4    1
    22     4     1    1
    23     2     1    2
    24     1     3    1
    25     1    23    1
    26    32    31    1
    27    23    24    1
    28    29    28    1
    29    29    31    1
    30    29    30    1
    31    28    27    1
    32    31    33    1
    33    27    24    1
    34    26    24    2
    35    24    25    1
    36    30    35    1
    37    33    34    1
    38    33    35    1
    39    35    36    1
    40    36    37    1
    41    36    44    1
    42    37    38    1
    43    44    43    2
    44    41    39   am
    45    38    39    1
    46    38    42    2
    47    43    42    1
    48    39    40    2
