@<TRIPOS>MOLECULE
1lsp_BUL_A_1.pdb
 35 36 0 0 0
SMALL
GASTEIGER

@<TRIPOS>ATOM
      1  O1         4.1630   -3.1270   24.9870 O.3   295  BUL295     -0.3263
      2  C2         5.2550   -2.4470   24.4930 C.3   295  BUL295      0.2585
      3  C3         6.5050   -2.5870   25.2740 C.3   295  BUL295      0.1842
      4  C4         6.7920   -4.0060   25.7380 C.3   295  BUL295      0.2085
      5  C5         5.5900   -4.5380   26.5110 C.3   295  BUL295      0.2048
      6  C6         4.3250   -4.2310   25.7680 C.3   295  BUL295      0.1826
      7  N7         4.9160    1.7760   22.7120 N.3   295  BUL295     -0.2064
      8  C8         3.3880    1.5440   22.6640 C.3   295  BUL295      0.1530
      9  C9         3.1450    0.3540   23.5890 C.3   295  BUL295      0.0579
     10  C10        4.3740   -0.4930   23.3750 C.3   295  BUL295      0.1382
     11  C11        5.6070    0.4740   23.0820 C.3   295  BUL295      0.1333
     12  C12        3.0080   -4.6940   26.2870 C.3   295  BUL295      0.2142
     13  O13        2.1120   -4.8420   25.1480 O.3   295  BUL295     -0.2176
     14  O14        5.8080   -5.9770   26.4580 O.3   295  BUL295     -0.2384
     15  O15        7.6010   -3.5370   26.7920 O.3   295  BUL295     -0.2183
     16  N16        7.5630   -1.7880   24.6870 N.am  295  BUL295     -0.1992
     17  C17        8.0930   -0.6680   25.2200 C.2   295  BUL295      0.2420
     18  O18        7.4350   -0.0490   26.0300 O.2   295  BUL295     -0.2733
     19  C19        9.2050    0.0170   24.4870 C.3   295  BUL295      0.0964
     20  O20        4.7910   -1.1840   24.5250 O.3   295  BUL295     -0.3301
     21  C21        6.3910   -0.0530   21.8440 C.3   295  BUL295      0.2018
     22  O22        5.6250    0.3840   20.7370 O.3   295  BUL295     -0.2188
     23  C23        2.8560    2.9250   22.9870 C.2   295  BUL295      0.2573
     24  O24        3.4520    3.7150   23.7390 O.2   295  BUL295     -0.2718
     25  N25        1.5710    3.1100   22.6190 N.am  295  BUL295     -0.2025
     26  C26        0.9760    4.4850   22.6990 C.3   295  BUL295      0.1366
     27  C27        0.0290    4.5770   23.8900 C.3   295  BUL295      0.1286
     28  S28       -0.4100    6.2840   24.0780 S.3   295  BUL295     -0.1942
     29  O29       -1.5360    6.4610   23.1780 O.3   295  BUL295     -0.3074
     30  O30       -0.9840    6.3560   25.4320 O.3   295  BUL295     -0.3074
     31  O31        0.7490    7.1760   23.9940 O.3   295  BUL295     -0.3074
     32  S32        5.8650   -6.4570   27.9240 S.3   295  BUL295     -0.0001
     33  O33        4.7050   -5.9000   28.6250 O.3   295  BUL295     -0.2682
     34  O34        5.3900   -7.8400   27.8850 O.2   295  BUL295     -0.3452
     35  O35        7.2140   -6.5820   28.4590 O.2   295  BUL295     -0.3452
@<TRIPOS>BOND
     1    22    21    1
     2    21    11    1
     3    25    26    1
     4    25    23   am
     5     8     7    1
     6     8    23    1
     7     8     9    1
     8    26    27    1
     9     7    11    1
    10    23    24    2
    11    11    10    1
    12    29    28    1
    13    10     9    1
    14    10    20    1
    15    27    28    1
    16    31    28    1
    17    28    30    1
    18    19    17    1
    19     2    20    1
    20     2     1    1
    21     2     3    1
    22    16    17   am
    23    16     3    1
    24     1     6    1
    25    13    12    1
    26    17    18    2
    27     3     4    1
    28     4     5    1
    29     4    15    1
    30     6    12    1
    31     6     5    1
    32    14     5    1
    33    14    32    1
    34    34    32    2
    35    32    35    2
    36    32    33    1
