@<TRIPOS>MOLECULE
1lss_NAD_A_1.pdb
 44 48 0 0 0
SMALL
GASTEIGER

@<TRIPOS>ATOM
      1  PA        43.7610   12.1140   86.1320 P.3   1001  NAD1001     0.2189
      2  O1A       45.1490   11.7770   85.7450 O.2   1001  NAD1001    -0.5170
      3  O2A       43.1090   10.9730   86.8420 O.3   1001  NAD1001    -0.4371
      4  O5B       42.8660   12.4530   84.8920 O.3   1001  NAD1001    -0.3112
      5  C5B       43.1330   13.4720   83.9230 C.3   1001  NAD1001     0.1813
      6  C4B       41.7710   13.6680   83.3920 C.3   1001  NAD1001     0.1821
      7  O4B       41.6190   14.6620   82.3110 O.3   1001  NAD1001    -0.3135
      8  C3B       41.1110   12.3640   82.8980 C.3   1001  NAD1001     0.2184
      9  O3B       39.7800   12.2000   83.4780 O.3   1001  NAD1001    -0.2174
     10  C2B       41.2430   12.5950   81.3730 C.3   1001  NAD1001     0.2570
     11  O2B       40.3240   11.7600   80.6390 O.3   1001  NAD1001    -0.2130
     12  C1B       40.8670   14.0540   81.3280 C.3   1001  NAD1001     0.3186
     13  N9A       40.9940   14.7850   80.0480 N.pl3 1001  NAD1001    -0.1439
     14  C8A       40.1250   15.6970   79.4920 C.3   1001  NAD1001     0.3377
     15  N7A       40.5260   16.1940   78.2980 N.2   1001  NAD1001    -0.2095
     16  C5A       41.7260   15.5470   78.0940 C.2   1001  NAD1001     0.2526
     17  C6A       42.6560   15.6170   77.0390 C.2   1001  NAD1001     0.4393
     18  N6A       42.4860   16.3980   75.9790 N.pl3 1001  NAD1001     0.2180
     19  N1A       43.7800   14.8280   77.1380 N.2   1001  NAD1001     0.0021
     20  C2A       43.9300   14.0230   78.2610 C.3   1001  NAD1001     0.5254
     21  N3A       43.1130   13.9050   79.2820 N.2   1001  NAD1001    -0.0055
     22  C4A       42.0300   14.6800   79.1560 C.2   1001  NAD1001     0.3518
     23  O3        43.7150   13.3620   86.9960 O.3   1001  NAD1001    -0.2703
     24  PN        43.7160   13.4210   88.6130 P.3   1001  NAD1001     0.2189
     25  O1N       42.8570   12.3460   89.1750 O.3   1001  NAD1001    -0.4371
     26  O2N       43.2450   14.7600   89.0950 O.2   1001  NAD1001    -0.5170
     27  O5D       45.2840   13.0980   88.7450 O.3   1001  NAD1001    -0.3112
     28  C5D       45.7580   11.7240   88.7930 C.3   1001  NAD1001     0.1813
     29  C4D       47.2660   11.7310   88.8840 C.3   1001  NAD1001     0.1799
     30  O4D       47.6650   10.6750   89.8060 O.3   1001  NAD1001    -0.3327
     31  C3D       47.9770   11.4080   87.5600 C.3   1001  NAD1001     0.2158
     32  O3D       49.1090   12.2410   87.2160 O.3   1001  NAD1001    -0.2175
     33  C2D       48.2830    9.8590   87.6570 C.3   1001  NAD1001     0.2309
     34  O2D       49.6490    9.5670   87.2850 O.3   1001  NAD1001    -0.2158
     35  C1D       48.0440    9.5050   89.0940 C.3   1001  NAD1001     0.2263
     36  N1N       47.0190    8.4560   89.3110 N.pl3 1001  NAD1001    -0.2787
     37  C2N       47.3110    7.8560   90.4750 C.3   1001  NAD1001     0.1244
     38  C3N       46.4880    6.9670   90.8840 C.2   1001  NAD1001     0.0544
     39  C7N       46.5960    6.2030   92.1000 C.2   1001  NAD1001     0.2818
     40  O7N       45.6700    5.4070   92.2720 O.2   1001  NAD1001    -0.2670
     41  N7N       47.6410    6.3620   92.9710 N.am  1001  NAD1001    -0.0839
     42  C4N       45.2280    6.5460   90.1610 C.2   1001  NAD1001     0.0033
     43  C5N       45.0360    7.2460   88.9350 C.2   1001  NAD1001     0.0157
     44  C6N       45.8890    8.2180   88.4410 C.2   1001  NAD1001     0.0633
@<TRIPOS>BOND
     1    18    17    1
     2    17    19    2
     3    17    16    1
     4    19    20    1
     5    16    15    2
     6    16    22    1
     7    20    21    1
     8    15    14    1
     9    22    21    2
    10    22    13    1
    11    14    13    1
    12    13    12    1
    13    11    10    1
    14    12    10    1
    15    12     7    1
    16    10     8    1
    17     7     6    1
    18     8     6    1
    19     8     9    1
    20     6     5    1
    21     5     4    1
    22     4     1    1
    23     2     1    2
    24     1     3    1
    25     1    23    1
    26    23    24    1
    27    32    31    1
    28    34    33    1
    29    31    33    1
    30    31    29    1
    31    33    35    1
    32    44    43    2
    33    44    36    1
    34    24    27    1
    35    24    26    2
    36    24    25    1
    37    27    28    1
    38    28    29    1
    39    29    30    1
    40    43    42    1
    41    35    36    1
    42    35    30    1
    43    36    37    1
    44    42    38    2
    45    37    38    1
    46    38    39    1
    47    39    40    2
    48    39    41   am
