@<TRIPOS>MOLECULE
1lst_LYS_A_1.pdb
 10 9 0 0 0
SMALL
GASTEIGER

@<TRIPOS>ATOM
      1  N         18.6630   58.2310   45.7710 N.3   240  LYS240     -0.1208
      2  CA        18.7290   57.4460   46.9820 C.3   240  LYS240      0.1943
      3  C         18.1410   58.2870   48.1410 C.2   240  LYS240      0.3819
      4  O         18.0400   57.7970   49.2670 O.co2 240  LYS240     -0.2441
      5  CB        20.1830   57.0870   47.2580 C.3   240  LYS240      0.0307
      6  CG        21.1600   58.2480   47.2380 C.3   240  LYS240      0.0036
      7  CD        22.4420   57.7740   47.8560 C.3   240  LYS240      0.0206
      8  CE        23.5210   58.8140   47.6670 C.3   240  LYS240      0.1093
      9  NZ        24.7560   58.4420   48.3590 N.3   240  LYS240     -0.1314
     10  OXT       17.7910   59.4530   47.9000 O.co2 240  LYS240     -0.2441
@<TRIPOS>BOND
     1     1     2    1
     2     2     5    1
     3     2     3    1
     4     6     5    1
     5     6     7    1
     6     8     7    1
     7     8     9    1
     8    10     3   ar
     9     3     4   ar
