@<TRIPOS>MOLECULE
1lsu_NAI_A_1.pdb
 44 48 0 0 0
SMALL
GASTEIGER

@<TRIPOS>ATOM
      1  PA        47.0800   51.4720   17.6300 P.3   1001  NAI1001     0.2189
      2  O1A       47.4670   52.9130   17.6500 O.3   1001  NAI1001    -0.4371
      3  O2A       48.2180   50.6120   17.1640 O.2   1001  NAI1001    -0.5170
      4  O5B       45.8320   51.1600   16.6730 O.3   1001  NAI1001    -0.3112
      5  C5B       44.5520   51.8260   16.7390 C.3   1001  NAI1001     0.1813
      6  C4B       44.0410   51.6210   15.3610 C.3   1001  NAI1001     0.1821
      7  O4B       42.7190   52.2180   15.0040 O.3   1001  NAI1001    -0.3135
      8  C3B       45.0350   52.0620   14.2740 C.3   1001  NAI1001     0.2184
      9  O3B       45.2410   50.9730   13.3200 O.3   1001  NAI1001    -0.2174
     10  C2B       44.3170   53.3570   13.8120 C.3   1001  NAI1001     0.2570
     11  O2B       44.7350   53.8560   12.5250 O.3   1001  NAI1001    -0.2130
     12  C1B       42.9260   52.8590   13.7800 C.3   1001  NAI1001     0.3186
     13  N9A       41.8900   53.8710   13.4380 N.pl3 1001  NAI1001    -0.1439
     14  C8A       40.8230   53.7400   12.5730 C.3   1001  NAI1001     0.3377
     15  N7A       40.0550   54.8430   12.4630 N.2   1001  NAI1001    -0.2095
     16  C5A       40.6730   55.7350   13.3120 C.2   1001  NAI1001     0.2526
     17  C6A       40.3630   57.0790   13.6520 C.2   1001  NAI1001     0.4393
     18  N6A       39.3200   57.7320   13.1380 N.pl3 1001  NAI1001     0.2180
     19  N1A       41.1970   57.7160   14.5570 N.2   1001  NAI1001     0.0021
     20  C2A       42.2800   57.0090   15.0780 C.3   1001  NAI1001     0.5254
     21  N3A       42.6350   55.7550   14.8100 N.2   1001  NAI1001    -0.0055
     22  C4A       41.8010   55.1610   13.9250 C.2   1001  NAI1001     0.3518
     23  O3        46.6150   51.0020   18.9900 O.3   1001  NAI1001    -0.2703
     24  PN        46.6250   49.4490   19.4980 P.3   1001  NAI1001     0.2189
     25  O1N       47.8630   48.7320   19.0550 O.3   1001  NAI1001    -0.4371
     26  O2N       45.4170   48.7060   19.0060 O.2   1001  NAI1001    -0.5170
     27  O5D       46.6470   49.7180   21.0480 O.3   1001  NAI1001    -0.3112
     28  C5D       47.5590   50.5900   21.7560 C.3   1001  NAI1001     0.1813
     29  C4D       47.1290   50.4270   23.1880 C.3   1001  NAI1001     0.1799
     30  O4D       46.3250   51.5750   23.5550 O.3   1001  NAI1001    -0.3327
     31  C3D       46.2210   49.1980   23.4230 C.3   1001  NAI1001     0.2158
     32  O3D       46.8430   47.9940   23.9010 O.3   1001  NAI1001    -0.2175
     33  C2D       45.0400   49.7310   24.2910 C.3   1001  NAI1001     0.2309
     34  O2D       44.9390   48.9650   25.5010 O.3   1001  NAI1001    -0.2158
     35  C1D       45.4100   51.1680   24.5330 C.3   1001  NAI1001     0.2263
     36  N1N       44.2870   52.1700   24.5410 N.pl3 1001  NAI1001    -0.2787
     37  C2N       43.1830   51.7320   23.8690 C.3   1001  NAI1001     0.1244
     38  C3N       42.1840   52.5400   23.8250 C.2   1001  NAI1001     0.0544
     39  C7N       40.9080   52.3170   23.1750 C.2   1001  NAI1001     0.2818
     40  O7N       40.1300   53.2760   23.2790 O.2   1001  NAI1001    -0.2670
     41  N7N       40.5970   51.1550   22.5210 N.am  1001  NAI1001    -0.0839
     42  C4N       42.1510   53.9140   24.4280 C.2   1001  NAI1001     0.0033
     43  C5N       43.3560   54.2550   25.0970 C.2   1001  NAI1001     0.0157
     44  C6N       44.4610   53.4370   25.1880 C.2   1001  NAI1001     0.0633
@<TRIPOS>BOND
     1    15    14    1
     2    15    16    2
     3    11    10    1
     4    14    13    1
     5    18    17    1
     6    16    17    1
     7    16    22    1
     8     9     8    1
     9    13    12    1
    10    13    22    1
    11    17    19    2
    12    12    10    1
    13    12     7    1
    14    10     8    1
    15    22    21    2
    16     8     6    1
    17    19    20    1
    18    21    20    1
    19     7     6    1
    20     6     5    1
    21     4     5    1
    22     4     1    1
    23     3     1    2
    24     1     2    1
    25     1    23    1
    26    23    24    1
    27    26    24    2
    28    25    24    1
    29    24    27    1
    30    27    28    1
    31    28    29    1
    32    41    39   am
    33    39    40    2
    34    39    38    1
    35    29    31    1
    36    29    30    1
    37    31    32    1
    38    31    33    1
    39    30    35    1
    40    38    37    1
    41    38    42    2
    42    37    36    1
    43    33    35    1
    44    33    34    1
    45    42    43    1
    46    35    36    1
    47    36    44    1
    48    43    44    2
