@<TRIPOS>MOLECULE
1lsv_HEM_A_1.pdb
 43 50 0 0 0
SMALL
GASTEIGER

@<TRIPOS>ATOM
      1 FE         48.0730   55.5430   33.6010 Fe    719  HEM719      0.0000
      2  CHA       45.1460   54.1690   32.7480 C.2   719  HEM719      0.0000
      3  CHB       49.4900   54.2930   30.8320 C.2   719  HEM719      0.0000
      4  CHC       51.1310   56.4610   34.7390 C.2   719  HEM719      0.0000
      5  CHD       46.6460   57.0680   36.2900 C.2   719  HEM719      0.0000
      6  NA        47.4340   54.4260   32.0490 N.ar  719  HEM719      0.0000
      7  C1A       46.1720   53.9390   31.8920 C.ar  719  HEM719      0.0000
      8  C2A       46.1380   53.0870   30.7440 C.ar  719  HEM719      0.0000
      9  C3A       47.3710   53.1220   30.1880 C.ar  719  HEM719      0.0000
     10  C4A       48.1860   53.9790   31.0070 C.ar  719  HEM719      0.0000
     11  CMA       47.8790   52.3620   28.9470 C.3   719  HEM719      0.0000
     12  CAA       44.9630   52.1360   30.4540 C.3   719  HEM719      0.0000
     13  CBA       44.6420   51.9970   28.9730 C.3   719  HEM719      0.0000
     14  CGA       43.6870   50.8420   28.7120 C.2   719  HEM719      0.0000
     15  O1A       42.4570   51.1860   28.6000 O.co2 719  HEM719      0.0000
     16  O2A       44.0870   49.7020   28.9080 O.co2 719  HEM719      0.0000
     17  NB        49.9410   55.5030   32.8980 N.2   719  HEM719      0.0000
     18  C1B       50.3120   54.9300   31.7010 C.2   719  HEM719      0.0000
     19  C2B       51.7040   55.1350   31.4600 C.2   719  HEM719      0.0000
     20  C3B       52.1980   55.7570   32.5330 C.2   719  HEM719      0.0000
     21  C4B       51.0780   56.0170   33.4390 C.2   719  HEM719      0.0000
     22  CMB       52.4810   54.6130   30.2410 C.3   719  HEM719      0.0000
     23  CAB       53.6420   56.1290   32.7500 C.3   719  HEM719      0.0000
     24  CBB       53.8640   57.3840   33.5750 C.3   719  HEM719      0.0000
     25  NC        48.7500   56.5300   35.2230 N.ar  719  HEM719      0.0000
     26  C1C       50.0440   56.7560   35.5330 C.ar  719  HEM719      0.0000
     27  C2C       50.1470   57.3540   36.8600 C.ar  719  HEM719      0.0000
     28  C3C       48.8960   57.4730   37.3320 C.ar  719  HEM719      0.0000
     29  C4C       48.0240   56.9710   36.3060 C.ar  719  HEM719      0.0000
     30  CMC       51.4970   57.7520   37.4880 C.3   719  HEM719      0.0000
     31  CAC       48.3720   57.8830   38.7210 C.3   719  HEM719      0.0000
     32  CBC       49.4030   58.5750   39.6080 C.3   719  HEM719      0.0000
     33  ND        46.2650   55.6870   34.3110 N.2   719  HEM719      0.0000
     34  C1D       45.8200   56.3760   35.4450 C.2   719  HEM719      0.0000
     35  C2D       44.4060   56.1320   35.6360 C.2   719  HEM719      0.0000
     36  C3D       44.0080   55.3360   34.6200 C.2   719  HEM719      0.0000
     37  C4D       45.1410   55.0890   33.7940 C.2   719  HEM719      0.0000
     38  CMD       43.5920   56.6560   36.8290 C.3   719  HEM719      0.0000
     39  CAD       42.6830   54.6190   34.4300 C.3   719  HEM719      0.0000
     40  CBD       42.5940   53.3740   35.3780 C.3   719  HEM719      0.0000
     41  CGD       41.9670   52.1500   34.7720 C.2   719  HEM719      0.0000
     42  O1D       41.7610   51.1690   35.5010 O.co2 719  HEM719      0.0000
     43  O2D       41.7500   52.1910   33.5360 O.co2 719  HEM719      0.0000
@<TRIPOS>BOND
     1    15    14   ar
     2    14    16   ar
     3    14    13    1
     4    11     9    1
     5    13    12    1
     6     9     8   ar
     7     9    10   ar
     8    22    19    1
     9    12     8    1
    10     8     7   ar
    11     3    10    2
    12     3    18    1
    13    10     6   ar
    14    19    18    1
    15    19    20    2
    16    18    17    2
    17     7     6   ar
    18     7     2    2
    19     6     1    1
    20    20    23    1
    21    20    21    1
    22     2    37    1
    23    23    24    1
    24    17    21    1
    25    17     1    1
    26    21     4    2
    27    43    41   ar
    28     1    33    1
    29     1    25    1
    30    37    33    2
    31    37    36    1
    32    33    34    1
    33    39    36    1
    34    39    40    1
    35    36    35    2
    36     4    26    1
    37    41    40    1
    38    41    42   ar
    39    25    26   ar
    40    25    29   ar
    41    34    35    1
    42    34     5    2
    43    26    27   ar
    44    35    38    1
    45     5    29    1
    46    29    28   ar
    47    27    28   ar
    48    27    30    1
    49    28    31    1
    50    31    32    1
