@<TRIPOS>MOLECULE
1lsw_HEM_A_1.pdb
 43 50 0 0 0
SMALL
GASTEIGER

@<TRIPOS>ATOM
      1 FE         48.3800   55.9830   33.6850 Fe    719  HEM719      0.0000
      2  CHA       45.3960   54.4740   32.9480 C.2   719  HEM719      0.0000
      3  CHB       49.7730   54.5470   30.9880 C.2   719  HEM719      0.0000
      4  CHC       51.5070   56.7580   34.8850 C.2   719  HEM719      0.0000
      5  CHD       47.0220   57.2620   36.4660 C.2   719  HEM719      0.0000
      6  NA        47.7220   54.7630   32.2220 N.ar  719  HEM719      0.0000
      7  C1A       46.4380   54.2320   32.0950 C.ar  719  HEM719      0.0000
      8  C2A       46.4120   53.3370   30.9590 C.ar  719  HEM719      0.0000
      9  C3A       47.6280   53.3670   30.4030 C.ar  719  HEM719      0.0000
     10  C4A       48.4710   54.2470   31.1930 C.ar  719  HEM719      0.0000
     11  CMA       48.1000   52.6120   29.1470 C.3   719  HEM719      0.0000
     12  CAA       45.2280   52.3880   30.6370 C.3   719  HEM719      0.0000
     13  CBA       44.6800   52.5830   29.2190 C.3   719  HEM719      0.0000
     14  CGA       43.9270   51.3590   28.6910 C.2   719  HEM719      0.0000
     15  O1A       42.8060   51.6130   28.1620 O.co2 719  HEM719      0.0000
     16  O2A       44.3880   50.2240   28.8900 O.co2 719  HEM719      0.0000
     17  NB        50.2630   55.7950   33.0430 N.2   719  HEM719      0.0000
     18  C1B       50.6230   55.1580   31.8640 C.2   719  HEM719      0.0000
     19  C2B       52.0290   55.3000   31.6440 C.2   719  HEM719      0.0000
     20  C3B       52.5400   55.9330   32.7120 C.2   719  HEM719      0.0000
     21  C4B       51.4320   56.2570   33.5940 C.2   719  HEM719      0.0000
     22  CMB       52.8010   54.7080   30.4580 C.3   719  HEM719      0.0000
     23  CAB       54.0230   56.1950   32.9810 C.3   719  HEM719      0.0000
     24  CBB       54.3460   57.4700   33.7740 C.3   719  HEM719      0.0000
     25  NC        49.1000   56.8320   35.3320 N.ar  719  HEM719      0.0000
     26  C1C       50.4290   57.0070   35.6820 C.ar  719  HEM719      0.0000
     27  C2C       50.5250   57.5510   37.0180 C.ar  719  HEM719      0.0000
     28  C3C       49.2720   57.6420   37.4770 C.ar  719  HEM719      0.0000
     29  C4C       48.3940   57.2010   36.4340 C.ar  719  HEM719      0.0000
     30  CMC       51.8680   57.9660   37.6930 C.3   719  HEM719      0.0000
     31  CAC       48.7540   58.0020   38.8660 C.3   719  HEM719      0.0000
     32  CBC       49.6890   58.9250   39.6590 C.3   719  HEM719      0.0000
     33  ND        46.5730   56.0110   34.4580 N.2   719  HEM719      0.0000
     34  C1D       46.1670   56.6320   35.6380 C.2   719  HEM719      0.0000
     35  C2D       44.7480   56.4060   35.8640 C.2   719  HEM719      0.0000
     36  C3D       44.3140   55.6250   34.8590 C.2   719  HEM719      0.0000
     37  C4D       45.4230   55.3700   34.0000 C.2   719  HEM719      0.0000
     38  CMD       43.9560   56.9120   37.0750 C.3   719  HEM719      0.0000
     39  CAD       42.9720   54.9140   34.7260 C.3   719  HEM719      0.0000
     40  CBD       42.9200   53.7010   35.6840 C.3   719  HEM719      0.0000
     41  CGD       42.2870   52.4510   35.1430 C.2   719  HEM719      0.0000
     42  O1D       42.1230   51.4930   35.9110 O.co2 719  HEM719      0.0000
     43  O2D       42.0210   52.4460   33.9490 O.co2 719  HEM719      0.0000
@<TRIPOS>BOND
     1    15    14   ar
     2    14    16   ar
     3    14    13    1
     4    11     9    1
     5    13    12    1
     6     9     8   ar
     7     9    10   ar
     8    22    19    1
     9    12     8    1
    10     8     7   ar
    11     3    10    2
    12     3    18    1
    13    10     6   ar
    14    19    18    1
    15    19    20    2
    16    18    17    2
    17     7     6   ar
    18     7     2    2
    19     6     1    1
    20    20    23    1
    21    20    21    1
    22     2    37    1
    23    23    24    1
    24    17    21    1
    25    17     1    1
    26    21     4    2
    27     1    33    1
    28     1    25    1
    29    43    41   ar
    30    37    33    2
    31    37    36    1
    32    33    34    1
    33    39    36    1
    34    39    40    1
    35    36    35    2
    36     4    26    1
    37    41    40    1
    38    41    42   ar
    39    25    26   ar
    40    25    29   ar
    41    34    35    1
    42    34     5    2
    43    26    27   ar
    44    35    38    1
    45    29     5    1
    46    29    28   ar
    47    27    28   ar
    48    27    30    1
    49    28    31    1
    50    31    32    1
