@<TRIPOS>MOLECULE
1lsx_HEM_A_1.pdb
 43 50 0 0 0
SMALL
GASTEIGER

@<TRIPOS>ATOM
      1 FE         47.8730   55.6580   33.6770 Fe    719  HEM719      0.0000
      2  CHA       44.8210   54.4970   32.8220 C.2   719  HEM719      0.0000
      3  CHB       49.2410   54.3270   30.8620 C.2   719  HEM719      0.0000
      4  CHC       50.9840   56.4400   34.8170 C.2   719  HEM719      0.0000
      5  CHD       46.5480   57.1150   36.4570 C.2   719  HEM719      0.0000
      6  NA        47.1630   54.5810   32.1280 N.ar  719  HEM719      0.0000
      7  C1A       45.8560   54.1980   31.9500 C.ar  719  HEM719      0.0000
      8  C2A       45.7480   53.4550   30.6960 C.ar  719  HEM719      0.0000
      9  C3A       46.9740   53.3760   30.1750 C.ar  719  HEM719      0.0000
     10  C4A       47.8880   54.0980   31.0510 C.ar  719  HEM719      0.0000
     11  CMA       47.3880   52.6880   28.8850 C.3   719  HEM719      0.0000
     12  CAA       44.4610   52.7630   30.2160 C.3   719  HEM719      0.0000
     13  CBA       44.6160   51.2610   30.0700 C.3   719  HEM719      0.0000
     14  CGA       43.2950   50.5300   29.8700 C.2   719  HEM719      0.0000
     15  O1A       42.4640   51.0820   29.0550 O.co2 719  HEM719      0.0000
     16  O2A       43.0930   49.5040   30.5010 O.co2 719  HEM719      0.0000
     17  NB        49.7240   55.5200   32.9700 N.2   719  HEM719      0.0000
     18  C1B       50.0850   54.9380   31.7490 C.2   719  HEM719      0.0000
     19  C2B       51.4840   55.0740   31.5370 C.2   719  HEM719      0.0000
     20  C3B       52.0140   55.6360   32.6450 C.2   719  HEM719      0.0000
     21  C4B       50.9060   55.9620   33.5330 C.2   719  HEM719      0.0000
     22  CMB       52.2210   54.5540   30.3160 C.3   719  HEM719      0.0000
     23  CAB       53.5270   55.8930   32.9020 C.3   719  HEM719      0.0000
     24  CBB       53.9130   57.1280   33.7230 C.3   719  HEM719      0.0000
     25  NC        48.5870   56.6160   35.2860 N.ar  719  HEM719      0.0000
     26  C1C       49.9060   56.7850   35.6150 C.ar  719  HEM719      0.0000
     27  C2C       50.0220   57.3080   37.0160 C.ar  719  HEM719      0.0000
     28  C3C       48.7830   57.4500   37.4760 C.ar  719  HEM719      0.0000
     29  C4C       47.8940   57.0480   36.4080 C.ar  719  HEM719      0.0000
     30  CMC       51.3490   57.5550   37.7410 C.3   719  HEM719      0.0000
     31  CAC       48.2670   57.7290   38.9040 C.3   719  HEM719      0.0000
     32  CBC       49.0630   58.7580   39.7110 C.3   719  HEM719      0.0000
     33  ND        46.0750   55.7850   34.4430 N.2   719  HEM719      0.0000
     34  C1D       45.6920   56.4650   35.6250 C.2   719  HEM719      0.0000
     35  C2D       44.2850   56.3930   35.8040 C.2   719  HEM719      0.0000
     36  C3D       43.7910   55.6950   34.7690 C.2   719  HEM719      0.0000
     37  C4D       44.9040   55.3100   33.9270 C.2   719  HEM719      0.0000
     38  CMD       43.5220   57.1100   36.9000 C.3   719  HEM719      0.0000
     39  CAD       42.3530   55.3100   34.5280 C.3   719  HEM719      0.0000
     40  CBD       42.0310   53.9670   35.2370 C.3   719  HEM719      0.0000
     41  CGD       40.9920   53.1650   34.5200 C.2   719  HEM719      0.0000
     42  O1D       40.6420   52.0730   35.0060 O.co2 719  HEM719      0.0000
     43  O2D       40.5720   53.6590   33.4380 O.co2 719  HEM719      0.0000
@<TRIPOS>BOND
     1    11     9    1
     2    15    14   ar
     3    14    13    1
     4    14    16   ar
     5    13    12    1
     6     9     8   ar
     7     9    10   ar
     8    12     8    1
     9    22    19    1
    10     8     7   ar
    11     3    10    2
    12     3    18    1
    13    10     6   ar
    14    19    18    1
    15    19    20    2
    16    18    17    2
    17     7     6   ar
    18     7     2    2
    19     6     1    1
    20    20    23    1
    21    20    21    1
    22     2    37    1
    23    23    24    1
    24    17    21    1
    25    17     1    1
    26    43    41   ar
    27    21     4    2
    28     1    33    1
    29     1    25    1
    30    37    33    2
    31    37    36    1
    32    33    34    1
    33    41    42   ar
    34    41    40    1
    35    39    36    1
    36    39    40    1
    37    36    35    2
    38     4    26    1
    39    25    26   ar
    40    25    29   ar
    41    26    27   ar
    42    34    35    1
    43    34     5    2
    44    35    38    1
    45    29     5    1
    46    29    28   ar
    47    27    28   ar
    48    27    30    1
    49    28    31    1
    50    31    32    1
