@<TRIPOS>MOLECULE
1lsz_NAG_A_1.pdb
 14 14 0 0 0
SMALL
GASTEIGER

@<TRIPOS>ATOM
      1  C1         6.0300   24.8970   26.0160 C.3   502  NAG502      0.1665
      2  C2         4.8070   24.2390   26.6200 C.3   502  NAG502      0.1576
      3  C3         4.1740   25.1870   27.6430 C.3   502  NAG502      0.2069
      4  C4         5.2030   25.6410   28.6900 C.3   502  NAG502      0.2134
      5  C5         6.4990   26.1280   28.0500 C.3   502  NAG502      0.1809
      6  C6         7.5990   26.3580   29.1080 C.3   502  NAG502      0.2141
      7  C7         3.5180   22.7700   25.1490 C.2   502  NAG502      0.2420
      8  C8         2.5500   22.7640   23.9920 C.3   502  NAG502      0.0964
      9  N2         3.8590   23.9880   25.5460 N.am  502  NAG502     -0.2019
     10  O3         3.0730   24.5710   28.2870 O.3   502  NAG502     -0.2184
     11  O4         4.6760   26.7540   29.4330 O.3   502  NAG502     -0.2176
     12  O5         6.9740   25.2080   27.0380 O.3   502  NAG502     -0.3489
     13  O6         7.9920   25.1840   29.8240 O.3   502  NAG502     -0.2176
     14  O7         3.9270   21.7320   25.6920 O.2   502  NAG502     -0.2733
@<TRIPOS>BOND
     1     8     7    1
     2     7     9   am
     3     7    14    2
     4     9     2    1
     5     1     2    1
     6     1    12    1
     7     2     3    1
     8    12     5    1
     9     3    10    1
    10     3     4    1
    11     5     4    1
    12     5     6    1
    13     4    11    1
    14     6    13    1
