@<TRIPOS>MOLECULE
1lsz_NDG_A_1.pdb
 15 15 0 0 0
SMALL
GASTEIGER

@<TRIPOS>ATOM
      1  C1         8.7210   25.1060   21.5030 C.3   501  NDG501      0.2917
      2  C2         9.1260   25.6000   22.9950 C.3   501  NDG501      0.1871
      3  C3         8.7410   24.7030   24.1180 C.3   501  NDG501      0.2095
      4  C4         7.2480   24.7020   23.9730 C.3   501  NDG501      0.2136
      5  C5         6.7100   24.0730   22.6250 C.3   501  NDG501      0.1835
      6  C6         5.3030   24.4690   22.4040 C.3   501  NDG501      0.2142
      7  C7        11.1510   26.7540   22.8670 C.2   501  NDG501      0.2421
      8  C8        12.5920   26.4660   22.8460 C.3   501  NDG501      0.0964
      9  O          7.4250   24.5840   21.4570 O.3   501  NDG501     -0.3242
     10  O3         9.2900   25.2540   25.2990 O.3   501  NDG501     -0.2183
     11  O4         6.6120   24.0210   25.0550 O.3   501  NDG501     -0.2176
     12  O6         5.2870   25.8730   22.1940 O.3   501  NDG501     -0.2176
     13  O7        10.5890   27.8070   22.8570 O.2   501  NDG501     -0.2733
     14  N2        10.5120   25.6290   23.0070 N.am  501  NDG501     -0.1991
     15  O1L        9.5740   23.9160   21.5480 O.3   501  NDG501     -0.1879
@<TRIPOS>BOND
     1     9     1    1
     2     9     5    1
     3     1    15    1
     4     1     2    1
     5    12     6    1
     6     6     5    1
     7     5     4    1
     8     8     7    1
     9    13     7    2
    10     7    14   am
    11     2    14    1
    12     2     3    1
    13     4     3    1
    14     4    11    1
    15     3    10    1
