@<TRIPOS>MOLECULE
1lt0_HEM_A_1.pdb
 43 50 0 0 0
SMALL
GASTEIGER

@<TRIPOS>ATOM
      1 FE         48.0960   56.0660   33.6750 Fe    719  HEM719      0.0000
      2  CHA       45.0650   55.0990   32.6470 C.2   719  HEM719      0.0000
      3  CHB       49.4240   54.6790   30.9290 C.2   719  HEM719      0.0000
      4  CHC       51.1850   56.7160   34.9130 C.2   719  HEM719      0.0000
      5  CHD       46.7370   57.5620   36.4160 C.2   719  HEM719      0.0000
      6  NA        47.3920   55.0380   32.0780 N.ar  719  HEM719      0.0000
      7  C1A       46.0880   54.7310   31.8510 C.ar  719  HEM719      0.0000
      8  C2A       45.9610   53.9480   30.6440 C.ar  719  HEM719      0.0000
      9  C3A       47.1800   53.8310   30.1440 C.ar  719  HEM719      0.0000
     10  C4A       48.1010   54.5320   31.0550 C.ar  719  HEM719      0.0000
     11  CMA       47.6330   53.0940   28.8680 C.3   719  HEM719      0.0000
     12  CAA       44.6130   53.2490   30.2090 C.3   719  HEM719      0.0000
     13  CBA       44.6570   51.7090   30.2590 C.3   719  HEM719      0.0000
     14  CGA       43.3110   51.0020   29.9890 C.2   719  HEM719      0.0000
     15  O1A       42.2900   51.7890   29.7890 O.co2 719  HEM719      0.0000
     16  O2A       43.2810   49.7530   29.9650 O.co2 719  HEM719      0.0000
     17  NB        49.9380   55.8040   33.0760 N.2   719  HEM719      0.0000
     18  C1B       50.2720   55.2210   31.8370 C.2   719  HEM719      0.0000
     19  C2B       51.6250   55.3250   31.6150 C.2   719  HEM719      0.0000
     20  C3B       52.1690   55.8270   32.7470 C.2   719  HEM719      0.0000
     21  C4B       51.0940   56.1970   33.6320 C.2   719  HEM719      0.0000
     22  CMB       52.3330   54.7720   30.3360 C.3   719  HEM719      0.0000
     23  CAB       53.6810   55.9540   33.0730 C.3   719  HEM719      0.0000
     24  CBB       54.1690   57.2400   33.7430 C.3   719  HEM719      0.0000
     25  NC        48.8090   57.0130   35.3210 N.ar  719  HEM719      0.0000
     26  C1C       50.1190   57.1460   35.6710 C.ar  719  HEM719      0.0000
     27  C2C       50.2240   57.7190   36.9790 C.ar  719  HEM719      0.0000
     28  C3C       48.9780   57.9550   37.3990 C.ar  719  HEM719      0.0000
     29  C4C       48.0960   57.5020   36.3800 C.ar  719  HEM719      0.0000
     30  CMC       51.5630   57.8840   37.7630 C.3   719  HEM719      0.0000
     31  CAC       48.4480   58.3310   38.8120 C.3   719  HEM719      0.0000
     32  CBC       49.5000   58.8990   39.7300 C.3   719  HEM719      0.0000
     33  ND        46.3060   56.3160   34.3330 N.2   719  HEM719      0.0000
     34  C1D       45.8860   56.9570   35.5260 C.2   719  HEM719      0.0000
     35  C2D       44.4570   56.8170   35.6690 C.2   719  HEM719      0.0000
     36  C3D       44.0040   56.1610   34.5960 C.2   719  HEM719      0.0000
     37  C4D       45.1310   55.8890   33.7500 C.2   719  HEM719      0.0000
     38  CMD       43.6420   57.3470   36.8630 C.3   719  HEM719      0.0000
     39  CAD       42.5730   55.6430   34.3060 C.3   719  HEM719      0.0000
     40  CBD       42.2700   54.3960   35.2100 C.3   719  HEM719      0.0000
     41  CGD       41.4000   53.3500   34.5270 C.2   719  HEM719      0.0000
     42  O1D       40.8280   52.4540   35.2200 O.co2 719  HEM719      0.0000
     43  O2D       41.3550   53.4370   33.2780 O.co2 719  HEM719      0.0000
@<TRIPOS>BOND
     1    11     9    1
     2    15    14   ar
     3    16    14   ar
     4    14    13    1
     5     9     8   ar
     6     9    10   ar
     7    12    13    1
     8    12     8    1
     9    22    19    1
    10     8     7   ar
    11     3    10    2
    12     3    18    1
    13    10     6   ar
    14    19    18    1
    15    19    20    2
    16    18    17    2
    17     7     6   ar
    18     7     2    2
    19     6     1    1
    20     2    37    1
    21    20    23    1
    22    20    21    1
    23    23    24    1
    24    17    21    1
    25    17     1    1
    26    43    41   ar
    27    21     4    2
    28     1    33    1
    29     1    25    1
    30    37    33    2
    31    37    36    1
    32    39    36    1
    33    39    40    1
    34    33    34    1
    35    41    40    1
    36    41    42   ar
    37    36    35    2
    38     4    26    1
    39    25    26   ar
    40    25    29   ar
    41    34    35    1
    42    34     5    2
    43    35    38    1
    44    26    27   ar
    45    29     5    1
    46    29    28   ar
    47    27    28   ar
    48    27    30    1
    49    28    31    1
    50    31    32    1
