@<TRIPOS>MOLECULE
1lt3_BGC_D_1.pdb
 12 12 0 0 0
SMALL
GASTEIGER

@<TRIPOS>ATOM
      1  C2        21.0670   57.5900    8.7490 C.3   105  BGC105      0.2434
      2  C3        20.0730   56.4910    8.8310 C.3   105  BGC105      0.2199
      3  C4        19.0290   56.8110    7.7910 C.3   105  BGC105      0.2144
      4  C5        19.4560   57.2400    6.3210 C.3   105  BGC105      0.1836
      5  C6        19.0170   58.7190    5.8810 C.3   105  BGC105      0.2142
      6  C1        21.7620   57.5140    7.3570 C.3   105  BGC105      0.3024
      7  O1        22.2710   58.7960    7.0240 O.3   105  BGC105     -0.1869
      8  O2        21.9650   57.4870    9.8260 O.3   105  BGC105     -0.2148
      9  O3        19.5470   56.4360   10.1410 O.3   105  BGC105     -0.2174
     10  O4        18.3610   55.5990    7.5750 O.3   105  BGC105     -0.2176
     11  O5        20.9140   57.0230    6.2540 O.3   105  BGC105     -0.3236
     12  O6        17.6170   58.7890    5.4870 O.3   105  BGC105     -0.2176
@<TRIPOS>BOND
     1    12     5    1
     2     5     4    1
     3    11     4    1
     4    11     6    1
     5     4     3    1
     6     7     6    1
     7     6     1    1
     8    10     3    1
     9     3     2    1
    10     1     2    1
    11     1     8    1
    12     2     9    1
