@<TRIPOS>MOLECULE
1lt3_GAL_D_1.pdb
 11 11 0 0 0
SMALL
GASTEIGER

@<TRIPOS>ATOM
      1  C1        17.0460   55.5210    8.0910 C.3   104  GAL104      0.1777
      2  C2        16.2210   54.7290    7.0530 C.3   104  GAL104      0.2141
      3  C3        14.8090   54.5590    7.6070 C.3   104  GAL104      0.2173
      4  C4        14.9050   53.9560    9.0220 C.3   104  GAL104      0.2142
      5  C5        15.8340   54.7750    9.9740 C.3   104  GAL104      0.1810
      6  C6        16.0960   54.2470   11.3700 C.3   104  GAL104      0.2141
      7  O2        16.2330   55.4450    5.7990 O.3   104  GAL104     -0.2176
      8  O3        14.0430   53.7270    6.7520 O.3   104  GAL104     -0.2175
      9  O4        15.4410   52.6830    8.8750 O.3   104  GAL104     -0.2176
     10  O5        17.0990   54.8960    9.3640 O.3   104  GAL104     -0.3481
     11  O6        17.1950   54.9460   11.9560 O.3   104  GAL104     -0.2176
@<TRIPOS>BOND
     1     7     2    1
     2     8     3    1
     3     2     3    1
     4     2     1    1
     5     3     4    1
     6     1    10    1
     7     9     4    1
     8     4     5    1
     9    10     5    1
    10     5     6    1
    11     6    11    1
