@<TRIPOS>MOLECULE
1lt4_GAL_D_1.pdb
 11 11 0 0 0
SMALL
GASTEIGER

@<TRIPOS>ATOM
      1  C1        17.2150   56.2140    8.0990 C.3   104  GAL104      0.1777
      2  C2        16.3980   55.4140    7.0930 C.3   104  GAL104      0.2141
      3  C3        14.9880   55.2780    7.5890 C.3   104  GAL104      0.2173
      4  C4        14.9620   54.6250    9.0050 C.3   104  GAL104      0.2142
      5  C5        15.9360   55.4410    9.9550 C.3   104  GAL104      0.1810
      6  C6        16.2000   54.9620   11.3800 C.3   104  GAL104      0.2141
      7  O2        16.4050   56.0200    5.8220 O.3   104  GAL104     -0.2176
      8  O3        14.3080   54.4800    6.6620 O.3   104  GAL104     -0.2175
      9  O4        15.3500   53.2820    8.8310 O.3   104  GAL104     -0.2176
     10  O5        17.2020   55.5260    9.3360 O.3   104  GAL104     -0.3481
     11  O6        17.2430   55.7060   12.0100 O.3   104  GAL104     -0.2176
@<TRIPOS>BOND
     1     7     2    1
     2     8     3    1
     3     2     3    1
     4     2     1    1
     5     3     4    1
     6     1    10    1
     7     9     4    1
     8     4     5    1
     9    10     5    1
    10     5     6    1
    11     6    11    1
