@<TRIPOS>MOLECULE
1lt4_BGC_D_1.pdb
 12 12 0 0 0
SMALL
GASTEIGER

@<TRIPOS>ATOM
      1  C2        21.0860   58.3040    9.1690 C.3   105  BGC105      0.2434
      2  C3        20.0790   57.1740    9.0520 C.3   105  BGC105      0.2199
      3  C4        19.2990   57.3800    7.7860 C.3   105  BGC105      0.2144
      4  C5        20.1640   57.5530    6.5430 C.3   105  BGC105      0.1836
      5  C6        19.3840   57.9210    5.2730 C.3   105  BGC105      0.2142
      6  C1        21.9570   58.3720    7.9060 C.3   105  BGC105      0.3024
      7  O1        22.8710   59.4350    8.0400 O.3   105  BGC105     -0.1869
      8  O2        21.8850   58.1010   10.3260 O.3   105  BGC105     -0.2148
      9  O3        19.2480   57.2100   10.1780 O.3   105  BGC105     -0.2174
     10  O4        18.5380   56.2170    7.5690 O.3   105  BGC105     -0.2176
     11  O5        21.1290   58.5920    6.7720 O.3   105  BGC105     -0.3236
     12  O6        20.2680   57.8740    4.1520 O.3   105  BGC105     -0.2176
@<TRIPOS>BOND
     1    12     5    1
     2     5     4    1
     3     4    11    1
     4     4     3    1
     5    11     6    1
     6    10     3    1
     7     3     2    1
     8     6     7    1
     9     6     1    1
    10     2     1    1
    11     2     9    1
    12     1     8    1
