@<TRIPOS>MOLECULE
1lt5_TDG_D_1.pdb
 23 24 0 0 0
SMALL
GASTEIGER

@<TRIPOS>ATOM
      1  C1        23.8310   -5.1320   -0.4190 C.3   104  TDG104      0.1976
      2  S1        25.6140   -5.2320   -0.0350 S.3   104  TDG104     -0.0782
      3  C2        23.3850   -6.4430   -1.0030 C.3   104  TDG104      0.2220
      4  O2        24.0640   -6.7730   -2.1890 O.3   104  TDG104     -0.2167
      5  C3        21.8720   -6.4240   -1.2460 C.3   104  TDG104      0.2181
      6  O3        21.5310   -7.7380   -1.6810 O.3   104  TDG104     -0.2175
      7  C4        21.1660   -6.0940    0.0760 C.3   104  TDG104      0.2143
      8  O4        21.3640   -7.1440    1.0200 O.3   104  TDG104     -0.2176
      9  C5        21.7210   -4.7950    0.6420 C.3   104  TDG104      0.1820
     10  O5        23.1260   -4.9240    0.8140 O.3   104  TDG104     -0.3397
     11  C6        21.1350   -4.4360    2.0030 C.3   104  TDG104      0.2142
     12  O6        21.7830   -3.2710    2.4680 O.3   104  TDG104     -0.2176
     13  C1'       25.8750   -3.5870    0.6420 C.3   104  TDG104      0.1976
     14  C2'       27.3250   -3.4440    1.1010 C.3   104  TDG104      0.2220
     15  O2'       27.7070   -4.4170    2.0490 O.3   104  TDG104     -0.2167
     16  C3'       27.5230   -2.0550    1.6760 C.3   104  TDG104      0.2181
     17  O3'       28.8890   -1.8810    2.0370 O.3   104  TDG104     -0.2175
     18  C4'       27.0650   -1.0000    0.5970 C.3   104  TDG104      0.2143
     19  O4'       27.9630   -1.0720   -0.5020 O.3   104  TDG104     -0.2176
     20  C5'       25.5980   -1.3080    0.1220 C.3   104  TDG104      0.1820
     21  O5'       25.6080   -2.6460   -0.4030 O.3   104  TDG104     -0.3397
     22  C6'       24.9890   -0.3450   -0.9070 C.3   104  TDG104      0.2142
     23  O6'       23.6660   -0.7600   -1.1880 O.3   104  TDG104     -0.2176
@<TRIPOS>BOND
     1     4     3    1
     2     6     5    1
     3     5     3    1
     4     5     7    1
     5    23    22    1
     6     3     1    1
     7    22    20    1
     8    19    18    1
     9     1     2    1
    10     1    10    1
    11    21    20    1
    12    21    13    1
    13     2    13    1
    14     7     9    1
    15     7     8    1
    16    20    18    1
    17    18    16    1
    18    13    14    1
    19     9    10    1
    20     9    11    1
    21    14    16    1
    22    14    15    1
    23    16    17    1
    24    11    12    1
