@<TRIPOS>MOLECULE
1lt6_GAA_D_1.pdb
 21 22 0 0 0
SMALL
GASTEIGER

@<TRIPOS>ATOM
      1  C1        11.1940   23.2410   -4.1540 C.3   104  GAA104      0.3218
      2  C2        10.0240   24.0030   -3.4650 C.3   104  GAA104      0.2542
      3  C3        10.0330   23.8170   -1.9450 C.3   104  GAA104      0.2211
      4  C4        10.1110   22.3190   -1.5860 C.3   104  GAA104      0.2145
      5  C5        11.3440   21.7020   -2.2930 C.3   104  GAA104      0.1846
      6  C6        11.4570   20.2600   -1.9690 C.3   104  GAA104      0.2142
      7  C7        13.5350   23.5560   -4.4850 C.ar  104  GAA104      0.1431
      8  C8        14.2390   22.5180   -3.9040 C.ar  104  GAA104      0.0610
      9  C9        15.4070   22.0830   -4.5400 C.ar  104  GAA104      0.1459
     10  C10       15.7980   22.7370   -5.7470 C.ar  104  GAA104      0.0243
     11  C11       15.0490   23.7920   -6.2940 C.ar  104  GAA104      0.0048
     12  C12       13.8850   24.2080   -5.6490 C.ar  104  GAA104      0.0371
     13  N1        16.1910   20.9800   -3.9890 N.pl3 104  GAA104      0.0578
     14  O1        12.3550   23.9760   -3.8220 O.3   104  GAA104     -0.4504
     15  O2        10.0340   25.4040   -3.6830 O.3   104  GAA104     -0.2135
     16  O3         8.8350   24.3640   -1.5150 O.3   104  GAA104     -0.2173
     17  O4         8.9200   21.6210   -1.9280 O.3   104  GAA104     -0.2176
     18  O5        11.2540   21.8450   -3.7610 O.3   104  GAA104     -0.3157
     19  O6        12.6120   19.7720   -2.6080 O.3   104  GAA104     -0.2176
     20  O7        17.2260   20.5600   -4.5470 O.2   104  GAA104     -0.1261
     21  O8        15.8550   20.4080   -2.9320 O.2   104  GAA104     -0.1261
@<TRIPOS>BOND
     1    11    10   ar
     2    11    12   ar
     3    10     9   ar
     4    12     7   ar
     5    20    13    2
     6     9    13    1
     7     9     8   ar
     8     7     8   ar
     9     7    14    1
    10     1    14    1
    11     1    18    1
    12     1     2    1
    13    13    21    2
    14    18     5    1
    15    15     2    1
    16     2     3    1
    17    19     6    1
    18     5     6    1
    19     5     4    1
    20     3     4    1
    21     3    16    1
    22    17     4    1
