@<TRIPOS>MOLECULE
1lt8_CBH_A_1.pdb
 15 14 0 0 0
SMALL
GASTEIGER

@<TRIPOS>ATOM
      1  O11       25.2290    9.9420   -8.1580 O.co2 601  CBH601     -0.2441
      2  C12       25.3000   11.1010   -7.6910 C.2   601  CBH601      0.3819
      3  O13       26.0540   12.0090   -8.1040 O.co2 601  CBH601     -0.2441
      4  C14       24.3630   11.4460   -6.5140 C.3   601  CBH601      0.1952
      5  N15       23.3610   10.3820   -6.3490 N.3   601  CBH601     -0.1208
      6  C16       25.1460   11.6090   -5.2040 C.3   601  CBH601      0.0422
      7  C17       26.0490   12.8420   -5.2360 C.3   601  CBH601      0.0596
      8  S18       26.8990   13.1910   -3.6470 S.3   601  CBH601     -0.1402
      9  C19       27.7880   14.6950   -4.1820 C.3   601  CBH601      0.0576
     10  C20       28.4570   15.4440   -3.0400 C.3   601  CBH601      0.0122
     11  C21       28.8720   16.8390   -3.5000 C.3   601  CBH601      0.0127
     12  C22       29.3560   17.6710   -2.3280 C.3   601  CBH601      0.1141
     13  C23       29.3990   19.1470   -2.7140 C.2   601  CBH601      0.3649
     14  O25       28.3370   19.7910   -2.5930 O.co2 601  CBH601     -0.2457
     15  O24       30.4840   19.5990   -3.1210 O.co2 601  CBH601     -0.2457
@<TRIPOS>BOND
     1     1     2   ar
     2     3     2   ar
     3     2     4    1
     4     4     5    1
     5     4     6    1
     6     7     6    1
     7     7     8    1
     8     9     8    1
     9     9    10    1
    10    11    10    1
    11    11    12    1
    12    15    13   ar
    13    13    14   ar
    14    13    12    1
