@<TRIPOS>MOLECULE
1lta_GAL_D_1.pdb
 12 12 0 0 0
SMALL
GASTEIGER

@<TRIPOS>ATOM
      1  C1        48.3050   61.1690   35.4450 C.3   104  GAL104      0.3024
      2  C2        49.4800   60.5220   36.2030 C.3   104  GAL104      0.2434
      3  C3        48.8950   59.4840   37.1730 C.3   104  GAL104      0.2199
      4  C4        47.8940   60.1670   38.1450 C.3   104  GAL104      0.2144
      5  C5        46.8300   60.9310   37.3150 C.3   104  GAL104      0.1836
      6  C6        45.8630   61.7650   38.1300 C.3   104  GAL104      0.2142
      7  O1        48.7530   62.0270   34.4540 O.3   104  GAL104     -0.1869
      8  O2        50.3840   59.9510   35.2690 O.3   104  GAL104     -0.2148
      9  O3        49.8990   58.8220   37.8920 O.3   104  GAL104     -0.2174
     10  O4        48.5560   61.0490   39.0470 O.3   104  GAL104     -0.2176
     11  O5        47.4580   61.8250   36.3690 O.3   104  GAL104     -0.3236
     12  O6        45.1100   62.5720   37.2470 O.3   104  GAL104     -0.2176
@<TRIPOS>BOND
     1     7     1    1
     2     8     2    1
     3     1     2    1
     4     1    11    1
     5     2     3    1
     6    11     5    1
     7     3     9    1
     8     3     4    1
     9    12     6    1
    10     5     6    1
    11     5     4    1
    12     4    10    1
