@<TRIPOS>MOLECULE
1ltd_FMN_A_1.pdb
 31 33 0 0 0
SMALL
GASTEIGER

@<TRIPOS>ATOM
      1  N1        69.6150   57.3310    1.7810 N.2   570  FMN570     -0.2887
      2  C2        70.9520   56.9960    1.9780 C.1   570  FMN570      0.3669
      3  O2        71.8580   57.7940    1.7670 O.2   570  FMN570     -0.1744
      4  N3        71.1860   55.7150    2.3870 N.2   570  FMN570     -0.2300
      5  C4        70.1950   54.7610    2.4040 C.1   570  FMN570      0.2513
      6  O4        70.5520   53.5980    2.5350 O.2   570  FMN570     -0.2057
      7  C4A       68.8450   55.2560    2.2250 C.2   570  FMN570      0.2706
      8  N5        67.8390   54.3860    2.4700 N.2   570  FMN570     -0.3841
      9  C5A       66.6080   54.5750    1.9200 C.2   570  FMN570      0.1452
     10  C6        65.7300   53.5280    1.8370 C.2   570  FMN570      0.0252
     11  C7        64.5820   53.7030    1.1720 C.2   570  FMN570     -0.0375
     12  C7M       63.7380   52.5640    0.9110 C.3   570  FMN570      0.0268
     13  C8        64.2170   54.9240    0.6830 C.3   570  FMN570      0.0417
     14  C8M       62.8370   55.1700    0.0630 C.3   570  FMN570      0.0091
     15  C9        65.0660   55.9750    0.7880 C.2   570  FMN570     -0.0049
     16  C9A       66.2810   55.7990    1.3770 C.2   570  FMN570      0.0795
     17  N10       67.2620   56.7480    1.2770 N.pl3 570  FMN570     -0.2545
     18  C10       68.5280   56.4950    1.7740 C.2   570  FMN570      0.2449
     19  C1'       66.9060   57.9740    0.8350 C.3   570  FMN570      0.1336
     20  C2'       67.5810   58.4980   -0.4210 C.3   570  FMN570      0.2048
     21  O2'       68.4020   57.6610   -1.1880 O.3   570  FMN570     -0.2185
     22  C3'       66.7820   59.4300   -1.2760 C.3   570  FMN570      0.2165
     23  O3'       66.9520   60.6770   -0.7000 O.3   570  FMN570     -0.2175
     24  C4'       65.4000   59.2060   -1.8630 C.3   570  FMN570      0.2147
     25  O4'       64.6480   58.2010   -1.2970 O.3   570  FMN570     -0.2176
     26  C5'       64.5740   60.4780   -1.9810 C.3   570  FMN570      0.1892
     27  O5'       63.1450   60.2650   -2.0030 O.3   570  FMN570     -0.2674
     28  P         62.2390   59.5760   -3.1520 P.3   570  FMN570      0.5327
     29  O1P       60.9560   60.2330   -2.8300 O.3   570  FMN570     -0.1145
     30  O2P       62.3290   58.1260   -2.9300 O.3   570  FMN570     -0.1145
     31  O3P       62.8820   59.9990   -4.4170 O.2   570  FMN570     -0.2224
@<TRIPOS>BOND
     1    31    28    2
     2    28    30    1
     3    28    29    1
     4    28    27    1
     5    27    26    1
     6    26    24    1
     7    24    25    1
     8    24    22    1
     9    22    23    1
    10    22    20    1
    11    21    20    1
    12    20    19    1
    13    14    13    1
    14    13    15    1
    15    13    11    1
    16    15    16    2
    17    19    17    1
    18    12    11    1
    19    11    10    2
    20    17    16    1
    21    17    18    1
    22    16     9    1
    23     3     2    2
    24    18     1    2
    25    18     7    1
    26     1     2    2
    27    10     9    1
    28     9     8    2
    29     2     4    2
    30     7     5    1
    31     7     8    2
    32     4     5    2
    33     5     6    2
