@<TRIPOS>MOLECULE
1ltd_HEM_A_1.pdb
 43 50 0 0 0
SMALL
GASTEIGER

@<TRIPOS>ATOM
      1  CHA       69.2690   44.6890    8.6410 C.2   560  HEM560      0.0000
      2  CHB       73.9330   44.0530    9.5430 C.2   560  HEM560      0.0000
      3  CHC       72.8360   40.2730   12.2900 C.2   560  HEM560      0.0000
      4  CHD       68.3140   40.5890   10.8700 C.2   560  HEM560      0.0000
      5  C1A       70.6330   44.8510    8.6340 C.ar  560  HEM560      0.0000
      6  C2A       71.3120   45.9400    7.9250 C.ar  560  HEM560      0.0000
      7  C3A       72.6390   45.7480    8.1870 C.ar  560  HEM560      0.0000
      8  C4A       72.7560   44.5590    9.0390 C.ar  560  HEM560      0.0000
      9  CMA       73.7960   46.5880    7.6680 C.3   560  HEM560      0.0000
     10  CAA       70.6240   47.0350    7.0840 C.3   560  HEM560      0.0000
     11  CBA       69.5960   47.9170    7.8860 C.3   560  HEM560      0.0000
     12  CGA       68.3940   48.5890    7.1770 C.2   560  HEM560      0.0000
     13  O1A       68.5690   49.5700    6.4670 O.co2 560  HEM560      0.0000
     14  O2A       67.2430   48.1880    7.3660 O.co2 560  HEM560      0.0000
     15  C1B       74.0420   42.9580   10.3700 C.2   560  HEM560      0.0000
     16  C2B       75.2880   42.4240   10.8990 C.2   560  HEM560      0.0000
     17  C3B       74.9750   41.3430   11.6440 C.2   560  HEM560      0.0000
     18  C4B       73.5380   41.2380   11.6040 C.2   560  HEM560      0.0000
     19  CMB       76.6880   42.9470   10.7140 C.3   560  HEM560      0.0000
     20  CAB       75.8450   40.5250   12.3580 C.3   560  HEM560      0.0000
     21  CBB       75.8410   39.0650   12.2660 C.3   560  HEM560      0.0000
     22  C1C       71.5010   40.0450   12.1550 C.ar  560  HEM560      0.0000
     23  C2C       70.8540   38.9150   12.7110 C.ar  560  HEM560      0.0000
     24  C3C       69.5730   38.9620   12.3180 C.ar  560  HEM560      0.0000
     25  C4C       69.4700   40.1280   11.4630 C.ar  560  HEM560      0.0000
     26  CMC       71.5460   37.7980   13.4720 C.3   560  HEM560      0.0000
     27  CAC       68.6270   37.9880   12.5860 C.3   560  HEM560      0.0000
     28  CBC       67.4640   38.2220   13.3830 C.3   560  HEM560      0.0000
     29  C1D       68.1700   41.7640   10.1690 C.2   560  HEM560      0.0000
     30  C2D       66.9040   42.3140    9.7630 C.2   560  HEM560      0.0000
     31  C3D       67.1790   43.4870    9.1340 C.2   560  HEM560      0.0000
     32  C4D       68.6040   43.6590    9.2270 C.2   560  HEM560      0.0000
     33  CMD       65.5520   41.7270   10.1210 C.3   560  HEM560      0.0000
     34  CAD       66.2490   44.4100    8.3550 C.3   560  HEM560      0.0000
     35  CBD       65.6090   45.5400    9.1260 C.3   560  HEM560      0.0000
     36  CGD       64.0790   45.4450    9.0610 C.2   560  HEM560      0.0000
     37  O1D       63.4620   44.6610    9.7930 O.co2 560  HEM560      0.0000
     38  O2D       63.4600   46.1570    8.2700 O.co2 560  HEM560      0.0000
     39  NA        71.5240   44.0040    9.2910 N.ar  560  HEM560      0.0000
     40  NB        72.9740   42.2050   10.7900 N.2   560  HEM560      0.0000
     41  NC        70.6620   40.7740   11.3570 N.ar  560  HEM560      0.0000
     42  ND        69.2060   42.6060    9.8720 N.2   560  HEM560      0.0000
     43 FE         71.0940   42.3530   10.2970 Fe    560  HEM560      0.0000
@<TRIPOS>BOND
     1    13    12   ar
     2    10    11    1
     3    10     6    1
     4    12    14   ar
     5    12    11    1
     6     9     7    1
     7     6     7   ar
     8     6     5   ar
     9     7     8   ar
    10    38    36   ar
    11    34    35    1
    12    34    31    1
    13     5     1    2
    14     5    39   ar
    15     1    32    1
    16     8    39   ar
    17     8     2    2
    18    36    35    1
    19    36    37   ar
    20    31    32    1
    21    31    30    2
    22    32    42    2
    23    39    43    1
    24     2    15    1
    25    30    33    1
    26    30    29    1
    27    42    29    1
    28    42    43    1
    29    29     4    2
    30    43    40    1
    31    43    41    1
    32    15    40    2
    33    15    16    1
    34    19    16    1
    35    40    18    1
    36     4    25    1
    37    16    17    2
    38    41    25   ar
    39    41    22   ar
    40    25    24   ar
    41    18    17    1
    42    18     3    2
    43    17    20    1
    44    22     3    1
    45    22    23   ar
    46    21    20    1
    47    24    27    1
    48    24    23   ar
    49    27    28    1
    50    23    26    1
