@<TRIPOS>MOLECULE
1lte_BGC_A_1.pdb
 12 12 0 0 0
SMALL
GASTEIGER

@<TRIPOS>ATOM
      1  C2        21.4250   -2.4910   37.9830 C.3   401  BGC401      0.2434
      2  C3        20.2420   -2.4550   37.0240 C.3   401  BGC401      0.2199
      3  C4        19.4430   -1.1420   37.3150 C.3   401  BGC401      0.2144
      4  C5        20.3350    0.1310   37.2630 C.3   401  BGC401      0.1836
      5  C6        19.6930    1.4130   37.8750 C.3   401  BGC401      0.2142
      6  C1        22.3130   -1.2550   37.7930 C.3   401  BGC401      0.3024
      7  O1        23.3700   -1.2590   38.7310 O.3   401  BGC401     -0.1869
      8  O2        22.1210   -3.7110   37.7780 O.3   401  BGC401     -0.2148
      9  O3        19.4820   -3.6460   37.2320 O.3   401  BGC401     -0.2174
     10  O4        18.4220   -0.9400   36.3070 O.3   401  BGC401     -0.2176
     11  O5        21.5610   -0.0550   38.0000 O.3   401  BGC401     -0.3236
     12  O6        18.3750    1.2280   38.3680 O.3   401  BGC401     -0.2176
@<TRIPOS>BOND
     1    10     3    1
     2     2     9    1
     3     2     3    1
     4     2     1    1
     5     4     3    1
     6     4     5    1
     7     4    11    1
     8     8     1    1
     9     6     1    1
    10     6    11    1
    11     6     7    1
    12     5    12    1
