@<TRIPOS>MOLECULE
1lte_GAL_A_1.pdb
 11 11 0 0 0
SMALL
GASTEIGER

@<TRIPOS>ATOM
      1  C1        17.0830   -1.3610   36.5860 C.3   402  GAL402      0.1777
      2  C2        16.1630   -0.7910   35.4940 C.3   402  GAL402      0.2141
      3  C3        14.7180   -1.2820   35.6920 C.3   402  GAL402      0.2173
      4  C4        14.7510   -2.8250   35.6610 C.3   402  GAL402      0.2142
      5  C5        15.6970   -3.3670   36.7380 C.3   402  GAL402      0.1810
      6  C6        15.8390   -4.8960   36.7050 C.3   402  GAL402      0.2141
      7  O2        16.1420    0.6240   35.4430 O.3   402  GAL402     -0.2176
      8  O3        13.8630   -0.7370   34.6730 O.3   402  GAL402     -0.2175
      9  O4        15.1910   -3.2480   34.3810 O.3   402  GAL402     -0.2176
     10  O5        17.0120   -2.7970   36.5760 O.3   402  GAL402     -0.3481
     11  O6        16.7270   -5.2790   37.7280 O.3   402  GAL402     -0.2176
@<TRIPOS>BOND
     1     9     4    1
     2     8     3    1
     3     7     2    1
     4     2     3    1
     5     2     1    1
     6     4     3    1
     7     4     5    1
     8    10     1    1
     9    10     5    1
    10     6     5    1
    11     6    11    1
