@<TRIPOS>MOLECULE
1lte_NAG_A_1.pdb
 14 14 0 0 0
SMALL
GASTEIGER

@<TRIPOS>ATOM
      1  C1        -3.4360   -6.6960    5.3590 C.3   301  NAG301      0.1665
      2  C2        -4.5570   -5.6580    5.1400 C.3   301  NAG301      0.1576
      3  C3        -5.3280   -5.8680    3.8330 C.3   301  NAG301      0.2069
      4  C4        -4.3350   -6.0270    2.6900 C.3   301  NAG301      0.2134
      5  C5        -3.3960   -7.2150    2.9550 C.3   301  NAG301      0.1809
      6  C6        -2.3630   -7.5280    1.8520 C.3   301  NAG301      0.2141
      7  C7        -5.4330   -4.9250    7.3250 C.2   301  NAG301      0.2420
      8  C8        -6.4640   -5.0190    8.4430 C.3   301  NAG301      0.0964
      9  N2        -5.5160   -5.7250    6.2500 N.am  301  NAG301     -0.2019
     10  O3        -6.0950   -4.6630    3.6650 O.3   301  NAG301     -0.2184
     11  O4        -5.0600   -6.2630    1.4940 O.3   301  NAG301     -0.2176
     12  O5        -2.6770   -6.9290    4.1630 O.3   301  NAG301     -0.3489
     13  O6        -1.4380   -6.4590    1.7680 O.3   301  NAG301     -0.2176
     14  O7        -4.5140   -4.1030    7.4170 O.2   301  NAG301     -0.2733
@<TRIPOS>BOND
     1    11     4    1
     2    13     6    1
     3     6     5    1
     4     4     5    1
     5     4     3    1
     6     5    12    1
     7    10     3    1
     8     3     2    1
     9    12     1    1
    10     2     1    1
    11     2     9    1
    12     9     7   am
    13     7    14    2
    14     7     8    1
