@<TRIPOS>MOLECULE
1lti_A2G_G_1.pdb
 15 15 0 0 0
SMALL
GASTEIGER

@<TRIPOS>ATOM
      1  C1        22.5350   19.1560   41.9070 C.3   105  A2G105      0.2917
      2  C2        21.4280   19.5290   42.9540 C.3   105  A2G105      0.1871
      3  C3        20.8380   20.8720   42.5630 C.3   105  A2G105      0.2095
      4  C4        21.9530   21.9070   42.1840 C.3   105  A2G105      0.2136
      5  C5        22.5960   21.4300   40.7630 C.3   105  A2G105      0.1835
      6  C6        23.9710   22.0160   40.4030 C.3   105  A2G105      0.2142
      7  C7        19.9440   18.2020   44.5940 C.2   105  A2G105      0.2421
      8  C8        18.6960   17.3550   44.8230 C.3   105  A2G105      0.0964
      9  O         22.7460   19.9390   40.6650 O.3   105  A2G105     -0.3242
     10  O1        22.5570   17.8550   41.4170 O.3   105  A2G105     -0.1879
     11  O3        20.1420   21.2840   43.7140 O.3   105  A2G105     -0.2183
     12  O4        22.9230   22.0670   43.2480 O.3   105  A2G105     -0.2176
     13  O6        24.4400   21.5820   39.1220 O.3   105  A2G105     -0.2176
     14  O7        20.6440   18.4120   45.5920 O.2   105  A2G105     -0.2733
     15  N2        20.2550   18.6540   43.3720 N.am  105  A2G105     -0.1991
@<TRIPOS>BOND
     1    13     6    1
     2     6     5    1
     3     9     5    1
     4     9     1    1
     5     5     4    1
     6    10     1    1
     7     1     2    1
     8     4     3    1
     9     4    12    1
    10     3     2    1
    11     3    11    1
    12     2    15    1
    13    15     7   am
    14     7     8    1
    15     7    14    2
