@<TRIPOS>MOLECULE
1lti_GAL_D_1.pdb
 11 11 0 0 0
SMALL
GASTEIGER

@<TRIPOS>ATOM
      1  C1        17.5640   54.4480    8.0420 C.3   104  GAL104      0.1777
      2  C2        16.5070   53.7900    7.0280 C.3   104  GAL104      0.2141
      3  C3        15.1120   53.6350    7.6790 C.3   104  GAL104      0.2173
      4  C4        15.2460   52.9340    9.0970 C.3   104  GAL104      0.2142
      5  C5        16.1750   53.7940    9.9770 C.3   104  GAL104      0.1810
      6  C6        16.3650   53.3720   11.4110 C.3   104  GAL104      0.2141
      7  O2        16.3290   54.5780    5.8430 O.3   104  GAL104     -0.2176
      8  O3        14.2520   52.9580    6.8320 O.3   104  GAL104     -0.2175
      9  O4        15.7650   51.6240    9.0250 O.3   104  GAL104     -0.2176
     10  O5        17.4230   53.7830    9.3490 O.3   104  GAL104     -0.3481
     11  O6        17.4210   54.0790   12.0540 O.3   104  GAL104     -0.2176
@<TRIPOS>BOND
     1     7     2    1
     2     8     3    1
     3     2     3    1
     4     2     1    1
     5     3     4    1
     6     1    10    1
     7     9     4    1
     8     4     5    1
     9    10     5    1
    10     5     6    1
    11     6    11    1
