@<TRIPOS>MOLECULE
1ltj_III_G_1.pdb
 30 31 0 0 0
SMALL
GASTEIGER

@<TRIPOS>ATOM
      1  N         39.7640    8.9740   68.8260 N.3     1  GLY1       -0.1210
      2  CA        40.9450    9.7020   68.2990 C.3     1  GLY1        0.1940
      3  C         41.7190   10.4730   69.3560 C.2     1  GLY1        0.2454
      4  O         41.9810   11.6610   69.1750 O.2     1  GLY1       -0.2732
      5  N         42.1040    9.8330   70.4750 N.am    2  PRO2       -0.2717
      6  CA        42.8560   10.5510   71.5090 C.3     2  PRO2        0.1535
      7  C         44.3130   10.6550   71.0830 C.2     2  PRO2        0.2598
      8  O         45.0400    9.6630   71.0920 O.2     2  PRO2       -0.2715
      9  CB        42.6790    9.6630   72.7290 C.3     2  PRO2        0.0310
     10  CG        42.7430    8.2880   72.1200 C.3     2  PRO2        0.0237
     11  CD        41.8820    8.4270   70.8680 C.3     2  PRO2        0.0939
     12  N         44.7410   11.8440   70.6880 N.am    3  ARG3       -0.1964
     13  CA        46.1240   12.0120   70.2690 C.3     3  ARG3        0.1714
     14  C         47.0040   12.1300   71.5230 C.2     3  ARG3        0.2459
     15  O         46.6270   12.7960   72.4950 O.2     3  ARG3       -0.2730
     16  CB        46.2620   13.2640   69.3960 C.3     3  ARG3        0.0347
     17  CG        47.3130   13.1420   68.3000 C.3     3  ARG3        0.0492
     18  CD        46.6760   13.0030   66.9250 C.3     3  ARG3        0.2205
     19  NE        45.6250   11.9920   66.9110 N.pl3   3  ARG3       -0.0865
     20  CZ        44.9450   11.6380   65.8280 C.cat   3  ARG3        0.5346
     21  NH1       45.2100   12.2150   64.6610 N.pl3   3  ARG3        0.1354
     22  NH2       43.9960   10.7110   65.9140 N.pl3   3  ARG3        0.1354
     23  N         48.1870   11.4780   71.5180 N.am    4  PRO4       -0.2699
     24  CA        49.1100   11.5140   72.6570 C.3     4  PRO4        0.1791
     25  C         49.6540   12.9110   72.9270 C.2     4  PRO4        0.3825
     26  O         49.3810   13.4340   74.0290 O.co2   4  PRO4       -0.2438
     27  CB        50.2060   10.5390   72.2370 C.3     4  PRO4        0.0332
     28  CG        50.2600   10.7350   70.7630 C.3     4  PRO4        0.0238
     29  CD        48.7900   10.7370   70.3950 C.3     4  PRO4        0.0940
     30  OXT       50.3390   13.4570   72.0330 O.co2   4  PRO4       -0.2438
@<TRIPOS>BOND
     1    21    20    1
     2    20    22    1
     3    20    19    2
     4    19    18    1
     5    18    17    1
     6     2     1    1
     7     2     3    1
     8    17    16    1
     9     4     3    2
    10     3     5   am
    11    16    13    1
    12    13    12    1
    13    13    14    1
    14    29    28    1
    15    29    23    1
    16     5    11    1
    17     5     6    1
    18    12     7   am
    19    28    27    1
    20    11    10    1
    21     7     8    2
    22     7     6    1
    23     6     9    1
    24    23    14   am
    25    23    24    1
    26    14    15    2
    27    30    25   ar
    28    10     9    1
    29    27    24    1
    30    24    25    1
    31    25    26   ar
