@<TRIPOS>MOLECULE
1ltk_AMP_A_1.pdb
 23 25 0 0 0
SMALL
GASTEIGER

@<TRIPOS>ATOM
      1  P          5.3090   39.7390   24.8820 P.3   501  AMP501      0.5327
      2  O1P        6.5950   39.5840   24.2080 O.2   501  AMP501     -0.2224
      3  O2P        4.5180   40.8910   24.3890 O.3   501  AMP501     -0.1145
      4  O3P        5.4570   39.7370   26.4010 O.3   501  AMP501     -0.1145
      5  O5'        4.4900   38.3810   24.4460 O.3   501  AMP501     -0.2675
      6  C5'        3.1310   38.1760   24.9360 C.3   501  AMP501      0.1860
      7  C4'        2.2600   37.7870   23.6910 C.3   501  AMP501      0.1823
      8  O4'        0.8460   37.5900   24.1630 O.3   501  AMP501     -0.3135
      9  C3'        2.2610   39.0150   22.5130 C.3   501  AMP501      0.2184
     10  O3'        2.4550   38.3030   21.1630 O.3   501  AMP501     -0.2174
     11  C2'        0.7710   39.6500   22.7390 C.3   501  AMP501      0.2570
     12  O2'        0.0810   39.9780   21.5390 O.3   501  AMP501     -0.2130
     13  C1'       -0.1000   38.4830   23.4960 C.3   501  AMP501      0.3186
     14  N9        -1.0460   39.0800   24.5430 N.pl3 501  AMP501     -0.1439
     15  C8        -1.5630   40.4010   24.6030 C.3   501  AMP501      0.3377
     16  N7        -2.4060   40.7040   25.6340 N.2   501  AMP501     -0.2095
     17  C5        -2.4250   39.4620   26.2880 C.2   501  AMP501      0.2526
     18  C6        -3.1300   39.0370   27.4700 C.2   501  AMP501      0.4393
     19  N6        -3.9420   39.9360   28.1290 N.pl3 501  AMP501      0.2180
     20  N1        -2.9150   37.7060   27.8520 N.2   501  AMP501      0.0021
     21  C2        -2.1050   36.8500   27.1640 C.3   501  AMP501      0.5254
     22  N3        -1.4030   37.1550   26.0320 N.2   501  AMP501     -0.0055
     23  C4        -1.6060   38.4570   25.6470 C.2   501  AMP501      0.3518
@<TRIPOS>BOND
     1    10     9    1
     2    12    11    1
     3     9    11    1
     4     9     7    1
     5    11    13    1
     6    13     8    1
     7    13    14    1
     8     7     8    1
     9     7     6    1
    10     2     1    2
    11     3     1    1
    12     5     1    1
    13     5     6    1
    14    14    15    1
    15    14    23    1
    16    15    16    1
    17     1     4    1
    18    16    17    2
    19    23    22    2
    20    23    17    1
    21    22    21    1
    22    17    18    1
    23    21    20    1
    24    18    20    2
    25    18    19    1
