@<TRIPOS>MOLECULE
1ltq_ADP_A_1.pdb
 27 29 0 0 0
SMALL
GASTEIGER

@<TRIPOS>ATOM
      1  PB        28.0330    8.3780   51.5640 P.3   900  ADP900      0.5373
      2  O1B       27.4790    9.2570   50.5260 O.2   900  ADP900     -0.2221
      3  O2B       27.1060    8.3350   52.8730 O.3   900  ADP900     -0.1143
      4  O3B       28.2350    6.9820   51.0220 O.3   900  ADP900     -0.1143
      5  PA        30.0140    8.9400   53.4730 P.3   900  ADP900      0.2231
      6  O1A       29.9050   10.1920   54.1020 O.2   900  ADP900     -0.5169
      7  O2A       29.3350    7.9560   54.3230 O.3   900  ADP900     -0.4370
      8  O3A       29.3270    9.0130   52.0650 O.3   900  ADP900     -0.2261
      9  O5'       31.5850    8.6450   53.2550 O.3   900  ADP900     -0.3111
     10  C5'       32.2510    8.4900   51.9720 C.3   900  ADP900      0.1813
     11  C4'       33.7890    8.3280   52.2400 C.3   900  ADP900      0.1821
     12  O4'       34.3970    9.4440   51.5630 O.3   900  ADP900     -0.3135
     13  C3'       34.2040    8.5000   53.7130 C.3   900  ADP900      0.2184
     14  O3'       35.2560    7.5770   54.0520 O.3   900  ADP900     -0.2174
     15  C2'       34.6460    9.9510   53.8760 C.3   900  ADP900      0.2570
     16  O2'       35.5760   10.1720   54.9090 O.3   900  ADP900     -0.2130
     17  C1'       35.1490   10.3330   52.5070 C.3   900  ADP900      0.3186
     18  N9        34.8560   11.8100   52.2030 N.pl3 900  ADP900     -0.1439
     19  C8        33.6250   12.4250   52.2860 C.3   900  ADP900      0.3377
     20  N7        33.7440   13.7180   51.9350 N.2   900  ADP900     -0.2095
     21  C5        34.9840   13.9590   51.6340 C.2   900  ADP900      0.2526
     22  C6        35.7220   15.0890   51.1960 C.2   900  ADP900      0.4393
     23  N6        35.1240   16.2770   50.9960 N.pl3 900  ADP900      0.2180
     24  N1        37.0840   14.9680   50.9580 N.2   900  ADP900      0.0021
     25  C2        37.7740   13.7770   51.1430 C.3   900  ADP900      0.5254
     26  N3        37.0730   12.6950   51.5600 N.2   900  ADP900     -0.0055
     27  C4        35.7150   12.7240   51.8140 C.2   900  ADP900      0.3518
@<TRIPOS>BOND
     1     2     1    2
     2    24    25    1
     3    24    22    2
     4    23    22    1
     5     4     1    1
     6    25    26    1
     7    22    21    1
     8    26    27    2
     9    12    11    1
    10    12    17    1
    11     1     8    1
    12     1     3    1
    13    21    27    1
    14    21    20    2
    15    27    18    1
    16    20    19    1
    17    10    11    1
    18    10     9    1
    19     8     5    1
    20    18    19    1
    21    18    17    1
    22    11    13    1
    23    17    15    1
    24     9     5    1
    25     5     6    2
    26     5     7    1
    27    13    15    1
    28    13    14    1
    29    15    16    1
