@<TRIPOS>MOLECULE
1ltt_GAL_D_1.pdb
 11 11 0 0 0
SMALL
GASTEIGER

@<TRIPOS>ATOM
      1  C1        17.3720   55.7300    7.9520 C.3   104  GAL104      0.1777
      2  C2        16.4860   54.9940    6.9680 C.3   104  GAL104      0.2141
      3  C3        15.0720   54.8450    7.5680 C.3   104  GAL104      0.2173
      4  C4        15.1310   54.1920    8.9460 C.3   104  GAL104      0.2142
      5  C5        16.0950   55.0210    9.8260 C.3   104  GAL104      0.1810
      6  C6        16.2790   54.5100   11.2660 C.3   104  GAL104      0.2141
      7  O2        16.4810   55.7330    5.7530 O.3   104  GAL104     -0.2176
      8  O3        14.2620   54.0490    6.7360 O.3   104  GAL104     -0.2175
      9  O4        15.5610   52.8470    8.7990 O.3   104  GAL104     -0.2176
     10  O5        17.3850   55.0450    9.1800 O.3   104  GAL104     -0.3481
     11  O6        17.1860   55.3180   11.9950 O.3   104  GAL104     -0.2176
@<TRIPOS>BOND
     1     7     2    1
     2     8     3    1
     3     2     3    1
     4     2     1    1
     5     3     4    1
     6     1    10    1
     7     9     4    1
     8     4     5    1
     9    10     5    1
    10     5     6    1
    11     6    11    1
