@<TRIPOS>MOLECULE
1ltw_HEM_A_1.pdb
 43 50 0 0 0
SMALL
GASTEIGER

@<TRIPOS>ATOM
      1 FE         35.3190    4.1500   10.3590 Fe    154  HEM154      0.0000
      2  CHA       37.9480    2.2280   11.4650 C.2   154  HEM154      0.0000
      3  CHB       37.2200    5.1940    7.7350 C.2   154  HEM154      0.0000
      4  CHC       32.7830    6.1690    9.2720 C.2   154  HEM154      0.0000
      5  CHD       33.4370    3.1480   12.9890 C.2   154  HEM154      0.0000
      6  NA        37.1610    3.8540    9.7750 N.ar  154  HEM154      0.0000
      7  C1A       38.1500    3.0230   10.3320 C.ar  154  HEM154      0.0000
      8  C2A       39.4230    3.0590    9.5390 C.ar  154  HEM154      0.0000
      9  C3A       39.1660    3.8790    8.4780 C.ar  154  HEM154      0.0000
     10  C4A       37.7690    4.3490    8.6180 C.ar  154  HEM154      0.0000
     11  CMA       40.0720    4.3230    7.3280 C.3   154  HEM154      0.0000
     12  CAA       40.7120    2.2360    9.7430 C.3   154  HEM154      0.0000
     13  CBA       40.7300    0.9880    8.8510 C.3   154  HEM154      0.0000
     14  CGA       39.4200    0.1870    8.8720 C.2   154  HEM154      0.0000
     15  O1A       39.0510   -0.4120    9.9230 O.co2 154  HEM154      0.0000
     16  O2A       38.7470    0.1180    7.8200 O.co2 154  HEM154      0.0000
     17  NB        35.0500    5.3770    8.7850 N.2   154  HEM154      0.0000
     18  C1B       35.9370    5.7210    7.8000 C.2   154  HEM154      0.0000
     19  C2B       35.3890    6.7310    6.7900 C.2   154  HEM154      0.0000
     20  C3B       34.1040    6.9500    7.2430 C.2   154  HEM154      0.0000
     21  C4B       33.9350    6.1260    8.4580 C.2   154  HEM154      0.0000
     22  CMB       36.0180    7.2540    5.4830 C.3   154  HEM154      0.0000
     23  CAB       33.1360    7.8770    6.7290 C.3   154  HEM154      0.0000
     24  CBB       33.3720    9.2440    6.1800 C.3   154  HEM154      0.0000
     25  NC        33.4340    4.4880   10.9590 N.ar  154  HEM154      0.0000
     26  C1C       32.5720    5.4430   10.4710 C.ar  154  HEM154      0.0000
     27  C2C       31.3860    5.5910   11.3190 C.ar  154  HEM154      0.0000
     28  C3C       31.5220    4.6890   12.3670 C.ar  154  HEM154      0.0000
     29  C4C       32.8060    3.9910   12.0960 C.ar  154  HEM154      0.0000
     30  CMC       30.2490    6.5740   10.9730 C.3   154  HEM154      0.0000
     31  CAC       30.7520    4.4490   13.5290 C.3   154  HEM154      0.0000
     32  CBC       29.7140    5.2720   14.0790 C.3   154  HEM154      0.0000
     33  ND        35.6480    2.9320   11.8320 N.2   154  HEM154      0.0000
     34  C1D       34.6990    2.6100   12.8690 C.2   154  HEM154      0.0000
     35  C2D       35.2460    1.6540   13.8030 C.2   154  HEM154      0.0000
     36  C3D       36.5470    1.5210   13.3770 C.2   154  HEM154      0.0000
     37  C4D       36.7560    2.2310   12.1770 C.2   154  HEM154      0.0000
     38  CMD       34.6010    1.0860   15.0500 C.3   154  HEM154      0.0000
     39  CAD       37.6430    0.8470   14.1740 C.3   154  HEM154      0.0000
     40  CBD       38.3160    1.8830   15.0870 C.3   154  HEM154      0.0000
     41  CGD       39.4480    1.2680   15.9140 C.2   154  HEM154      0.0000
     42  O1D       39.1900    0.6730   16.9770 O.co2 154  HEM154      0.0000
     43  O2D       40.6130    1.4480   15.5540 O.co2 154  HEM154      0.0000
@<TRIPOS>BOND
     1    22    19    1
     2    24    23    1
     3    23    20    1
     4    19    20    2
     5    19    18    1
     6    20    21    1
     7    11     9    1
     8     3    18    1
     9     3    10    2
    10    18    17    2
    11    16    14   ar
    12    21    17    1
    13    21     4    2
    14     9    10   ar
    15     9     8   ar
    16    10     6   ar
    17    17     1    1
    18    13    14    1
    19    13    12    1
    20    14    15   ar
    21     4    26    1
    22     8    12    1
    23     8     7   ar
    24     6     7   ar
    25     6     1    1
    26     7     2    2
    27     1    25    1
    28     1    33    1
    29    26    25   ar
    30    26    27   ar
    31    25    29   ar
    32    30    27    1
    33    27    28   ar
    34     2    37    1
    35    33    37    2
    36    33    34    1
    37    29    28   ar
    38    29     5    1
    39    37    36    1
    40    28    31    1
    41    34     5    2
    42    34    35    1
    43    36    35    2
    44    36    39    1
    45    31    32    1
    46    35    38    1
    47    39    40    1
    48    40    41    1
    49    43    41   ar
    50    41    42   ar
