@<TRIPOS>MOLECULE
1ltx_FAR_P_1.pdb
 15 14 0 0 0
SMALL
GASTEIGER

@<TRIPOS>ATOM
      1  C1        67.0100   53.3350   23.7230 C.3   1428  FAR1428     0.0300
      2  C2        66.7710   54.2440   22.5300 C.2   1428  FAR1428    -0.0342
      3  C3        67.0540   53.8740   21.2350 C.2   1428  FAR1428    -0.0478
      4  C5        66.8070   54.8100   20.0380 C.3   1428  FAR1428     0.0263
      5  C6        68.1340   55.4320   19.6330 C.3   1428  FAR1428     0.0297
      6  C7        68.0440   56.9310   19.8300 C.2   1428  FAR1428    -0.0343
      7  C8        68.8790   57.6440   20.6550 C.2   1428  FAR1428    -0.0482
      8  C9        68.7470   59.1900   20.8120 C.3   1428  FAR1428     0.0217
      9  C11       69.7630   59.8240   21.7610 C.3   1428  FAR1428     0.0043
     10  C12       69.8650   61.2860   21.3810 C.3   1428  FAR1428     0.0003
     11  C13       69.3170   62.3530   22.0350 C.3   1428  FAR1428     0.0000
     12  C14       70.0530   63.0450   23.1320 C.3   1428  FAR1428     0.0000
     13  C15       67.9570   62.8980   21.6990 C.3   1428  FAR1428     0.0000
     14  C4        67.6280   52.5330   20.8790 C.3   1428  FAR1428     0.0260
     15  C10       69.9600   56.9310   21.4320 C.3   1428  FAR1428     0.0260
@<TRIPOS>BOND
     1     5     6    1
     2     5     4    1
     3     6     7    2
     4     4     3    1
     5     7     8    1
     6     7    15    1
     7     8     9    1
     8    14     3    1
     9     3     2    2
    10    10     9    1
    11    10    11    1
    12    13    11    1
    13    11    12    1
    14     2     1    1
