@<TRIPOS>MOLECULE
1ltx_III_P_1.pdb
 21 20 0 0 0
SMALL
GASTEIGER

@<TRIPOS>ATOM
      1  N         62.4530   55.1540   30.8480 N.3     9  ALA9       -0.1231
      2  CA        61.9670   53.8320   30.4450 C.3     9  ALA9        0.1694
      3  C         62.0870   53.6630   28.9350 C.2     9  ALA9        0.2592
      4  O         61.1330   53.9370   28.2040 O.2     9  ALA9       -0.2718
      5  CB        60.5010   53.6410   30.8770 C.3     9  ALA9        0.0304
      6  N         63.2530   53.2030   28.4750 N.am   10  ALA10      -0.1966
      7  CA        63.5020   53.0040   27.0430 C.3    10  ALA10       0.1728
      8  C         63.8400   51.5470   26.6920 C.2    10  ALA10       0.2616
      9  O         63.9700   50.6930   27.5770 O.2    10  ALA10      -0.2715
     10  CB        64.6380   53.9330   26.5820 C.3    10  ALA10       0.0334
     11  N         63.9860   51.2890   25.3890 N.am   11  ALA11      -0.1963
     12  CA        64.3190   49.9680   24.8330 C.3    11  ALA11       0.1728
     13  C         65.1230   50.1450   23.5210 C.2    11  ALA11       0.2617
     14  O         66.3580   50.2300   23.5560 O.2    11  ALA11      -0.2715
     15  CB        63.0370   49.1660   24.5710 C.3    11  ALA11       0.0334
     16  N         64.4180   50.2090   22.3830 N.am   12  ALA12      -0.1942
     17  CA        65.0250   50.3880   21.0530 C.3    12  ALA12       0.1979
     18  C         63.9370   50.5680   20.0010 C.2    12  ALA12       0.3842
     19  O         62.7750   50.8030   20.3300 O.co2  12  ALA12      -0.2437
     20  CB        65.8990   49.1840   20.6770 C.3    12  ALA12       0.0356
     21  OXT       64.2810   50.4860   18.8050 O.co2  12  ALA12      -0.2437
@<TRIPOS>BOND
     1    21    18   ar
     2    18    19   ar
     3    18    17    1
     4    20    17    1
     5    17    16    1
     6    16    13   am
     7    13    14    2
     8    13    12    1
     9    15    12    1
    10    12    11    1
    11    11     8   am
    12    10     7    1
    13     8     7    1
    14     8     9    2
    15     7     6    1
    16     4     3    2
    17     6     3   am
    18     3     2    1
    19     2     1    1
    20     2     5    1
