@<TRIPOS>MOLECULE
1ltz_HBI_A_1.pdb
 17 18 0 0 0
SMALL
GASTEIGER

@<TRIPOS>ATOM
      1  N1       -15.7330   11.4100   29.6010 N.2   500  HBI500     -0.2672
      2  N2       -13.9560   11.9810   31.0590 N.pl3 500  HBI500     -0.0220
      3  C2       -14.4450   11.7590   29.8110 C.1   500  HBI500      0.2609
      4  N3       -13.5620   11.8610   28.7600 N.2   500  HBI500     -0.2466
      5  C4       -13.9140   11.5740   27.4830 C.1   500  HBI500      0.2569
      6  O4       -13.0790   11.5890   26.5370 O.2   500  HBI500     -0.2052
      7  C4A      -15.2590   11.1710   27.1940 C.2   500  HBI500      0.2989
      8  C8A      -16.1430   11.1290   28.3270 C.1   500  HBI500      0.1401
      9  N8       -17.4490   10.7990   28.0980 N.2   500  HBI500     -0.1992
     10  C7       -17.9690   10.8770   26.7990 C.3   500  HBI500      0.1940
     11  C6       -17.0500   10.5000   25.6940 C.2   500  HBI500      0.1466
     12  N5       -15.6460   10.7410   25.9310 N.2   500  HBI500     -0.3830
     13  C9       -17.4050    9.8010   24.3630 C.3   500  HBI500      0.2313
     14  O9       -18.2860    8.6730   24.6640 O.3   500  HBI500     -0.2130
     15  C10      -18.1440   10.6790   23.3530 C.3   500  HBI500      0.1888
     16  O10      -19.4540   11.0180   23.9080 O.3   500  HBI500     -0.2200
     17  C11      -17.3680   11.9530   23.0990 C.3   500  HBI500      0.0387
@<TRIPOS>BOND
     1    17    15    1
     2    15    16    1
     3    15    13    1
     4    13    14    1
     5    13    11    1
     6    11    12    2
     7    11    10    1
     8    12     7    2
     9     6     5    2
    10    10     9    1
    11     7     5    1
    12     7     8    1
    13     5     4    2
    14     9     8    2
    15     8     1    2
    16     4     3    2
    17     1     3    2
    18     3     2    1
