@<TRIPOS>MOLECULE
1lu1_ADE_A_1.pdb
 10 11 0 0 0
SMALL
GASTEIGER

@<TRIPOS>ATOM
      1  N9        29.4560   23.9850  130.6550 N.2   601  ADE601     -0.1914
      2  C8        30.6160   23.8190  129.9490 C.3   601  ADE601      0.2618
      3  N7        30.5080   24.1310  128.6870 N.2   601  ADE601     -0.2267
      4  C5        29.2060   24.5290  128.5410 C.2   601  ADE601      0.2303
      5  C6        28.4490   24.9900  127.4340 C.2   601  ADE601      0.4393
      6  N6        28.9840   25.1160  126.2310 N.pl3 601  ADE601      0.2185
      7  N1        27.1400   25.3070  127.6530 N.2   601  ADE601     -0.0265
      8  C2        26.6340   25.1680  128.8930 C.3   601  ADE601      0.4008
      9  N3        27.2660   24.7440  130.0040 N.2   601  ADE601     -0.1640
     10  C4        28.5520   24.4420  129.7440 C.1   601  ADE601      0.0579
@<TRIPOS>BOND
     1     6     5    1
     2     5     7    2
     3     5     4    1
     4     7     8    1
     5     4     3    2
     6     4    10    1
     7     3     2    1
     8     8     9    1
     9    10     9    2
    10    10     1    2
    11     2     1    1
