@<TRIPOS>MOLECULE
1lu1_A2G_A_1.pdb
 14 14 0 0 0
SMALL
GASTEIGER

@<TRIPOS>ATOM
      1  C1        11.5630   20.3430  101.4290 C.3   254  A2G254      0.1665
      2  C2        12.8770   20.5900  102.1930 C.3   254  A2G254      0.1576
      3  C3        12.6370   20.8630  103.6770 C.3   254  A2G254      0.2069
      4  C4        11.6640   22.0330  103.8320 C.3   254  A2G254      0.2134
      5  C5        10.3770   21.6940  103.1030 C.3   254  A2G254      0.1809
      6  C6         9.3710   22.8350  103.1730 C.3   254  A2G254      0.2141
      7  C7        15.0570   19.6080  101.8030 C.2   254  A2G254      0.2420
      8  C8        15.9350   18.3700  101.6890 C.3   254  A2G254      0.0964
      9  O         10.6240   21.4130  101.6940 O.3   254  A2G254     -0.3489
     10  O3        13.8850   21.1480  104.3230 O.3   254  A2G254     -0.2184
     11  O4        12.2310   23.1770  103.2210 O.3   254  A2G254     -0.2176
     12  O6         8.1730   22.4520  102.5410 O.3   254  A2G254     -0.2176
     13  O7        15.5590   20.7180  101.6570 O.2   254  A2G254     -0.2733
     14  N2        13.7540   19.4420  102.0410 N.am  254  A2G254     -0.2019
@<TRIPOS>BOND
     1     1     9    1
     2     1     2    1
     3    13     7    2
     4     8     7    1
     5     9     5    1
     6     7    14   am
     7    14     2    1
     8     2     3    1
     9    12     6    1
    10     5     6    1
    11     5     4    1
    12    11     4    1
    13     3     4    1
    14     3    10    1
