@<TRIPOS>MOLECULE
1lu2_A2G_A_1.pdb
 15 15 0 0 0
SMALL
GASTEIGER

@<TRIPOS>ATOM
      1  C1        -5.8900   33.4770   28.7730 C.3   254  A2G254      0.2917
      2  C2        -5.1060   32.3730   28.0260 C.3   254  A2G254      0.1871
      3  C3        -5.4820   32.3430   26.5470 C.3   254  A2G254      0.2095
      4  C4        -7.0010   32.2440   26.3720 C.3   254  A2G254      0.2136
      5  C5        -7.6950   33.3610   27.1600 C.3   254  A2G254      0.1835
      6  C6        -9.2020   33.2410   27.1070 C.3   254  A2G254      0.2142
      7  C7        -2.9100   31.5420   28.5870 C.2   254  A2G254      0.2421
      8  C8        -1.4130   31.8090   28.6960 C.3   254  A2G254      0.0964
      9  O         -7.3110   33.3200   28.5600 O.3   254  A2G254     -0.3242
     10  O1        -5.5110   34.7460   28.3480 O.3   254  A2G254     -0.1879
     11  O3        -4.8580   31.2330   25.9270 O.3   254  A2G254     -0.2183
     12  O4        -7.4660   30.9760   26.8090 O.3   254  A2G254     -0.2176
     13  O6        -9.8220   34.4060   27.6320 O.3   254  A2G254     -0.2176
     14  O7        -3.3610   30.4310   28.8940 O.2   254  A2G254     -0.2733
     15  N2        -3.6710   32.5500   28.1620 N.am  254  A2G254     -0.1991
@<TRIPOS>BOND
     1    11     3    1
     2     4     3    1
     3     4    12    1
     4     4     5    1
     5     3     2    1
     6     6     5    1
     7     6    13    1
     8     5     9    1
     9     2    15    1
    10     2     1    1
    11    15     7   am
    12    10     1    1
    13     9     1    1
    14     7     8    1
    15     7    14    2
