@<TRIPOS>MOLECULE
1lua_NAP_A_1.pdb
 48 52 0 0 0
SMALL
GASTEIGER

@<TRIPOS>ATOM
      1  PA        36.0380   33.3010   44.2410 P.3   456  NAP456      0.2189
      2  O1A       35.8310   34.7020   44.5930 O.2   456  NAP456     -0.5170
      3  O2A       36.7640   32.4330   45.1670 O.3   456  NAP456     -0.4371
      4  O5B       36.7420   33.3020   42.7680 O.3   456  NAP456     -0.3112
      5  C5B       36.7760   32.1150   41.9530 C.3   456  NAP456      0.1813
      6  C4B       38.0580   32.0650   41.1410 C.3   456  NAP456      0.1820
      7  O4B       38.0240   33.0750   40.1560 O.3   456  NAP456     -0.3136
      8  C3B       39.3400   32.3140   41.8910 C.3   456  NAP456      0.2157
      9  O3B       39.7580   31.1370   42.5890 O.3   456  NAP456     -0.2175
     10  C2B       40.3180   32.6240   40.7570 C.3   456  NAP456      0.2314
     11  O2B       40.9280   31.4380   40.1640 O.3   456  NAP456     -0.2630
     12  C1B       39.3930   33.2180   39.6810 C.3   456  NAP456      0.3158
     13  N9A       39.6430   34.6470   39.3760 N.pl3 456  NAP456     -0.1439
     14  C8A       39.5960   35.7660   40.2030 C.3   456  NAP456      0.3377
     15  N7A       39.8860   36.8750   39.5640 N.2   456  NAP456     -0.2095
     16  C5A       40.1370   36.4780   38.2650 C.2   456  NAP456      0.2526
     17  C6A       40.4960   37.1950   37.0940 C.2   456  NAP456      0.4393
     18  N6A       40.6580   38.5120   37.1040 N.pl3 456  NAP456      0.2180
     19  N1A       40.6770   36.4900   35.9390 N.2   456  NAP456      0.0021
     20  C2A       40.5090   35.1440   35.9180 C.3   456  NAP456      0.5254
     21  N3A       40.1660   34.3920   36.9780 N.2   456  NAP456     -0.0055
     22  C4A       39.9920   35.1310   38.1300 C.2   456  NAP456      0.3518
     23  O3        34.6380   32.6360   43.8690 O.3   456  NAP456     -0.2703
     24  PN        33.5130   31.7950   44.6570 P.3   456  NAP456      0.2189
     25  O1N       33.8570   30.3690   44.5420 O.2   456  NAP456     -0.5170
     26  O2N       33.4400   32.3960   46.0330 O.3   456  NAP456     -0.4371
     27  O5D       32.1250   32.1950   44.0490 O.3   456  NAP456     -0.3112
     28  C5D       31.7720   31.7570   42.7340 C.3   456  NAP456      0.1813
     29  C4D       30.7690   32.7140   42.0790 C.3   456  NAP456      0.1799
     30  O4D       29.4390   32.4200   42.5110 O.3   456  NAP456     -0.3327
     31  C3D       30.9760   34.2200   42.3710 C.3   456  NAP456      0.2158
     32  O3D       30.7800   35.0690   41.2280 O.3   456  NAP456     -0.2175
     33  C2D       29.9850   34.5650   43.4790 C.3   456  NAP456      0.2309
     34  O2D       29.4800   35.8780   43.3850 O.3   456  NAP456     -0.2158
     35  C1D       28.8700   33.5030   43.2580 C.3   456  NAP456      0.2263
     36  N1N       28.2370   33.0720   44.5320 N.pl3 456  NAP456     -0.2787
     37  C2N       26.9150   33.5390   44.6950 C.3   456  NAP456      0.1244
     38  C3N       26.2180   33.1820   45.9090 C.2   456  NAP456      0.0544
     39  C7N       24.8420   33.6590   46.1650 C.2   456  NAP456      0.2818
     40  O7N       24.0850   33.1290   46.9850 O.2   456  NAP456     -0.2670
     41  N7N       24.3370   34.6950   45.4810 N.am  456  NAP456     -0.0839
     42  C4N       26.8870   32.3620   46.8490 C.2   456  NAP456      0.0033
     43  C5N       28.1690   31.9260   46.6740 C.2   456  NAP456      0.0157
     44  C6N       28.8520   32.2810   45.5150 C.2   456  NAP456      0.0633
     45  P2B       42.5080   31.2620   39.8360 P.3   456  NAP456      0.5328
     46  O1X       42.8710   29.8550   40.0670 O.3   456  NAP456     -0.1145
     47  O2X       42.5630   31.6610   38.4160 O.2   456  NAP456     -0.2224
     48  O3X       43.1890   32.2330   40.7050 O.3   456  NAP456     -0.1145
@<TRIPOS>BOND
     1    20    19    1
     2    20    21    1
     3    19    17    2
     4    21    22    2
     5    17    18    1
     6    17    16    1
     7    22    16    1
     8    22    13    1
     9    16    15    2
    10    47    45    2
    11    13    12    1
    12    13    14    1
    13    15    14    1
    14    12     7    1
    15    12    10    1
    16    45    46    1
    17    45    11    1
    18    45    48    1
    19     7     6    1
    20    11    10    1
    21    10     8    1
    22     6     8    1
    23     6     5    1
    24    32    31    1
    25     8     9    1
    26     5     4    1
    27    29    31    1
    28    29    30    1
    29    29    28    1
    30    31    33    1
    31    30    35    1
    32    28    27    1
    33     4     1    1
    34    35    33    1
    35    35    36    1
    36    34    33    1
    37    23     1    1
    38    23    24    1
    39    27    24    1
    40     1     2    2
    41     1     3    1
    42    36    37    1
    43    36    44    1
    44    25    24    2
    45    24    26    1
    46    37    38    1
    47    41    39   am
    48    44    43    2
    49    38    39    1
    50    38    42    2
    51    39    40    2
    52    43    42    1
