@<TRIPOS>MOLECULE
1lud_TRR_A_1.pdb
 40 41 0 0 0
SMALL
GASTEIGER

@<TRIPOS>ATOM
      1  N1         4.0180   -4.6380    1.5520 N.pl3 170  TRR170     -0.2834
      2  C2         3.8540   -3.3030    1.8370 C.cat 170  TRR170      0.2366
      3  N2         4.8060   -2.6410    2.5790 N.pl3 170  TRR170     -0.3207
      4  N3         2.7390   -2.6320    1.3790 N.2   170  TRR170     -0.3592
      5  C4         1.7870   -3.2980    0.6340 C.2   170  TRR170      0.1762
      6  N4         0.6760   -2.6250    0.1780 N.pl3 170  TRR170     -0.3331
      7  C5         1.9510   -4.6480    0.3460 C.2   170  TRR170      0.0227
      8  C6         3.0760   -5.3130    0.8110 C.2   170  TRR170      0.0049
      9  C7         0.9150   -5.3780   -0.4650 C.3   170  TRR170      0.0033
     10  C11        0.9390   -6.8670   -0.2690 C.ar  170  TRR170     -0.0357
     11  C12        1.2510   -7.6980   -1.3410 C.ar  170  TRR170     -0.0126
     12  C13        1.2730   -9.0870   -1.1710 C.ar  170  TRR170      0.1654
     13  C14        0.9810   -9.6370    0.0780 C.ar  170  TRR170      0.2035
     14  C15        0.6680   -8.8060    1.1560 C.ar  170  TRR170      0.1654
     15  C16        0.6480   -7.4150    0.9790 C.ar  170  TRR170     -0.0126
     16  O13        1.5840   -9.9280   -2.2380 O.3   170  TRR170     -0.4913
     17  O14        1.0010  -11.0060    0.2470 O.3   170  TRR170     -0.4885
     18  O15        0.3870   -9.3730    2.3980 O.3   170  TRR170     -0.4913
     19  C17        1.8750   -9.3620   -3.4930 C.3   170  TRR170      0.0790
     20  C18        2.2410  -11.6270    0.4460 C.3   170  TRR170      0.0791
     21  C19        0.0940   -8.5310    3.4850 C.3   170  TRR170      0.0790
     22  H1         4.8130   -5.1130    1.8800 H     170  TRR170      0.1552
     23  H21        4.6990   -1.6790    2.7900 H     170  TRR170      0.1459
     24  H22        5.6100   -3.1210    2.9110 H     170  TRR170      0.1459
     25  H41       -0.0120   -3.0940   -0.3570 H     170  TRR170      0.1447
     26  H42        0.5530   -1.6670    0.3790 H     170  TRR170      0.1447
     27  H6         3.2150   -6.3810    0.5880 H     170  TRR170      0.0787
     28  H71        1.0800   -5.1570   -1.5190 H     170  TRR170      0.0363
     29  H72       -0.0690   -5.0120   -0.1900 H     170  TRR170      0.0363
     30  H12        1.4800   -7.2600   -2.3240 H     170  TRR170      0.0658
     31  H16        0.4010   -6.7540    1.8250 H     170  TRR170      0.0658
     32 H171        2.7350   -8.6950   -3.4390 H     170  TRR170      0.0660
     33 H172        1.0350   -8.7810   -3.8720 H     170  TRR170      0.0660
     34 H173        2.1030  -10.1290   -4.2330 H     170  TRR170      0.0660
     35 H181        2.3750  -12.4720   -0.2300 H     170  TRR170      0.0660
     36 H182        2.3380  -12.0040    1.4640 H     170  TRR170      0.0660
     37 H183        3.0660  -10.9360    0.2720 H     170  TRR170      0.0660
     38 H191        0.0750   -9.0850    4.4230 H     170  TRR170      0.0660
     39 H192       -0.8750   -8.0520    3.3710 H     170  TRR170      0.0660
     40 H193        0.8380   -7.7410    3.5870 H     170  TRR170      0.0660
@<TRIPOS>BOND
     1    34    19    1
     2    33    19    1
     3    19    32    1
     4    19    16    1
     5    30    11    1
     6    16    12    1
     7    28     9    1
     8    11    12   ar
     9    11    10   ar
    10    12    13   ar
    11     9    10    1
    12     9    29    1
    13     9     7    1
    14    25     6    1
    15    10    15   ar
    16    35    20    1
    17    13    17    1
    18    13    14   ar
    19     6    26    1
    20     6     5    1
    21    17    20    1
    22    37    20    1
    23     7     5    1
    24     7     8    2
    25    20    36    1
    26    27     8    1
    27     5     4    2
    28     8     1    1
    29    15    14   ar
    30    15    31    1
    31    14    18    1
    32     4     2    2
    33     1     2    1
    34     1    22    1
    35     2     3    1
    36    18    21    1
    37     3    23    1
    38     3    24    1
    39    39    21    1
    40    21    40    1
    41    21    38    1
