@<TRIPOS>MOLECULE
1lue_HEM_A_1.pdb
 43 50 0 0 0
SMALL
GASTEIGER

@<TRIPOS>ATOM
      1 FE         35.4140    4.3820   10.0350 Fe    154  HEM154      0.0000
      2  CHA       38.0860    2.5790   11.1710 C.2   154  HEM154      0.0000
      3  CHB       37.2710    5.5140    7.4380 C.2   154  HEM154      0.0000
      4  CHC       32.8300    6.3930    9.1080 C.2   154  HEM154      0.0000
      5  CHD       33.6730    3.4990   12.8400 C.2   154  HEM154      0.0000
      6  NA        37.2660    4.1140    9.4410 N.ar  154  HEM154      0.0000
      7  C1A       38.2410    3.3000    9.9990 C.ar  154  HEM154      0.0000
      8  C2A       39.4440    3.2950    9.1960 C.ar  154  HEM154      0.0000
      9  C3A       39.2180    4.1310    8.1600 C.ar  154  HEM154      0.0000
     10  C4A       37.8760    4.6380    8.3190 C.ar  154  HEM154      0.0000
     11  CMA       40.1770    4.4500    7.0210 C.3   154  HEM154      0.0000
     12  CAA       40.6880    2.4310    9.4210 C.3   154  HEM154      0.0000
     13  CBA       40.7400    1.2210    8.4880 C.3   154  HEM154      0.0000
     14  CGA       39.4900    0.3620    8.5750 C.2   154  HEM154      0.0000
     15  O1A       39.2620   -0.2620    9.6320 O.co2 154  HEM154      0.0000
     16  O2A       38.7340    0.3190    7.5810 O.co2 154  HEM154      0.0000
     17  NB        35.1070    5.6440    8.5760 N.2   154  HEM154      0.0000
     18  C1B       35.9720    5.9790    7.5530 C.2   154  HEM154      0.0000
     19  C2B       35.3570    6.8960    6.6250 C.2   154  HEM154      0.0000
     20  C3B       34.1050    7.1400    7.0890 C.2   154  HEM154      0.0000
     21  C4B       33.9590    6.3700    8.3020 C.2   154  HEM154      0.0000
     22  CMB       35.9950    7.4710    5.3630 C.3   154  HEM154      0.0000
     23  CAB       33.1300    7.9340    6.4930 C.3   154  HEM154      0.0000
     24  CBB       33.3110    9.3590    6.2990 C.3   154  HEM154      0.0000
     25  NC        33.6450    4.8350   10.8010 N.ar  154  HEM154      0.0000
     26  C1C       32.6860    5.6870   10.2850 C.ar  154  HEM154      0.0000
     27  C2C       31.5230    5.7720   11.1510 C.ar  154  HEM154      0.0000
     28  C3C       31.7660    4.9500   12.2020 C.ar  154  HEM154      0.0000
     29  C4C       33.0750    4.3820   11.9780 C.ar  154  HEM154      0.0000
     30  CMC       30.2910    6.6480   10.9370 C.3   154  HEM154      0.0000
     31  CAC       30.8990    4.6170   13.2440 C.3   154  HEM154      0.0000
     32  CBC       30.0860    5.5870   13.9510 C.3   154  HEM154      0.0000
     33  ND        35.7660    3.2330   11.6050 N.2   154  HEM154      0.0000
     34  C1D       34.9240    2.9610   12.6710 C.2   154  HEM154      0.0000
     35  C2D       35.5530    2.1070   13.6440 C.2   154  HEM154      0.0000
     36  C3D       36.8000    1.8700   13.2020 C.2   154  HEM154      0.0000
     37  C4D       36.9300    2.5560   11.9300 C.2   154  HEM154      0.0000
     38  CMD       34.9150    1.5550   14.9160 C.3   154  HEM154      0.0000
     39  CAD       37.8780    1.0810   13.9370 C.3   154  HEM154      0.0000
     40  CBD       38.7170    1.9460   14.8630 C.3   154  HEM154      0.0000
     41  CGD       39.6730    1.1250   15.7070 C.2   154  HEM154      0.0000
     42  O1D       39.1960    0.3420   16.5540 O.co2 154  HEM154      0.0000
     43  O2D       40.8990    1.2560   15.5230 O.co2 154  HEM154      0.0000
@<TRIPOS>BOND
     1    22    19    1
     2    24    23    1
     3    23    20    1
     4    19    20    2
     5    19    18    1
     6    11     9    1
     7    20    21    1
     8     3    18    1
     9     3    10    2
    10    18    17    2
    11    16    14   ar
    12     9    10   ar
    13     9     8   ar
    14    21    17    1
    15    21     4    2
    16    10     6   ar
    17    13    14    1
    18    13    12    1
    19    14    15   ar
    20    17     1    1
    21     4    26    1
    22     8    12    1
    23     8     7   ar
    24     6     7   ar
    25     6     1    1
    26     7     2    2
    27     1    25    1
    28     1    33    1
    29    26    25   ar
    30    26    27   ar
    31    25    29   ar
    32    30    27    1
    33    27    28   ar
    34     2    37    1
    35    33    37    2
    36    33    34    1
    37    37    36    1
    38    29    28   ar
    39    29     5    1
    40    28    31    1
    41    34     5    2
    42    34    35    1
    43    36    35    2
    44    36    39    1
    45    31    32    1
    46    35    38    1
    47    39    40    1
    48    40    41    1
    49    43    41   ar
    50    41    42   ar
