@<TRIPOS>MOLECULE
1lug_SUA_A_1.pdb
 17 17 0 0 0
SMALL
GASTEIGER

@<TRIPOS>ATOM
      1  S1        -5.8750    0.9760   16.7230 S.O2  1002  SUA1002     0.0935
      2  O1        -7.2940    1.0670   16.5960 O.2   1002  SUA1002    -0.1503
      3  O2        -5.3240    1.1220   18.0570 O.2   1002  SUA1002    -0.1503
      4  N1        -5.3450   -0.3490   16.0460 N.3   1002  SUA1002     0.0392
      5  C1        -3.3030    3.4230   14.8150 C.ar  1002  SUA1002     0.0180
      6  C2        -3.8810    2.3560   15.4860 C.ar  1002  SUA1002     0.0213
      7  C3        -5.2230    2.3320   15.7890 C.ar  1002  SUA1002     0.1251
      8  C4        -6.0240    3.3900   15.4230 C.ar  1002  SUA1002     0.0213
      9  C5        -5.4770    4.4450   14.7200 C.ar  1002  SUA1002     0.0180
     10  C6        -4.1090    4.5080   14.4760 C.ar  1002  SUA1002     0.0741
     11  N2        -3.5860    5.6380   13.8710 N.am  1002  SUA1002    -0.1731
     12  C7        -4.1140    6.1940   12.8760 C.2   1002  SUA1002     0.2534
     13  S2        -2.9800    7.1010   12.2290 S.2   1002  SUA1002     0.0079
     14  O3        -5.4670    6.3830   12.3560 O.3   1002  SUA1002    -0.4571
     15  C8        -6.2050    7.4820   11.6340 C.3   1002  SUA1002     0.2074
     16  C9        -6.7300    6.7080   10.4310 C.3   1002  SUA1002     0.0474
     17  C10       -7.1320    7.8760    9.5140 C.3   1002  SUA1002     0.0040
@<TRIPOS>BOND
     1    17    16    1
     2    16    15    1
     3    15    14    1
     4    13    12    2
     5    14    12    1
     6    12    11    1
     7    11    10    1
     8    10     9   ar
     9    10     5   ar
    10     9     8   ar
    11     5     6   ar
    12     8     7   ar
    13     6     7   ar
    14     7     1    1
    15     4     1    1
    16     2     1    2
    17     1     3    2
