@<TRIPOS>MOLECULE
1luq_BTN_A_1.pdb
 16 17 0 0 0
SMALL
GASTEIGER

@<TRIPOS>ATOM
      1  C11       32.4190   18.0230   14.0220 C.2   5100  BTN5100     0.3649
      2  O11       33.3210   17.3520   13.4740 O.co2 5100  BTN5100    -0.2457
      3  O12       32.3150   19.2830   13.8410 O.co2 5100  BTN5100    -0.2457
      4  C10       31.4310   17.3720   14.9370 C.3   5100  BTN5100     0.1141
      5  C9        31.0180   15.9740   14.5640 C.3   5100  BTN5100     0.0118
      6  C8        30.3070   15.9350   13.2280 C.3   5100  BTN5100     0.0015
      7  C7        29.8860   14.5410   12.7800 C.3   5100  BTN5100     0.0129
      8  C2        29.0590   14.5450   11.4940 C.3   5100  BTN5100     0.0729
      9  S1        27.3900   15.1450   11.6860 S.3   5100  BTN5100    -0.1369
     10  C6        27.0120   14.5970   10.0110 C.3   5100  BTN5100     0.0848
     11  C5        27.6500   13.2200    9.9030 C.3   5100  BTN5100     0.1509
     12  N1        26.7980   12.1540   10.4480 N.2   5100  BTN5100    -0.1859
     13  C3        27.3690   11.5560   11.5010 C.1   5100  BTN5100     0.2386
     14  O3        26.8390   10.6410   12.1850 O.2   5100  BTN5100    -0.2023
     15  N2        28.6030   12.0960   11.7570 N.2   5100  BTN5100    -0.1860
     16  C4        28.9140   13.1550   10.8210 C.3   5100  BTN5100     0.1500
@<TRIPOS>BOND
     1    11    10    1
     2    11    12    1
     3    11    16    1
     4    10     9    1
     5    12    13    2
     6    16     8    1
     7    16    15    1
     8     8     9    1
     9     8     7    1
    10    13    15    2
    11    13    14    2
    12     7     6    1
    13     6     5    1
    14     2     1   ar
    15     3     1   ar
    16     1     4    1
    17     5     4    1
