@<TRIPOS>MOLECULE
1lv0_GER_A_1.pdb
 20 19 0 0 0
SMALL
GASTEIGER

@<TRIPOS>ATOM
      1  C1       -13.5800   -3.3070   -3.5050 C.3   1000  GER1000     0.0300
      2  C2       -14.2800   -3.4260   -2.1540 C.2   1000  GER1000    -0.0342
      3  C3       -14.2830   -2.4570   -1.1830 C.2   1000  GER1000    -0.0478
      4  C4       -13.4530   -1.1960   -1.4250 C.3   1000  GER1000     0.0260
      5  C5       -15.1100   -2.6560    0.1140 C.3   1000  GER1000     0.0263
      6  C6       -15.3010   -1.6120    1.2150 C.3   1000  GER1000     0.0297
      7  C7       -16.6300   -0.8770    1.0660 C.2   1000  GER1000    -0.0342
      8  C8       -16.7620    0.4540    1.3660 C.2   1000  GER1000    -0.0478
      9  C9       -15.5070    1.1970    1.8680 C.3   1000  GER1000     0.0260
     10  C10      -18.1910    1.0400    1.1510 C.3   1000  GER1000     0.0263
     11  C11      -19.4410    0.1840    0.9160 C.3   1000  GER1000     0.0297
     12  C12      -20.4310    0.7360    1.9590 C.2   1000  GER1000    -0.0342
     13  C13      -21.5040    1.5420    1.6520 C.2   1000  GER1000    -0.0478
     14  C14      -21.7530    1.9070    0.1800 C.3   1000  GER1000     0.0260
     15  C15      -22.4330    2.0670    2.7690 C.3   1000  GER1000     0.0263
     16  C16      -22.0910    2.0600    4.2640 C.3   1000  GER1000     0.0297
     17  C17      -21.9040    3.4740    4.8090 C.2   1000  GER1000    -0.0342
     18  C18      -20.7350    3.8900    5.4000 C.2   1000  GER1000    -0.0478
     19  C19      -19.5800    2.8790    5.5050 C.3   1000  GER1000     0.0260
     20  C20      -20.7610    5.3610    5.8870 C.3   1000  GER1000     0.0260
@<TRIPOS>BOND
     1     1     2    1
     2     2     3    2
     3     4     3    1
     4     3     5    1
     5     5     6    1
     6    14    13    1
     7    11    10    1
     8    11    12    1
     9     7     6    1
    10     7     8    2
    11    10     8    1
    12     8     9    1
    13    13    12    2
    14    13    15    1
    15    15    16    1
    16    16    17    1
    17    17    18    2
    18    18    19    1
    19    18    20    1
