@<TRIPOS>MOLECULE
1lv5_DCP_A_1.pdb
 28 29 0 0 0
SMALL
GASTEIGER

@<TRIPOS>ATOM
      1  N1        39.6950   34.4550 -110.6090 N.am  201  DCP201     -0.1802
      2  C2        38.6680   34.9580 -109.7570 C.1   201  DCP201      0.2756
      3  N3        38.6050   34.5220 -108.4240 N.2   201  DCP201     -0.3024
      4  C4        39.5510   33.5950 -107.9300 C.2   201  DCP201      0.2346
      5  C5        40.5530   33.0870 -108.7720 C.2   201  DCP201      0.0687
      6  C6        40.6240   33.5170 -110.1030 C.2   201  DCP201      0.0835
      7  O2        37.8420   35.7740 -110.1780 O.2   201  DCP201     -0.1925
      8  N4        39.5130   33.2300 -106.6460 N.pl3 201  DCP201     -0.0921
      9  C1'       39.8510   35.0120 -111.9820 C.3   201  DCP201      0.2090
     10  C2'       40.6610   36.3270 -111.8940 C.3   201  DCP201      0.0874
     11  C3'       42.0620   35.8930 -112.2350 C.3   201  DCP201      0.1857
     12  C4'       41.8220   34.8550 -113.3140 C.3   201  DCP201      0.1773
     13  O4'       40.6650   34.1040 -112.8240 O.3   201  DCP201     -0.3339
     14  O3'       42.7830   37.0050 -112.7710 O.3   201  DCP201     -0.2203
     15  C5'       43.0250   33.9670 -113.6050 C.3   201  DCP201      0.1812
     16  O5'       43.2950   33.1000 -112.4980 O.3   201  DCP201     -0.3112
     17  PA        44.7840   32.9990 -111.9010 P.3   201  DCP201      0.2189
     18  O1A       44.8180   31.9560 -110.8670 O.3   201  DCP201     -0.4371
     19  O2A       45.7670   32.9100 -113.0140 O.2   201  DCP201     -0.5170
     20  O3A       44.9300   34.4580 -111.1610 O.3   201  DCP201     -0.2700
     21  PB        45.7830   35.7340 -111.7320 P.3   201  DCP201      0.2277
     22  O1B       44.9060   36.8210 -111.2300 O.3   201  DCP201     -0.4368
     23  O2B       45.8950   35.3400 -113.1430 O.2   201  DCP201     -0.5168
     24  O3B       46.9990   35.3940 -110.7300 O.3   201  DCP201     -0.2258
     25  PG        48.4020   34.8140 -111.2580 P.3   201  DCP201      0.5373
     26  O1G       48.8700   33.7640 -110.3160 O.3   201  DCP201     -0.1143
     27  O2G       48.2920   34.4790 -112.6910 O.2   201  DCP201     -0.2221
     28  O3G       49.3620   36.0870 -111.1260 O.3   201  DCP201     -0.1143
@<TRIPOS>BOND
     1    15    12    1
     2    15    16    1
     3    12    13    1
     4    12    11    1
     5    23    21    2
     6    19    17    2
     7    13     9    1
     8    14    11    1
     9    27    25    2
    10    16    17    1
    11    11    10    1
    12     9    10    1
    13     9     1    1
    14    17    20    1
    15    17    18    1
    16    21    22    1
    17    21    20    1
    18    21    24    1
    19    25    28    1
    20    25    24    1
    21    25    26    1
    22     1     6    1
    23     1     2   am
    24     7     2    2
    25     6     5    2
    26     2     3    2
    27     5     4    1
    28     3     4    2
    29     4     8    1
