@<TRIPOS>MOLECULE
1lv8_9PP_A_1.pdb
 20 21 0 0 0
SMALL
GASTEIGER

@<TRIPOS>ATOM
      1  N9       -40.2740   -8.6830  220.9790 N.pl3 3001  9PP3001    -0.2583
      2  C8       -39.1920   -9.1180  220.2040 C.3   3001  9PP3001     0.2221
      3  N7       -39.6140   -9.9630  219.2480 N.2   3001  9PP3001    -0.2402
      4  C5       -41.0010  -10.0900  219.3890 C.2   3001  9PP3001     0.1706
      5  C6       -42.0150  -10.8630  218.6410 C.2   3001  9PP3001     0.2537
      6  N6       -41.8310  -11.6210  217.6560 N.pl3 3001  9PP3001    -0.0904
      7  N1       -43.3520  -10.6790  219.1480 N.2   3001  9PP3001    -0.3056
      8  C2       -43.6720   -9.8540  220.2470 C.1   3001  9PP3001     0.2441
      9  N2       -44.9630   -9.7620  220.6220 N.pl3 3001  9PP3001    -0.0232
     10  N3       -42.7250   -9.1360  220.9500 N.2   3001  9PP3001    -0.3087
     11  C4       -41.4300   -9.2940  220.4760 C.2   3001  9PP3001     0.2199
     12  C10      -40.2480   -7.7790  222.0580 C.3   3001  9PP3001     0.1245
     13  C11      -39.3670   -8.1830  223.2580 C.3   3001  9PP3001     0.1357
     14  C12      -40.0600   -9.3570  223.9560 C.3   3001  9PP3001     0.0339
     15  O13      -39.2820   -7.0650  224.2000 O.3   3001  9PP3001    -0.3467
     16  P        -38.3820   -4.7290  224.5810 P.3   3001  9PP3001     0.1470
     17  C14      -38.2090   -6.1120  223.8810 C.3   3001  9PP3001     0.2000
     18  O2P      -37.3310   -3.7990  224.1260 O.2   3001  9PP3001    -0.4576
     19  O3P      -39.7090   -4.0880  224.2380 O.3   3001  9PP3001    -0.3555
     20  O1P      -38.3250   -4.8750  226.0510 O.3   3001  9PP3001    -0.3555
@<TRIPOS>BOND
     1     6     5    1
     2     5     7    2
     3     5     4    1
     4     7     8    2
     5     3     4    2
     6     3     2    1
     7     4    11    1
     8     2     1    1
     9     8     9    1
    10     8    10    2
    11    11    10    2
    12    11     1    1
    13     1    12    1
    14    12    13    1
    15    13    14    1
    16    13    15    1
    17    17    15    1
    18    17    16    1
    19    18    16    2
    20    19    16    1
    21    16    20    1
