@<TRIPOS>MOLECULE
1lvc_DOT_A_1.pdb
 39 42 0 0 0
SMALL
GASTEIGER

@<TRIPOS>ATOM
      1  PG        31.4900   73.6950   44.6360 P.3   999  DOT999      0.5373
      2  O1G       30.8650   74.4300   43.5190 O.2   999  DOT999     -0.2221
      3  O2G       30.6500   73.8250   45.8280 O.3   999  DOT999     -0.1143
      4  O3G       32.9080   74.2550   44.9580 O.3   999  DOT999     -0.1143
      5  PB        32.8880   71.4180   43.1340 P.3   999  DOT999      0.2277
      6  O1B       32.2820   70.8570   41.9790 O.2   999  DOT999     -0.5168
      7  O2B       33.9960   72.5060   42.8730 O.3   999  DOT999     -0.4368
      8  O3B       31.6960   72.0060   44.1250 O.3   999  DOT999     -0.2258
      9  PA        34.6900   69.0860   43.9040 P.3   999  DOT999      0.2189
     10  O1A       35.9580   69.7210   43.1220 O.2   999  DOT999     -0.5170
     11  O2A       34.7020   68.3190   45.2400 O.3   999  DOT999     -0.4371
     12  O3A       33.5480   70.1900   44.1660 O.3   999  DOT999     -0.2700
     13  O5'       34.2560   68.0430   42.7200 O.3   999  DOT999     -0.3111
     14  C5B       33.0710   67.3710   42.9100 C.3   999  DOT999      0.1824
     15  C4B       33.0710   66.0490   42.0260 C.3   999  DOT999      0.1891
     16  O4'       34.1890   66.2630   41.0990 O.3   999  DOT999     -0.3144
     17  C3B       33.3750   64.6040   42.7150 C.3   999  DOT999      0.2054
     18  O3'       32.3010   63.5210   42.6580 O.3   999  DOT999     -0.4463
     19  C2B       34.6730   64.2950   42.2310 C.3   999  DOT999      0.1259
     20  C1B       35.0110   65.1610   41.0060 C.3   999  DOT999      0.2885
     21  N9        36.4470   65.6780   40.6600 N.pl3 999  DOT999     -0.1460
     22  C8        37.0190   66.9760   40.3430 C.3   999  DOT999      0.3377
     23  N7        38.4470   67.0110   40.0430 N.2   999  DOT999     -0.2095
     24  C5        38.7540   65.6690   40.1650 C.2   999  DOT999      0.2526
     25  C6        40.0020   64.9900   39.8100 C.2   999  DOT999      0.4393
     26  N6        40.6300   65.0810   38.6120 N.pl3 999  DOT999      0.2180
     27  N1        39.9890   63.5910   40.0940 N.2   999  DOT999      0.0021
     28  C2        38.7890   62.9680   40.5530 C.3   999  DOT999      0.5254
     29  N3        37.5320   63.4920   40.7800 N.2   999  DOT999     -0.0055
     30  C4        37.5740   64.8400   40.5570 C.2   999  DOT999      0.3518
     31  C'        31.4370   63.1880   43.7170 C.2   999  DOT999      0.3425
     32  O1'       32.0050   62.2440   44.3720 O.2   999  DOT999     -0.2448
     33  C1'       29.8920   63.0530   43.5740 C.ar  999  DOT999      0.0923
     34  C2'       29.3430   62.6370   45.1260 C.ar  999  DOT999      0.0953
     35  N2'       30.3690   61.7500   45.2580 N.pl3 999  DOT999     -0.1278
     36  C3'       28.1210   63.8750   45.1610 C.ar  999  DOT999      0.0183
     37  C4'       27.6840   64.9000   44.2320 C.ar  999  DOT999      0.0014
     38  C5'       28.3200   65.0110   42.8880 C.ar  999  DOT999      0.0003
     39  C6'       29.3880   64.0480   42.5740 C.ar  999  DOT999      0.0078
@<TRIPOS>BOND
     1    26    25    1
     2    25    27    2
     3    25    24    1
     4    23    24    2
     5    23    22    1
     6    27    28    1
     7    24    30    1
     8    22    21    1
     9    28    29    1
    10    30    21    1
    11    30    29    2
    12    21    20    1
    13    20    16    1
    14    20    19    1
    15    16    15    1
    16     6     5    2
    17    15    17    1
    18    15    14    1
    19    19    17    1
    20    39    38   ar
    21    39    33   ar
    22    18    17    1
    23    18    31    1
    24    13    14    1
    25    13     9    1
    26     7     5    1
    27    38    37   ar
    28    10     9    2
    29     5     8    1
    30     5    12    1
    31     2     1    2
    32    33    31    1
    33    33    34   ar
    34    31    32    2
    35     9    12    1
    36     9    11    1
    37     8     1    1
    38    37    36   ar
    39     1     4    1
    40     1     3    1
    41    34    36   ar
    42    34    35    1
