@<TRIPOS>MOLECULE
1lvg_5GP_A_1.pdb
 24 26 0 0 0
SMALL
GASTEIGER

@<TRIPOS>ATOM
      1  P         85.4460  -30.6950   50.9940 P.3   1202  5GP1202     0.5327
      2  O1P       86.2380  -31.6250   51.8040 O.3   1202  5GP1202    -0.1145
      3  O2P       84.3380  -31.3630   50.2460 O.2   1202  5GP1202    -0.2224
      4  O3P       84.9030  -29.5340   51.8470 O.3   1202  5GP1202    -0.1145
      5  O5'       86.3010  -29.9120   49.9430 O.3   1202  5GP1202    -0.2675
      6  C5'       87.5960  -29.4550   50.3070 C.3   1202  5GP1202     0.1859
      7  C4'       88.2620  -28.6190   49.2400 C.3   1202  5GP1202     0.1801
      8  O4'       88.8600  -29.4380   48.1410 O.3   1202  5GP1202    -0.3326
      9  C3'       87.4270  -27.5380   48.5180 C.3   1202  5GP1202     0.2158
     10  O3'       88.1460  -26.3160   48.2540 O.3   1202  5GP1202    -0.2175
     11  C2'       87.0310  -28.1830   47.2250 C.3   1202  5GP1202     0.2310
     12  O2'       86.7610  -27.2600   46.1870 O.3   1202  5GP1202    -0.2158
     13  C1'       88.2020  -29.0710   46.9230 C.3   1202  5GP1202     0.2293
     14  N9        87.9600  -30.1720   45.9620 N.pl3 1202  5GP1202    -0.2354
     15  C8        86.9380  -31.0850   45.8300 C.3   1202  5GP1202     0.2246
     16  N7        87.0570  -31.8960   44.8060 N.2   1202  5GP1202    -0.2322
     17  C5        88.2780  -31.4630   44.2180 C.2   1202  5GP1202     0.2182
     18  C6        88.9490  -31.9540   43.0300 C.1   1202  5GP1202     0.2372
     19  O6        88.6020  -32.8520   42.2630 O.2   1202  5GP1202    -0.2069
     20  N1        90.1540  -31.2450   42.7850 N.2   1202  5GP1202    -0.2485
     21  C2        90.6300  -30.2090   43.5720 C.1   1202  5GP1202     0.2531
     22  N2        91.7880  -29.6900   43.1340 N.pl3 1202  5GP1202    -0.0226
     23  N3        90.0080  -29.7320   44.6750 N.2   1202  5GP1202    -0.3074
     24  C4        88.8310  -30.4200   44.9320 C.2   1202  5GP1202     0.2300
@<TRIPOS>BOND
     1    19    18    2
     2    20    18    2
     3    20    21    2
     4    18    17    1
     5    22    21    1
     6    21    23    2
     7    17    16    2
     8    17    24    1
     9    23    24    2
    10    16    15    1
    11    24    14    1
    12    15    14    1
    13    14    13    1
    14    12    11    1
    15    13    11    1
    16    13     8    1
    17    11     9    1
    18     8     7    1
    19    10     9    1
    20     9     7    1
    21     7     6    1
    22     5     6    1
    23     5     1    1
    24     3     1    2
    25     1     2    1
    26     1     4    1
