@<TRIPOS>MOLECULE
1lvg_ADP_A_1.pdb
 27 29 0 0 0
SMALL
GASTEIGER

@<TRIPOS>ATOM
      1  PB        81.3240  -25.1040   50.7010 P.3   1201  ADP1201     0.5373
      2  O1B       81.9390  -23.9600   49.9550 O.3   1201  ADP1201    -0.1143
      3  O2B       80.7140  -26.1690   49.9200 O.2   1201  ADP1201    -0.2221
      4  O3B       82.3840  -25.7160   51.6800 O.3   1201  ADP1201    -0.1143
      5  PA        78.6790  -24.8130   51.9830 P.3   1201  ADP1201     0.2231
      6  O1A       78.6300  -26.1730   52.5020 O.3   1201  ADP1201    -0.4370
      7  O2A       77.9010  -24.5550   50.7420 O.2   1201  ADP1201    -0.5169
      8  O3A       80.2390  -24.3950   51.6600 O.3   1201  ADP1201    -0.2261
      9  O5'       78.3490  -23.7340   53.0580 O.3   1201  ADP1201    -0.3111
     10  C5'       78.9270  -23.7170   54.3680 C.3   1201  ADP1201     0.1813
     11  C4'       77.8150  -23.6220   55.4500 C.3   1201  ADP1201     0.1821
     12  O4'       77.2400  -22.3050   55.3640 O.3   1201  ADP1201    -0.3135
     13  C3'       76.6920  -24.6050   55.2780 C.3   1201  ADP1201     0.2184
     14  O3'       76.1630  -24.9960   56.5330 O.3   1201  ADP1201    -0.2174
     15  C2'       75.6390  -23.7760   54.5200 C.3   1201  ADP1201     0.2570
     16  O2'       74.3430  -24.1790   54.6990 O.3   1201  ADP1201    -0.2130
     17  C1'       75.8480  -22.3700   55.1220 C.3   1201  ADP1201     0.3186
     18  N9        75.5800  -21.2250   54.2080 N.pl3 1201  ADP1201    -0.1439
     19  C8        75.7240  -21.2090   52.8400 C.3   1201  ADP1201     0.3377
     20  N7        75.4380  -20.0320   52.3210 N.2   1201  ADP1201    -0.2095
     21  C5        75.0830  -19.2320   53.4230 C.2   1201  ADP1201     0.2526
     22  C6        74.6940  -17.8790   53.5290 C.2   1201  ADP1201     0.4393
     23  N6        74.5950  -17.0600   52.5310 N.pl3 1201  ADP1201     0.2180
     24  N1        74.4200  -17.4570   54.8080 N.2   1201  ADP1201     0.0021
     25  C2        74.5070  -18.2430   55.9120 C.3   1201  ADP1201     0.5254
     26  N3        74.8840  -19.5430   55.8700 N.2   1201  ADP1201    -0.0055
     27  C4        75.1470  -19.9380   54.6030 C.2   1201  ADP1201     0.3518
@<TRIPOS>BOND
     1     3     1    2
     2     2     1    1
     3     1     8    1
     4     1     4    1
     5     7     5    2
     6     8     5    1
     7     5     6    1
     8     5     9    1
     9    20    19    1
    10    20    21    2
    11    23    22    1
    12    19    18    1
    13     9    10    1
    14    21    22    1
    15    21    27    1
    16    22    24    2
    17    18    27    1
    18    18    17    1
    19    10    11    1
    20    15    16    1
    21    15    17    1
    22    15    13    1
    23    27    26    2
    24    24    25    1
    25    17    12    1
    26    13    11    1
    27    13    14    1
    28    12    11    1
    29    26    25    1
