@<TRIPOS>MOLECULE
1lvk_MNT_A_1.pdb
 36 39 0 0 0
SMALL
GASTEIGER

@<TRIPOS>ATOM
      1  PB        34.0850   56.6260   21.0180 P.3   999  MNT999      0.5373
      2  O1B       33.5590   55.2580   20.8990 O.3   999  MNT999     -0.1143
      3  O2B       33.6160   57.6380   19.9990 O.2   999  MNT999     -0.2221
      4  O3B       33.7260   57.1730   22.4520 O.3   999  MNT999     -0.1143
      5  PA        36.7460   57.3880   20.0620 P.3   999  MNT999      0.2231
      6  O1A       36.5340   56.9610   18.6510 O.2   999  MNT999     -0.5169
      7  O2A       36.7060   58.8380   20.3630 O.3   999  MNT999     -0.4370
      8  O3A       35.7650   56.6890   21.0430 O.3   999  MNT999     -0.2261
      9  O5'       38.1510   56.6920   20.4640 O.3   999  MNT999     -0.3111
     10  C5B       38.6690   56.9590   21.7900 C.3   999  MNT999      0.1824
     11  C4B       40.1590   57.2420   21.7110 C.3   999  MNT999      0.1891
     12  O4'       40.7710   56.0520   21.2790 O.3   999  MNT999     -0.3144
     13  C3B       40.6680   58.2700   20.7080 C.3   999  MNT999      0.2054
     14  O3'       41.0180   59.5740   21.1660 O.3   999  MNT999     -0.4463
     15  C2B       41.4030   57.6980   19.7760 C.3   999  MNT999      0.1259
     16  C1B       41.6930   56.2900   20.2150 C.3   999  MNT999      0.2885
     17  N9        41.2890   55.3020   19.1820 N.pl3 999  MNT999     -0.1460
     18  C8        40.0700   54.7480   18.8130 C.3   999  MNT999      0.3377
     19  N7        40.1170   53.8450   17.7520 N.2   999  MNT999     -0.2095
     20  C5        41.4800   53.8470   17.4870 C.2   999  MNT999      0.2526
     21  C6        42.1720   53.5110   16.2970 C.2   999  MNT999      0.4393
     22  N6        41.9450   52.4920   15.4880 N.pl3 999  MNT999      0.2180
     23  N1        43.5310   53.6300   16.3760 N.2   999  MNT999      0.0021
     24  C2        44.0770   54.3130   17.4540 C.3   999  MNT999      0.5254
     25  N3        43.4970   54.9920   18.4470 N.2   999  MNT999     -0.0055
     26  C4        42.1770   54.7090   18.3780 C.2   999  MNT999      0.3518
     27  C'        40.8750   60.7410   20.4100 C.2   999  MNT999      0.3424
     28  O1'       40.6850   60.5310   19.2320 O.2   999  MNT999     -0.2448
     29  C1'       41.7570   61.9450   20.7580 C.ar  999  MNT999      0.0904
     30  C2'       41.4440   62.9620   19.7610 C.ar  999  MNT999      0.0716
     31  N2'       41.3970   62.8200   18.4060 N.pl3 999  MNT999     -0.2355
     32  CM'       41.2170   63.9500   17.5320 C.3   999  MNT999      0.1355
     33  C3'       41.4940   64.3340   20.2080 C.ar  999  MNT999      0.0163
     34  C4'       41.8010   64.7250   21.5290 C.ar  999  MNT999      0.0013
     35  C5'       42.2080   63.7120   22.4660 C.ar  999  MNT999      0.0003
     36  C6'       42.2160   62.3430   22.0730 C.ar  999  MNT999      0.0077
@<TRIPOS>BOND
     1    22    21    1
     2    21    23    2
     3    21    20    1
     4    23    24    1
     5    24    25    1
     6    20    19    2
     7    20    26    1
     8    32    31    1
     9    19    18    1
    10    26    25    2
    11    26    17    1
    12    31    30    1
    13     6     5    2
    14    18    17    1
    15    17    16    1
    16    28    27    2
    17    30    33   ar
    18    30    29   ar
    19    15    16    1
    20    15    13    1
    21     3     1    2
    22     5     7    1
    23     5     9    1
    24     5     8    1
    25    33    34   ar
    26    16    12    1
    27    27    29    1
    28    27    14    1
    29     9    10    1
    30    13    14    1
    31    13    11    1
    32    29    36   ar
    33     2     1    1
    34     1     8    1
    35     1     4    1
    36    12    11    1
    37    34    35   ar
    38    11    10    1
    39    36    35   ar
