@<TRIPOS>MOLECULE
1lvl_NAD_A_1.pdb
 44 48 0 0 0
SMALL
GASTEIGER

@<TRIPOS>ATOM
      1  PA        -2.9500  -52.5490  -49.6770 P.3   460  NAD460      0.2189
      2  O1A       -4.0290  -53.5270  -49.9930 O.2   460  NAD460     -0.5170
      3  O2A       -3.3300  -51.4710  -48.7280 O.3   460  NAD460     -0.4371
      4  O5B       -1.6540  -53.4020  -49.2240 O.3   460  NAD460     -0.3112
      5  C5B       -0.6880  -53.1370  -48.1820 C.3   460  NAD460      0.1813
      6  C4B        0.0240  -54.4700  -47.9050 C.3   460  NAD460      0.1821
      7  O4B        1.0290  -54.4590  -46.8710 O.3   460  NAD460     -0.3135
      8  C3B       -0.9760  -55.5360  -47.4820 C.3   460  NAD460      0.2184
      9  O3B       -0.8070  -56.7280  -48.2510 O.3   460  NAD460     -0.2174
     10  C2B       -0.6970  -55.8230  -46.0240 C.3   460  NAD460      0.2570
     11  O2B       -1.1560  -57.1650  -45.7820 O.3   460  NAD460     -0.2130
     12  C1B        0.8070  -55.5890  -45.9920 C.3   460  NAD460      0.3186
     13  N9A        1.3730  -55.3710  -44.6240 N.pl3 460  NAD460     -0.1439
     14  C8A        0.8650  -54.5810  -43.6580 C.3   460  NAD460      0.3377
     15  N7A        1.7520  -54.3710  -42.6730 N.2   460  NAD460     -0.2095
     16  C5A        2.8080  -55.0670  -43.0540 C.2   460  NAD460      0.2526
     17  C6A        3.9600  -55.1670  -42.3030 C.2   460  NAD460      0.4393
     18  N6A        4.0650  -54.5560  -41.1340 N.pl3 460  NAD460      0.2180
     19  N1A        4.9250  -55.9500  -42.8000 N.2   460  NAD460      0.0021
     20  C2A        4.7270  -56.5820  -43.9540 C.3   460  NAD460      0.5254
     21  N3A        3.6100  -56.4950  -44.6710 N.2   460  NAD460     -0.0055
     22  C4A        2.6060  -55.7160  -44.2400 C.2   460  NAD460      0.3518
     23  O3        -2.3010  -51.9380  -51.0140 O.3   460  NAD460     -0.2703
     24  PN        -0.9200  -51.1910  -51.3930 P.3   460  NAD460      0.2189
     25  O1N        0.2390  -51.8350  -50.7380 O.3   460  NAD460     -0.4371
     26  O2N       -0.8160  -51.0880  -52.8710 O.2   460  NAD460     -0.5170
     27  O5D       -1.1370  -49.7260  -50.7400 O.3   460  NAD460     -0.3112
     28  C5D       -1.8470  -48.2190  -51.1630 C.3   460  NAD460      0.1813
     29  C4D       -2.9280  -48.5580  -52.1800 C.3   460  NAD460      0.1799
     30  O4D       -3.9290  -49.4530  -51.6660 O.3   460  NAD460     -0.3327
     31  C3D       -3.6770  -47.3340  -52.6790 C.3   460  NAD460      0.2158
     32  O3D       -3.0060  -46.5720  -53.6990 O.3   460  NAD460     -0.2175
     33  C2D       -4.9350  -47.9750  -53.2450 C.3   460  NAD460      0.2309
     34  O2D       -4.9090  -48.0490  -54.6760 O.3   460  NAD460     -0.2158
     35  C1D       -5.0690  -49.3350  -52.5540 C.3   460  NAD460      0.2263
     36  N1N       -6.3440  -49.3970  -51.7840 N.pl3 460  NAD460     -0.2787
     37  C2N       -6.3390  -49.0030  -50.4370 C.3   460  NAD460      0.1244
     38  C3N       -7.5300  -48.7680  -49.7510 C.2   460  NAD460      0.0544
     39  C7N       -7.4520  -48.4430  -48.2420 C.2   460  NAD460      0.2818
     40  O7N       -8.4680  -48.1740  -47.5910 O.2   460  NAD460     -0.2670
     41  N7N       -6.2230  -48.4260  -47.7100 N.am  460  NAD460     -0.0839
     42  C4N       -8.7560  -48.9300  -50.4180 C.2   460  NAD460      0.0033
     43  C5N       -8.7780  -49.3510  -51.7460 C.2   460  NAD460      0.0157
     44  C6N       -7.5830  -49.5920  -52.4270 C.2   460  NAD460      0.0633
@<TRIPOS>BOND
     1    34    33    1
     2    32    31    1
     3    33    31    1
     4    33    35    1
     5    26    24    2
     6    31    29    1
     7    35    36    1
     8    35    30    1
     9    44    36    1
    10    44    43    2
    11    29    30    1
    12    29    28    1
    13    36    37    1
    14    43    42    1
    15    24    23    1
    16    24    27    1
    17    24    25    1
    18    28    27    1
    19    23     1    1
    20    37    38    1
    21    42    38    2
    22     2     1    2
    23    38    39    1
    24     1     4    1
    25     1     3    1
    26     4     5    1
    27     9     8    1
    28    39    41   am
    29    39    40    2
    30     5     6    1
    31     6     8    1
    32     6     7    1
    33     8    10    1
    34     7    12    1
    35    10    12    1
    36    10    11    1
    37    12    13    1
    38    21    22    2
    39    21    20    1
    40    13    22    1
    41    13    14    1
    42    22    16    1
    43    20    19    1
    44    14    15    1
    45    16    15    2
    46    16    17    1
    47    19    17    2
    48    17    18    1
