@<TRIPOS>MOLECULE
1lvu_9PP_A_1.pdb
 20 21 0 0 0
SMALL
GASTEIGER

@<TRIPOS>ATOM
      1  N9        41.9590   61.6290  169.8140 N.pl3 6100  9PP6100    -0.2583
      2  C8        40.8240   61.2750  169.1000 C.3   6100  9PP6100     0.2221
      3  N7        40.6190   62.1460  168.1210 N.2   6100  9PP6100    -0.2402
      4  C5        41.6380   63.0850  168.1910 C.2   6100  9PP6100     0.1706
      5  C6        41.9380   64.2710  167.3770 C.2   6100  9PP6100     0.2537
      6  N6        41.2860   64.6940  166.3950 N.pl3 6100  9PP6100    -0.0904
      7  N1        43.1150   64.9640  167.8140 N.2   6100  9PP6100    -0.3056
      8  C2        43.9180   64.5650  168.9100 C.1   6100  9PP6100     0.2441
      9  N2        45.0170   65.3060  169.2260 N.pl3 6100  9PP6100    -0.0232
     10  N3        43.6340   63.4590  169.6650 N.2   6100  9PP6100    -0.3087
     11  C4        42.4900   62.7730  169.2530 C.2   6100  9PP6100     0.2199
     12  C10       42.5020   60.9680  170.8980 C.3   6100  9PP6100     0.1245
     13  C11       41.5010   60.6560  172.0270 C.3   6100  9PP6100     0.1357
     14  C12       41.1270   61.9480  172.7460 C.3   6100  9PP6100     0.0339
     15  O13       42.1240   59.7420  172.9700 O.3   6100  9PP6100    -0.3467
     16  P         42.7310   57.3840  173.3300 P.3   6100  9PP6100     0.1470
     17  C14       41.7990   58.3710  172.6320 C.3   6100  9PP6100     0.2000
     18  O2P       42.3210   55.9870  172.9760 O.3   6100  9PP6100    -0.3555
     19  O3P       44.1440   57.6140  172.8910 O.2   6100  9PP6100    -0.4576
     20  O1P       42.6390   57.5620  174.8100 O.3   6100  9PP6100    -0.3555
@<TRIPOS>BOND
     1     6     5    1
     2     5     7    2
     3     5     4    1
     4     7     8    2
     5     3     4    2
     6     3     2    1
     7     4    11    1
     8     8     9    1
     9     8    10    2
    10     2     1    1
    11    11    10    2
    12    11     1    1
    13     1    12    1
    14    12    13    1
    15    13    14    1
    16    13    15    1
    17    17    15    1
    18    17    16    1
    19    19    16    2
    20    18    16    1
    21    16    20    1
