@<TRIPOS>MOLECULE
1lvw_TYD_A_1.pdb
 25 26 0 0 0
SMALL
GASTEIGER

@<TRIPOS>ATOM
      1  PA        -9.2340    9.0330   64.0710 P.3   3001  TYD3001     0.2231
      2  O1A       -9.7920   10.4080   64.2410 O.3   3001  TYD3001    -0.4370
      3  O2A      -10.0860    7.8670   64.1490 O.2   3001  TYD3001    -0.5169
      4  O3A       -8.1580    8.7490   65.1400 O.3   3001  TYD3001    -0.2261
      5  PB        -6.5760    9.0490   65.2190 P.3   3001  TYD3001     0.5373
      6  O1B       -6.4590   10.4400   64.9130 O.3   3001  TYD3001    -0.1143
      7  O2B       -5.8220    8.1990   64.3000 O.2   3001  TYD3001    -0.2221
      8  O3B       -6.1010    8.7570   66.7560 O.3   3001  TYD3001    -0.1143
      9  O5'       -8.4790    8.9730   62.7060 O.3   3001  TYD3001    -0.3111
     10  C5'       -7.8570    7.8070   62.0460 C.3   3001  TYD3001     0.1812
     11  C4'       -7.4130    8.0010   60.6120 C.3   3001  TYD3001     0.1773
     12  O4'       -8.5470    7.9040   59.7220 O.3   3001  TYD3001    -0.3339
     13  C3'       -6.7580    9.3320   60.2600 C.3   3001  TYD3001     0.1857
     14  O3'       -5.8060    9.1500   59.1740 O.3   3001  TYD3001    -0.2203
     15  C2'       -7.9540   10.1880   59.7790 C.3   3001  TYD3001     0.0874
     16  C1'       -8.7770    9.1310   59.0590 C.3   3001  TYD3001     0.2090
     17  N1       -10.2710    9.3460   59.0420 N.am  3001  TYD3001    -0.1794
     18  C2       -10.8340    9.7500   57.8450 C.1   3001  TYD3001     0.2844
     19  O2       -10.1990    9.9530   56.8360 O.2   3001  TYD3001    -0.1918
     20  N3       -12.1940    9.8900   57.8920 N.2   3001  TYD3001    -0.2455
     21  C4       -13.0370    9.6790   58.9890 C.1   3001  TYD3001     0.2134
     22  O4       -14.2290    9.8420   58.8580 O.2   3001  TYD3001    -0.2088
     23  C5       -12.3950    9.2720   60.2230 C.2   3001  TYD3001     0.0891
     24  C5M      -13.2100    9.0300   61.4560 C.3   3001  TYD3001     0.0462
     25  C6       -11.0660    9.1230   60.1900 C.2   3001  TYD3001     0.0877
@<TRIPOS>BOND
     1    19    18    2
     2    18    20    2
     3    18    17   am
     4    20    21    2
     5    22    21    2
     6    21    23    1
     7    17    16    1
     8    17    25    1
     9    16    12    1
    10    16    15    1
    11    14    13    1
    12    12    11    1
    13    15    13    1
    14    25    23    2
    15    23    24    1
    16    13    11    1
    17    11    10    1
    18    10     9    1
    19     9     1    1
    20     1     3    2
    21     1     2    1
    22     1     4    1
    23     7     5    2
    24     6     5    1
    25     4     5    1
    26     5     8    1
