@<TRIPOS>MOLECULE
1lw0_NVP_A_1.pdb
 20 23 0 0 0
SMALL
GASTEIGER

@<TRIPOS>ATOM
      1  N1         1.6820  -37.4830   21.0710 N.pl3 999  NVP999     -0.1562
      2  CA         2.2870  -38.6750   20.4690 C.3   999  NVP999      0.1667
      3  CB         2.6860  -39.7610   21.4070 C.3   999  NVP999      0.0512
      4  CC         1.4840  -39.9220   20.5400 C.3   999  NVP999      0.0512
      5  N3         3.8790  -36.6240   21.3930 N.2   999  NVP999     -0.0337
      6  C4         4.7630  -35.9390   22.1720 C.2   999  NVP999      0.2316
      7  C5         4.3720  -35.2770   23.3540 C.2   999  NVP999      0.0313
      8  C6         3.0330  -35.3160   23.7320 C.3   999  NVP999      0.0868
      9  CD         2.5910  -34.6350   25.0000 C.3   999  NVP999      0.0126
     10  C2         2.5820  -36.6640   21.7780 C.2   999  NVP999      0.3559
     11  C7         2.1150  -36.0040   22.9270 C.2   999  NVP999      0.2076
     12  N8         0.7130  -35.9310   23.2150 N.2   999  NVP999     -0.3293
     13  C9        -0.3690  -35.9140   22.4270 C.1   999  NVP999      0.2096
     14  OE        -1.4960  -35.7590   22.9130 O.2   999  NVP999     -0.2091
     15  C10       -0.2280  -35.9970   20.8910 C.ar  999  NVP999      0.1506
     16  C15        0.7670  -36.8050   20.2640 C.ar  999  NVP999      0.2365
     17  C11       -1.1600  -35.3410   20.0800 C.ar  999  NVP999      0.0194
     18  C12       -1.0900  -35.5030   18.6760 C.ar  999  NVP999      0.0217
     19  C13       -0.0640  -36.3310   18.1320 C.ar  999  NVP999      0.1025
     20  N14        0.8460  -36.9660   18.9200 N.ar  999  NVP999     -0.2068
@<TRIPOS>BOND
     1    19    18   ar
     2    19    20   ar
     3    18    17   ar
     4    20    16   ar
     5    17    15   ar
     6    16    15   ar
     7    16     1    1
     8     2     4    1
     9     2     1    1
    10     2     3    1
    11     4     3    1
    12    15    13    1
    13     1    10    1
    14     5    10    2
    15     5     6    1
    16    10    11    1
    17     6     7    2
    18    13    14    2
    19    13    12    2
    20    11    12    2
    21    11     8    1
    22     7     8    1
    23     8     9    1
