@<TRIPOS>MOLECULE
1lw2_U05_A_1.pdb
 22 24 0 0 0
SMALL
GASTEIGER

@<TRIPOS>ATOM
      1  N1         1.0370  -37.9790   19.2490 N.ar  999  U05999     -0.2287
      2  C2         0.0920  -37.4520   18.4180 C.ar  999  U05999      0.1003
      3  C3        -0.9550  -36.6470   18.8990 C.ar  999  U05999      0.0209
      4  C4        -1.0060  -36.3610   20.2890 C.ar  999  U05999      0.0089
      5  C4A       -0.0340  -36.9050   21.1510 C.ar  999  U05999      0.0858
      6  C5        -0.1720  -36.6870   22.6740 C.2   999  U05999      0.2555
      7  O13       -1.3250  -36.7120   23.1310 O.2   999  U05999     -0.2695
      8  N6         0.8870  -36.5300   23.5120 N.am  999  U05999     -0.2521
      9  C12        0.5840  -36.3200   25.0100 C.3   999  U05999      0.1204
     10  C6A        2.3150  -36.5270   23.1960 C.ar  999  U05999      0.0679
     11  C7         3.2040  -35.6920   23.9330 C.ar  999  U05999      0.0179
     12  C8         4.5870  -35.6470   23.6160 C.ar  999  U05999      0.0254
     13  C9         5.0890  -36.4200   22.5490 C.ar  999  U05999      0.1442
     14  N          6.5370  -36.4070   22.2190 N.pl3 999  U05999      0.0577
     15  O1         6.9130  -37.1040   21.2820 O.2   999  U05999     -0.1261
     16  O2         7.2640  -35.7110   22.8990 O.2   999  U05999     -0.1261
     17  C10        4.2160  -37.2530   21.8260 C.ar  999  U05999      0.0402
     18  C11        2.8400  -37.3140   22.1390 C.ar  999  U05999      0.0682
     19  N11        1.9620  -38.2810   21.5010 N.pl3 999  U05999     -0.2712
     20  C14        2.5920  -39.6830   21.1780 C.3   999  U05999      0.0970
     21  C15        2.0270  -40.6050   20.0980 C.3   999  U05999      0.0236
     22  C1A        0.9900  -37.7090   20.5880 C.ar  999  U05999      0.1398
@<TRIPOS>BOND
     1     2     3   ar
     2     2     1   ar
     3     3     4   ar
     4     1    22   ar
     5    21    20    1
     6     4     5   ar
     7    22     5   ar
     8    22    19    1
     9     5     6    1
    10    20    19    1
    11    15    14    2
    12    19    18    1
    13    17    18   ar
    14    17    13   ar
    15    18    10   ar
    16    14    13    1
    17    14    16    2
    18    13    12   ar
    19     6     7    2
    20     6     8   am
    21    10     8    1
    22    10    11   ar
    23     8     9    1
    24    12    11   ar
