@<TRIPOS>MOLECULE
1lw4_TLP_B_1.pdb
 23 23 0 0 0
SMALL
GASTEIGER

@<TRIPOS>ATOM
      1  N1        78.4820   54.9270   23.6200 N.3   1050  TLP1050    -0.2013
      2  C1        79.1010   53.6210   23.8000 C.3   1050  TLP1050     0.2065
      3  C2        78.2160   52.5320   23.1760 C.3   1050  TLP1050     0.1789
      4  O1        76.8870   52.6460   23.7050 O.3   1050  TLP1050    -0.2210
      5  C3        78.1670   52.6900   21.6590 C.3   1050  TLP1050     0.0376
      6  C4        80.5110   53.5150   23.2200 C.2   1050  TLP1050     0.3828
      7  O2        80.8300   54.2850   22.2890 O.co2 1050  TLP1050    -0.2440
      8  O3        81.2710   52.6400   23.6900 O.co2 1050  TLP1050    -0.2440
      9  N2        76.2880   59.4390   22.9080 N.ar  1050  TLP1050    -0.2452
     10  C5        77.4230   58.9660   22.2080 C.ar  1050  TLP1050     0.0978
     11  C6        77.7840   59.7580   20.9620 C.3   1050  TLP1050     0.0555
     12  C7        78.1070   57.7630   22.7880 C.ar  1050  TLP1050     0.2062
     13  O4        79.1700   57.3610   22.0840 O.3   1050  TLP1050    -0.2856
     14  C8        77.6100   57.1460   23.9850 C.ar  1050  TLP1050     0.0353
     15  C9        78.3270   55.9500   24.5140 C.3   1050  TLP1050     0.1186
     16  C10       76.3400   57.7740   24.6530 C.ar  1050  TLP1050     0.0275
     17  C11       75.7350   58.8950   24.0830 C.ar  1050  TLP1050     0.0965
     18  C12       75.7620   57.1300   25.9420 C.3   1050  TLP1050     0.1816
     19  O5        76.5490   57.3800   27.0590 O.3   1050  TLP1050    -0.2653
     20  P1        76.6890   56.2520   28.2390 P.3   1050  TLP1050     0.5329
     21  O6        77.5350   56.9060   29.3550 O.3   1050  TLP1050    -0.1145
     22  O7        77.3880   55.1130   27.6480 O.2   1050  TLP1050    -0.2224
     23  O8        75.2930   55.9800   28.6120 O.3   1050  TLP1050    -0.1145
@<TRIPOS>BOND
     1    11    10    1
     2     5     3    1
     3    13    12    1
     4    10    12   ar
     5    10     9   ar
     6     7     6   ar
     7    12    14   ar
     8     9    17   ar
     9     3     4    1
    10     3     2    1
    11     6     8   ar
    12     6     2    1
    13     1     2    1
    14     1    15    1
    15    14    15    1
    16    14    16   ar
    17    17    16   ar
    18    16    18    1
    19    18    19    1
    20    19    20    1
    21    22    20    2
    22    20    23    1
    23    20    21    1
