@<TRIPOS>MOLECULE
1lw4_PLP_B_1.pdb
 15 15 0 0 0
SMALL
GASTEIGER

@<TRIPOS>ATOM
      1  N1        76.2230   59.4780   22.6830 N.ar  1053  PLP1053    -0.2452
      2  C2        77.4130   59.0450   22.0640 C.ar  1053  PLP1053     0.0978
      3  C2A       77.6870   59.6290   20.6930 C.3   1053  PLP1053     0.0555
      4  C3        78.2380   58.0820   22.8350 C.ar  1053  PLP1053     0.2049
      5  O3        79.3510   57.7080   22.1980 O.3   1053  PLP1053    -0.2857
      6  C4        77.8320   57.6350   24.1280 C.ar  1053  PLP1053     0.0182
      7  C4A       78.7480   56.7000   24.7880 C.3   1053  PLP1053     0.0342
      8  C5        76.4810   58.1850   24.7110 C.ar  1053  PLP1053     0.0261
      9  C6        75.7400   59.0890   23.9480 C.ar  1053  PLP1053     0.0965
     10  C5A       75.9500   57.7420   26.1150 C.3   1053  PLP1053     0.1815
     11  O4P       76.9390   57.4030   27.0430 O.3   1053  PLP1053    -0.2653
     12  P         76.6160   56.3140   28.2400 P.3   1053  PLP1053     0.5329
     13  O1P       75.1540   56.3700   28.3930 O.3   1053  PLP1053    -0.1145
     14  O2P       77.3900   56.7870   29.4890 O.3   1053  PLP1053    -0.1145
     15  O3P       77.1140   55.0230   27.7730 O.2   1053  PLP1053    -0.2224
@<TRIPOS>BOND
     1     3     2    1
     2     2     1   ar
     3     2     4   ar
     4     5     4    1
     5     1     9   ar
     6     4     6   ar
     7     9     8   ar
     8     6     8   ar
     9     6     7    1
    10     8    10    1
    11    10    11    1
    12    11    12    1
    13    15    12    2
    14    12    13    1
    15    12    14    1
