@<TRIPOS>MOLECULE
1lw5_PLG_B_1.pdb
 20 20 0 0 0
SMALL
GASTEIGER

@<TRIPOS>ATOM
      1  N1        76.4220   59.5170   22.9610 N.ar  1000  PLG1000    -0.2452
      2  C2        77.5280   58.9980   22.2520 C.ar  1000  PLG1000     0.0981
      3  C2A       77.8760   59.7400   20.9750 C.3   1000  PLG1000     0.0555
      4  C3        78.2020   57.7970   22.8540 C.ar  1000  PLG1000     0.2103
      5  O3        79.2390   57.3550   22.1350 O.3   1000  PLG1000    -0.2853
      6  C4        77.7200   57.2260   24.0860 C.ar  1000  PLG1000     0.0587
      7  C4A       78.4290   56.0260   24.6420 C.2   1000  PLG1000     0.0968
      8  C5        76.4800   57.9080   24.7590 C.ar  1000  PLG1000     0.0316
      9  C6        75.8870   59.0230   24.1660 C.ar  1000  PLG1000     0.0968
     10  C5A       75.9170   57.3280   26.0780 C.3   1000  PLG1000     0.1819
     11  OP4       76.7870   57.5120   27.1540 O.3   1000  PLG1000    -0.2653
     12  P         76.8080   56.4260   28.3740 P.3   1000  PLG1000     0.5329
     13  OP1       75.3840   56.2730   28.7090 O.3   1000  PLG1000    -0.1145
     14  OP2       77.6530   57.0470   29.4990 O.3   1000  PLG1000    -0.1145
     15  OP3       77.4370   55.2130   27.8420 O.2   1000  PLG1000    -0.2224
     16  C         80.8550   53.7130   23.0080 C.2   1000  PLG1000     0.3892
     17  O         81.7740   52.9160   23.2880 O.co2 1000  PLG1000    -0.2434
     18  OXT       80.8050   54.3630   21.9460 O.co2 1000  PLG1000    -0.2434
     19  CA        79.7310   53.8880   24.0030 C.3   1000  PLG1000     0.2389
     20  N         78.9750   55.1530   23.7310 N.2   1000  PLG1000    -0.2568
@<TRIPOS>BOND
     1     3     2    1
     2    18    16   ar
     3     5     4    1
     4     2     4   ar
     5     2     1   ar
     6     4     6   ar
     7     1     9   ar
     8    16    17   ar
     9    16    19    1
    10    20    19    1
    11    20     7    2
    12     6     7    1
    13     6     8   ar
    14     9     8   ar
    15     8    10    1
    16    10    11    1
    17    11    12    1
    18    15    12    2
    19    12    13    1
    20    12    14    1
