@<TRIPOS>MOLECULE
1lw5_PLP_B_1.pdb
 15 15 0 0 0
SMALL
GASTEIGER

@<TRIPOS>ATOM
      1  N1        76.0480   59.3790   22.8300 N.ar  1003  PLP1003    -0.2452
      2  C2        77.2860   59.0640   22.2340 C.ar  1003  PLP1003     0.0978
      3  C2A       77.5330   59.6680   20.8690 C.3   1003  PLP1003     0.0555
      4  C3        78.1900   58.1850   23.0190 C.ar  1003  PLP1003     0.2049
      5  O3        79.3520   57.9270   22.3940 O.3   1003  PLP1003    -0.2857
      6  C4        77.8070   57.6980   24.3010 C.ar  1003  PLP1003     0.0182
      7  C4A       78.7980   56.8590   24.9800 C.3   1003  PLP1003     0.0342
      8  C5        76.3940   58.1100   24.8540 C.ar  1003  PLP1003     0.0261
      9  C6        75.5750   58.9380   24.0880 C.ar  1003  PLP1003     0.0965
     10  C5A       75.8950   57.6080   26.2290 C.3   1003  PLP1003     0.1815
     11  O4P       76.8910   57.5640   27.2120 O.3   1003  PLP1003    -0.2653
     12  P         76.8310   56.4300   28.3940 P.3   1003  PLP1003     0.5329
     13  O1P       75.3870   56.2990   28.6840 O.3   1003  PLP1003    -0.1145
     14  O2P       77.6580   57.0010   29.5520 O.3   1003  PLP1003    -0.1145
     15  O3P       77.4430   55.2200   27.8400 O.2   1003  PLP1003    -0.2224
@<TRIPOS>BOND
     1     3     2    1
     2     2     1   ar
     3     2     4   ar
     4     5     4    1
     5     1     9   ar
     6     4     6   ar
     7     9     8   ar
     8     6     8   ar
     9     6     7    1
    10     8    10    1
    11    10    11    1
    12    11    12    1
    13    15    12    2
    14    12    13    1
    15    12    14    1
