@<TRIPOS>MOLECULE
1lw7_NAD_A_1.pdb
 44 48 0 0 0
SMALL
GASTEIGER

@<TRIPOS>ATOM
      1  PA        72.8620   14.9790   48.0650 P.3   601  NAD601      0.2189
      2  O1A       73.2400   16.3930   47.8490 O.3   601  NAD601     -0.4371
      3  O2A       71.4140   14.7410   47.8220 O.2   601  NAD601     -0.5170
      4  O5B       73.0980   14.5540   49.6010 O.3   601  NAD601     -0.3112
      5  C5B       74.2050   15.0280   50.4220 C.3   601  NAD601      0.1813
      6  C4B       73.9830   14.3580   51.7850 C.3   601  NAD601      0.1821
      7  O4B       72.9370   15.0110   52.5880 O.3   601  NAD601     -0.3135
      8  C3B       73.5820   12.8960   51.7170 C.3   601  NAD601      0.2184
      9  O3B       74.5460   12.0820   52.4440 O.3   601  NAD601     -0.2174
     10  C2B       72.1350   12.9330   52.2770 C.3   601  NAD601      0.2570
     11  O2B       71.7760   11.7240   52.9400 O.3   601  NAD601     -0.2130
     12  C1B       72.1290   14.1130   53.2470 C.3   601  NAD601      0.3186
     13  N9A       70.8350   14.7410   53.3190 N.pl3 601  NAD601     -0.1439
     14  C8A       70.1290   15.2540   52.2610 C.3   601  NAD601      0.3377
     15  N7A       68.9570   15.7980   52.5990 N.2   601  NAD601     -0.2095
     16  C5A       68.9240   15.6130   53.9710 C.2   601  NAD601      0.2526
     17  C6A       67.9410   15.9820   54.9450 C.2   601  NAD601      0.4393
     18  N6A       66.8020   16.6270   54.6490 N.pl3 601  NAD601      0.2180
     19  N1A       68.1970   15.6520   56.2740 N.2   601  NAD601      0.0021
     20  C2A       69.3840   14.9920   56.5650 C.3   601  NAD601      0.5254
     21  N3A       70.3520   14.6220   55.7090 N.2   601  NAD601     -0.0055
     22  C4A       70.0720   14.9560   54.4350 C.2   601  NAD601      0.3518
     23  O3        73.8020   14.0760   47.1180 O.3   601  NAD601     -0.2703
     24  PN        74.4000   12.5880   47.4090 P.3   601  NAD601      0.2189
     25  O1N       73.4610   11.4690   47.1520 O.2   601  NAD601     -0.5170
     26  O2N       74.9400   12.5510   48.8050 O.3   601  NAD601     -0.4371
     27  O5D       75.5230   12.5670   46.2750 O.3   601  NAD601     -0.3112
     28  C5D       76.7700   11.8340   46.4870 C.3   601  NAD601      0.1813
     29  C4D       77.5840   12.0160   45.2320 C.3   601  NAD601      0.1799
     30  O4D       78.4540   10.8670   45.0810 O.3   601  NAD601     -0.3327
     31  C3D       76.7740   12.1010   43.9290 C.3   601  NAD601      0.2158
     32  O3D       77.4370   12.9780   42.9920 O.3   601  NAD601     -0.2175
     33  C2D       76.7980   10.6690   43.4370 C.3   601  NAD601      0.2309
     34  O2D       76.4720   10.5330   42.0280 O.3   601  NAD601     -0.2158
     35  C1D       78.2150   10.2680   43.7900 C.3   601  NAD601      0.2263
     36  N1N       78.3730    8.8050   43.8300 N.pl3 601  NAD601     -0.2787
     37  C2N       78.4440    8.0720   42.6160 C.3   601  NAD601      0.1244
     38  C3N       78.5980    6.6140   42.6020 C.2   601  NAD601      0.0544
     39  C7N       78.6560    5.9370   41.2650 C.2   601  NAD601      0.2818
     40  O7N       78.7830    4.7060   41.3560 O.2   601  NAD601     -0.2670
     41  N7N       78.5770    6.5760   40.0560 N.am  601  NAD601     -0.0839
     42  C4N       78.6840    5.9050   43.8960 C.2   601  NAD601      0.0033
     43  C5N       78.5990    6.7570   45.1520 C.2   601  NAD601      0.0157
     44  C6N       78.4570    8.0730   45.0700 C.2   601  NAD601      0.0633
@<TRIPOS>BOND
     1    41    39   am
     2    39    40    2
     3    39    38    1
     4    34    33    1
     5    38    37    1
     6    38    42    2
     7    37    36    1
     8    32    31    1
     9    33    35    1
    10    33    31    1
    11    35    36    1
    12    35    30    1
    13    36    44    1
    14    42    43    1
    15    31    29    1
    16    44    43    2
    17    30    29    1
    18    29    28    1
    19    27    28    1
    20    27    24    1
    21    23    24    1
    22    23     1    1
    23    25    24    2
    24    24    26    1
    25     3     1    2
    26     2     1    1
    27     1     4    1
    28     4     5    1
    29     5     6    1
    30     8     6    1
    31     8    10    1
    32     8     9    1
    33     6     7    1
    34    14    15    1
    35    14    13    1
    36    10    11    1
    37    10    12    1
    38     7    12    1
    39    15    16    2
    40    12    13    1
    41    13    22    1
    42    16    22    1
    43    16    17    1
    44    22    21    2
    45    18    17    1
    46    17    19    2
    47    21    20    1
    48    19    20    1
