@<TRIPOS>MOLECULE
1lwc_NVP_A_1.pdb
 20 23 0 0 0
SMALL
GASTEIGER

@<TRIPOS>ATOM
      1  N1         2.0010  -37.6360   20.9490 N.pl3 999  NVP999     -0.1562
      2  CA         2.6330  -38.8350   20.3520 C.3   999  NVP999      0.1667
      3  CB         3.1160  -39.8640   21.3140 C.3   999  NVP999      0.0512
      4  CC         1.8970  -40.1160   20.4990 C.3   999  NVP999      0.0512
      5  N3         4.2110  -36.7760   21.3030 N.2   999  NVP999     -0.0337
      6  C4         5.0780  -36.0800   22.0860 C.2   999  NVP999      0.2316
      7  C5         4.6470  -35.3790   23.2500 C.2   999  NVP999      0.0313
      8  C6         3.2940  -35.3980   23.5900 C.3   999  NVP999      0.0868
      9  CD         2.8180  -34.6920   24.8320 C.3   999  NVP999      0.0126
     10  C2         2.8920  -36.7940   21.6540 C.2   999  NVP999      0.3559
     11  C7         2.3920  -36.1050   22.7750 C.2   999  NVP999      0.2076
     12  N8         0.9820  -36.0650   23.0550 N.2   999  NVP999     -0.3293
     13  C9        -0.1160  -36.1190   22.2900 C.1   999  NVP999      0.2096
     14  OE        -1.2410  -36.0180   22.8000 O.2   999  NVP999     -0.2091
     15  C10       -0.0090  -36.2490   20.7640 C.ar  999  NVP999      0.1506
     16  C15        1.0390  -36.9710   20.1330 C.ar  999  NVP999      0.2365
     17  C11       -1.0060  -35.6980   19.9630 C.ar  999  NVP999      0.0194
     18  C12       -0.9450  -35.8600   18.5770 C.ar  999  NVP999      0.0217
     19  C13        0.1370  -36.5820   18.0190 C.ar  999  NVP999      0.1025
     20  N14        1.1120  -37.1250   18.7860 N.ar  999  NVP999     -0.2068
@<TRIPOS>BOND
     1    19    18   ar
     2    19    20   ar
     3    18    17   ar
     4    20    16   ar
     5    17    15   ar
     6    16    15   ar
     7    16     1    1
     8     2     4    1
     9     2     1    1
    10     2     3    1
    11     4     3    1
    12    15    13    1
    13     1    10    1
    14     5    10    2
    15     5     6    1
    16    10    11    1
    17     6     7    2
    18    13    14    2
    19    13    12    2
    20    11    12    2
    21    11     8    1
    22     7     8    1
    23     8     9    1
