@<TRIPOS>MOLECULE
1lwd_ICT_A_1.pdb
 13 12 0 0 0
SMALL
GASTEIGER

@<TRIPOS>ATOM
      1  C1        36.3100    6.8850   37.5020 C.2   701  ICT701      0.3952
      2  O1        37.1720    5.8950   37.4230 O.co2 701  ICT701     -0.2428
      3  O2        35.7980    7.2580   38.5200 O.co2 701  ICT701     -0.2428
      4  C2        36.0260    7.5010   36.1030 C.3   701  ICT701      0.2651
      5  O7        35.2650    8.6790   36.3230 O.3   701  ICT701     -0.2103
      6  C3        35.3670    6.5540   35.0950 C.3   701  ICT701      0.1561
      7  C4        35.2790    7.2080   33.7020 C.3   701  ICT701      0.1285
      8  C5        35.1730    6.2050   32.5680 C.2   701  ICT701      0.3655
      9  O3        34.4240    6.6560   31.5940 O.co2 701  ICT701     -0.2456
     10  O4        35.6870    5.1530   32.5450 O.co2 701  ICT701     -0.2456
     11  C6        34.0310    5.9870   35.6020 C.2   701  ICT701      0.3680
     12  O5        32.9550    6.4850   35.1430 O.co2 701  ICT701     -0.2455
     13  O6        34.0520    5.0620   36.4530 O.co2 701  ICT701     -0.2455
@<TRIPOS>BOND
     1     9     8   ar
     2    10     8   ar
     3     8     7    1
     4     7     6    1
     5     6    11    1
     6     6     4    1
     7    12    11   ar
     8    11    13   ar
     9     4     5    1
    10     4     1    1
    11     2     1   ar
    12     1     3   ar
