@<TRIPOS>MOLECULE
1lwe_NVP_A_1.pdb
 20 23 0 0 0
SMALL
GASTEIGER

@<TRIPOS>ATOM
      1  N1        -0.3520  -35.8220   24.2760 N.pl3 999  NVP999     -0.1562
      2  CA         0.3280  -37.0200   23.8120 C.3   999  NVP999      0.1667
      3  CB         0.4870  -38.0910   24.8260 C.3   999  NVP999      0.0512
      4  CC        -0.4860  -38.2520   23.7080 C.3   999  NVP999      0.0512
      5  N3         1.8260  -34.8950   24.6820 N.2   999  NVP999     -0.0337
      6  C4         2.6270  -34.0540   25.3920 C.2   999  NVP999      0.2316
      7  C5         2.1220  -33.2080   26.4050 C.2   999  NVP999      0.0313
      8  C6         0.7610  -33.2320   26.6810 C.3   999  NVP999      0.0868
      9  CD         0.1960  -32.3050   27.7200 C.3   999  NVP999      0.0126
     10  C2         0.4970  -34.9200   24.9680 C.2   999  NVP999      0.3559
     11  C7        -0.0780  -34.0940   25.9500 C.2   999  NVP999      0.2076
     12  N8        -1.5020  -34.0680   26.1600 N.2   999  NVP999     -0.3293
     13  C9        -2.5480  -34.2030   25.3260 C.1   999  NVP999      0.2096
     14  OE        -3.6950  -34.0180   25.7330 O.2   999  NVP999     -0.2091
     15  C10       -2.3340  -34.4400   23.8150 C.ar  999  NVP999      0.1506
     16  C15       -1.2300  -35.2060   23.3250 C.ar  999  NVP999      0.2365
     17  C11       -3.2380  -33.8700   22.8900 C.ar  999  NVP999      0.0194
     18  C12       -3.0080  -34.0570   21.5080 C.ar  999  NVP999      0.0217
     19  C13       -1.8740  -34.8200   21.1050 C.ar  999  NVP999      0.1025
     20  N14       -1.0030  -35.3800   22.0010 N.ar  999  NVP999     -0.2068
@<TRIPOS>BOND
     1    19    18   ar
     2    19    20   ar
     3    18    17   ar
     4    20    16   ar
     5    17    15   ar
     6    16    15   ar
     7    16     1    1
     8     4     2    1
     9     4     3    1
    10     2     1    1
    11     2     3    1
    12    15    13    1
    13     1    10    1
    14     5    10    2
    15     5     6    1
    16    10    11    1
    17    13    14    2
    18    13    12    2
    19     6     7    2
    20    11    12    2
    21    11     8    1
    22     7     8    1
    23     8     9    1
