@<TRIPOS>MOLECULE
1lwf_NVP_A_1.pdb
 20 23 0 0 0
SMALL
GASTEIGER

@<TRIPOS>ATOM
      1  N1        -0.2510  -35.2920   24.1300 N.pl3 999  NVP999     -0.1562
      2  CA         0.3270  -36.5610   23.6430 C.3   999  NVP999      0.1667
      3  CB         0.7450  -37.5350   24.6810 C.3   999  NVP999      0.0512
      4  CC        -0.4730  -37.7860   23.8680 C.3   999  NVP999      0.0512
      5  N3         1.9680  -34.5270   24.4010 N.2   999  NVP999     -0.0337
      6  C4         2.8610  -33.7640   25.0810 C.2   999  NVP999      0.2316
      7  C5         2.4730  -32.8910   26.1110 C.2   999  NVP999      0.0313
      8  C6         1.1290  -32.8000   26.4370 C.3   999  NVP999      0.0868
      9  CD         0.6780  -31.8720   27.5250 C.3   999  NVP999      0.0126
     10  C2         0.6660  -34.4350   24.7350 C.2   999  NVP999      0.3559
     11  C7         0.2030  -33.5730   25.7400 C.2   999  NVP999      0.2076
     12  N8        -1.1990  -33.4600   26.0460 N.2   999  NVP999     -0.3293
     13  C9        -2.3080  -33.5370   25.2970 C.1   999  NVP999      0.2096
     14  OE        -3.4160  -33.3480   25.7880 O.2   999  NVP999     -0.2091
     15  C10       -2.2180  -33.7970   23.8040 C.ar  999  NVP999      0.1506
     16  C15       -1.2070  -34.6350   23.2420 C.ar  999  NVP999      0.2365
     17  C11       -3.1700  -33.2250   22.9560 C.ar  999  NVP999      0.0194
     18  C12       -3.1020  -33.4800   21.5800 C.ar  999  NVP999      0.0217
     19  C13       -2.0710  -34.3100   21.0880 C.ar  999  NVP999      0.1025
     20  N14       -1.1410  -34.8740   21.9070 N.ar  999  NVP999     -0.2068
@<TRIPOS>BOND
     1    19    18   ar
     2    19    20   ar
     3    18    17   ar
     4    20    16   ar
     5    17    15   ar
     6    16    15   ar
     7    16     1    1
     8     2     4    1
     9     2     1    1
    10     2     3    1
    11    15    13    1
    12     4     3    1
    13     1    10    1
    14     5    10    2
    15     5     6    1
    16    10    11    1
    17     6     7    2
    18    13    14    2
    19    13    12    2
    20    11    12    2
    21    11     8    1
    22     7     8    1
    23     8     9    1
