@<TRIPOS>MOLECULE
1lwi_NAP_A_1.pdb
 48 52 0 0 0
SMALL
GASTEIGER

@<TRIPOS>ATOM
      1  PA       -13.2450  -22.1460   52.3060 P.3   350  NAP350      0.2189
      2  O1A      -11.9450  -21.7710   52.8980 O.3   350  NAP350     -0.4371
      3  O2A      -14.3790  -21.1620   52.3440 O.2   350  NAP350     -0.5170
      4  O5B      -13.6850  -23.4890   53.0330 O.3   350  NAP350     -0.3112
      5  C5B      -15.1050  -23.6950   53.2700 C.3   350  NAP350      0.1813
      6  C4B      -15.2870  -24.0060   54.7460 C.3   350  NAP350      0.1820
      7  O4B      -15.5600  -22.8420   55.5430 O.3   350  NAP350     -0.3136
      8  C3B      -16.4550  -24.9390   54.9160 C.3   350  NAP350      0.2157
      9  O3B      -15.9790  -26.1100   55.5870 O.3   350  NAP350     -0.2175
     10  C2B      -17.4370  -24.2190   55.8140 C.3   350  NAP350      0.2314
     11  O2B      -17.9560  -25.2640   56.6570 O.3   350  NAP350     -0.2630
     12  C1B      -16.5530  -23.1980   56.5300 C.3   350  NAP350      0.3158
     13  N9A      -17.2770  -21.9320   56.8170 N.pl3 350  NAP350     -0.1439
     14  C8A      -18.1040  -21.3300   55.9610 C.3   350  NAP350      0.3377
     15  N7A      -18.6420  -20.2470   56.5220 N.2   350  NAP350     -0.2095
     16  C5A      -18.1340  -20.1420   57.7400 C.2   350  NAP350      0.2526
     17  C6A      -18.3140  -19.2140   58.7710 C.2   350  NAP350      0.4393
     18  N6A      -19.3050  -18.3220   58.7640 N.pl3 350  NAP350      0.2180
     19  N1A      -17.5960  -19.3860   59.9060 N.2   350  NAP350      0.0021
     20  C2A      -16.7700  -20.4160   60.0510 C.3   350  NAP350      0.5254
     21  N3A      -16.6000  -21.3170   59.0960 N.2   350  NAP350     -0.0055
     22  C4A      -17.2600  -21.2050   57.9350 C.2   350  NAP350      0.3518
     23  O3       -13.0380  -22.5730   50.7600 O.3   350  NAP350     -0.2703
     24  PN       -13.3670  -23.9060   49.8960 P.3   350  NAP350      0.2189
     25  O1N      -14.5110  -24.6200   50.5050 O.3   350  NAP350     -0.4371
     26  O2N      -12.1000  -24.6470   49.6820 O.2   350  NAP350     -0.5170
     27  O5D      -13.7790  -23.2330   48.5250 O.3   350  NAP350     -0.3112
     28  C5D      -14.9960  -22.5100   48.3940 C.3   350  NAP350      0.1813
     29  C4D      -15.2210  -22.3890   46.9000 C.3   350  NAP350      0.1799
     30  O4D      -13.9890  -21.9640   46.2800 O.3   350  NAP350     -0.3327
     31  C3D      -15.5170  -23.7170   46.2240 C.3   350  NAP350      0.2158
     32  O3D      -16.8700  -24.1690   46.3330 O.3   350  NAP350     -0.2175
     33  C2D      -15.2120  -23.3270   44.7900 C.3   350  NAP350      0.2309
     34  O2D      -16.2720  -22.4930   44.3260 O.3   350  NAP350     -0.2158
     35  C1D      -13.9550  -22.4990   44.9380 C.3   350  NAP350      0.2263
     36  N1N      -12.7400  -23.3060   44.6960 N.pl3 350  NAP350     -0.2787
     37  C2N      -12.0330  -23.1480   43.4930 C.3   350  NAP350      0.1244
     38  C3N      -10.8230  -23.8140   43.2960 C.2   350  NAP350      0.0544
     39  C7N       -9.9760  -23.5870   42.0340 C.2   350  NAP350      0.2818
     40  O7N       -9.1250  -24.4070   41.6990 O.2   350  NAP350     -0.2670
     41  N7N      -10.2290  -22.4700   41.3530 N.am  350  NAP350     -0.0839
     42  C4N      -10.3400  -24.6510   44.3040 C.2   350  NAP350      0.0033
     43  C5N      -11.0360  -24.8180   45.5000 C.2   350  NAP350      0.0157
     44  C6N      -12.2360  -24.1460   45.7000 C.2   350  NAP350      0.0633
     45  P2B      -19.4220  -25.1880   57.3460 P.3   350  NAP350      0.5328
     46  O1X      -20.4920  -25.3070   56.3240 O.2   350  NAP350     -0.2224
     47  O2X      -19.4250  -26.0900   58.5320 O.3   350  NAP350     -0.1145
     48  O3X      -19.4310  -23.6740   57.8930 O.3   350  NAP350     -0.1145
@<TRIPOS>BOND
     1    41    39   am
     2    40    39    2
     3    39    38    1
     4    38    37    1
     5    38    42    2
     6    37    36    1
     7    42    43    1
     8    34    33    1
     9    36    35    1
    10    36    44    1
    11    33    35    1
    12    33    31    1
    13    35    30    1
    14    43    44    2
    15    31    32    1
    16    31    29    1
    17    30    29    1
    18    29    28    1
    19    28    27    1
    20    27    24    1
    21    26    24    2
    22    24    25    1
    23    24    23    1
    24    23     1    1
    25     1     3    2
    26     1     2    1
    27     1     4    1
    28     4     5    1
    29     5     6    1
    30     6     8    1
    31     6     7    1
    32     8     9    1
    33     8    10    1
    34     7    12    1
    35    10    12    1
    36    10    11    1
    37    14    15    1
    38    14    13    1
    39    46    45    2
    40    15    16    2
    41    12    13    1
    42    11    45    1
    43    13    22    1
    44    45    48    1
    45    45    47    1
    46    16    22    1
    47    16    17    1
    48    22    21    2
    49    18    17    1
    50    17    19    2
    51    21    20    1
    52    19    20    1
