@<TRIPOS>MOLECULE
1lwl_DSO_A_1.pdb
 38 42 0 0 0
SMALL
GASTEIGER

@<TRIPOS>ATOM
      1  C1        31.6130   24.3090   24.6920 C.3   900  DSO900      0.0000
      2  C2        30.6460   24.1720   23.4650 C.3   900  DSO900      0.0005
      3  C3        29.1870   24.5270   23.9300 C.3   900  DSO900      0.0000
      4  C4        31.0720   25.2050   22.3560 C.3   900  DSO900      0.0087
      5  C5        31.5690   25.7670   25.2840 C.3   900  DSO900      0.0005
      6  C6        30.0920   26.1010   25.7150 C.3   900  DSO900      0.0000
      7  C7        31.9870   26.7920   24.1670 C.3   900  DSO900      0.0087
      8  C8        29.1060   25.9970   24.4920 C.3   900  DSO900      0.0005
      9  C9        31.0450   26.6880   22.9080 C.3   900  DSO900      0.0705
     10  C10       29.5680   27.0000   23.3700 C.3   900  DSO900      0.0087
     11  C11       21.5040   36.8660   13.6580 C.ar  900  DSO900      0.0145
     12  C12       22.7370   37.1130   14.2930 C.ar  900  DSO900      0.0013
     13  C13       22.8160   37.0320   15.6960 C.ar  900  DSO900      0.0014
     14  C14       20.3200   36.5750   14.3880 C.ar  900  DSO900      0.0479
     15  C15       20.4280   36.4010   15.8030 C.ar  900  DSO900      0.0146
     16  C16       21.6880   36.6790   16.4800 C.ar  900  DSO900      0.0199
     17  C17       21.8110   36.4270   17.8790 C.ar  900  DSO900      0.1236
     18  C18       20.7140   35.8710   18.5800 C.ar  900  DSO900      0.0200
     19  C19       19.5120   35.5450   17.9190 C.ar  900  DSO900      0.0014
     20  C20       19.3860   35.7820   16.5360 C.ar  900  DSO900      0.0013
     21  N21       19.0700   36.7420   13.7050 N.pl3 900  DSO900     -0.3041
     22  C22       18.1740   37.9180   13.7240 C.3   900  DSO900      0.1122
     23  C23       18.6070   35.8130   12.6570 C.3   900  DSO900      0.1122
     24  C24       31.5350   27.7070   21.8800 C.2   900  DSO900      0.2404
     25  N25       31.6150   29.0730   22.2210 N.am  900  DSO900     -0.2054
     26  C26       31.3700   30.1950   21.2790 C.3   900  DSO900      0.1151
     27  C27       29.9430   30.6960   21.5480 C.3   900  DSO900      0.0234
     28  C28       29.4280   31.4450   20.3210 C.3   900  DSO900      0.0018
     29  C29       28.2060   32.2660   20.7530 C.3   900  DSO900      0.0001
     30  C30       27.3390   32.4300   19.4970 C.3   900  DSO900      0.0000
     31  C31       26.4540   33.6740   19.5990 C.3   900  DSO900      0.0015
     32  C32       25.7000   33.6210   18.2710 C.3   900  DSO900      0.0208
     33  C33       24.3000   34.2040   18.4180 C.3   900  DSO900      0.1155
     34  N34       24.4520   35.6430   18.1230 N.3   900  DSO900     -0.0778
     35  O35       23.7380   38.0020   18.6820 O.2   900  DSO900     -0.1516
     36  S36       23.3070   36.6250   18.7960 S.O2  900  DSO900      0.0768
     37  O37       23.1000   36.3370   20.1960 O.2   900  DSO900     -0.1516
     38  O38       32.2700   27.3440   20.9850 O.2   900  DSO900     -0.2734
@<TRIPOS>BOND
     1    23    21    1
     2    11    12   ar
     3    11    14   ar
     4    21    22    1
     5    21    14    1
     6    12    13   ar
     7    14    15   ar
     8    13    16   ar
     9    15    16   ar
    10    15    20   ar
    11    16    17   ar
    12    20    19   ar
    13    17    18   ar
    14    17    36    1
    15    19    18   ar
    16    34    33    1
    17    34    36    1
    18    32    33    1
    19    32    31    1
    20    35    36    2
    21    36    37    2
    22    30    31    1
    23    30    29    1
    24    28    29    1
    25    28    27    1
    26    38    24    2
    27    26    27    1
    28    26    25    1
    29    24    25   am
    30    24     9    1
    31     4     9    1
    32     4     2    1
    33     9    10    1
    34     9     7    1
    35    10     8    1
    36     2     3    1
    37     2     1    1
    38     3     8    1
    39     7     5    1
    40     8     6    1
    41     1     5    1
    42     5     6    1
