@<TRIPOS>MOLECULE
1lwl_HEM_A_1.pdb
 43 50 0 0 0
SMALL
GASTEIGER

@<TRIPOS>ATOM
      1 FE         33.4870   22.2370   28.0810 Fe    417  HEM417      0.0000
      2  CHA       32.6000   20.5640   25.2670 C.2   417  HEM417      0.0000
      3  CHB       30.2820   22.5920   28.8450 C.2   417  HEM417      0.0000
      4  CHC       34.3290   24.0260   30.7320 C.2   417  HEM417      0.0000
      5  CHD       36.5480   22.5590   26.8390 C.2   417  HEM417      0.0000
      6  NA        31.6990   21.6060   27.2630 N.2   417  HEM417      0.0000
      7  C1A       31.5410   20.8550   26.1310 C.2   417  HEM417      0.0000
      8  C2A       30.1820   20.5280   25.9500 C.2   417  HEM417      0.0000
      9  C3A       29.5090   21.1870   26.9660 C.2   417  HEM417      0.0000
     10  C4A       30.4960   21.8410   27.7200 C.2   417  HEM417      0.0000
     11  CMA       27.9850   21.0600   27.3390 C.3   417  HEM417      0.0000
     12  CAA       29.6070   19.7180   24.7670 C.2   417  HEM417      0.0000
     13  CBA       28.9400   20.5060   23.6810 C.2   417  HEM417      0.0000
     14  CGA       28.3910   19.6870   22.5210 C.2   417  HEM417      0.0000
     15  O1A       28.2360   20.2420   21.4360 O.co2 417  HEM417      0.0000
     16  O2A       28.0370   18.5190   22.6530 O.co2 417  HEM417      0.0000
     17  NB        32.4600   23.0030   29.6990 N.ar  417  HEM417      0.0000
     18  C1B       31.1410   23.0670   29.8320 C.ar  417  HEM417      0.0000
     19  C2B       30.7740   23.5290   31.1250 C.ar  417  HEM417      0.0000
     20  C3B       32.0020   23.9850   31.6840 C.ar  417  HEM417      0.0000
     21  C4B       32.9820   23.6900   30.6920 C.ar  417  HEM417      0.0000
     22  CMB       29.3550   23.5440   31.6690 C.3   417  HEM417      0.0000
     23  CAB       32.2320   24.7330   32.8750 C.3   417  HEM417      0.0000
     24  CBB       31.5620   24.7180   34.1980 C.3   417  HEM417      0.0000
     25  NC        35.2510   22.9940   28.7890 N.2   417  HEM417      0.0000
     26  C1C       35.3980   23.6650   29.9150 C.2   417  HEM417      0.0000
     27  C2C       36.7260   23.9820   30.1380 C.2   417  HEM417      0.0000
     28  C3C       37.4170   23.6440   28.9590 C.2   417  HEM417      0.0000
     29  C4C       36.4140   23.1030   28.1160 C.2   417  HEM417      0.0000
     30  CMC       37.3670   24.3490   31.5150 C.3   417  HEM417      0.0000
     31  CAC       38.7550   23.4370   28.7540 C.3   417  HEM417      0.0000
     32  CBC       39.7630   24.3330   28.3190 C.3   417  HEM417      0.0000
     33  ND        34.4820   21.5340   26.4020 N.ar  417  HEM417      0.0000
     34  C1D       35.7510   21.6800   26.1690 C.ar  417  HEM417      0.0000
     35  C2D       36.1010   20.9750   25.0070 C.ar  417  HEM417      0.0000
     36  C3D       34.9420   20.4740   24.4800 C.ar  417  HEM417      0.0000
     37  C4D       33.9340   20.9120   25.3550 C.ar  417  HEM417      0.0000
     38  CMD       37.4880   20.9040   24.3410 C.3   417  HEM417      0.0000
     39  CAD       34.7350   19.8140   23.0840 C.3   417  HEM417      0.0000
     40  CBD       34.7490   18.2470   23.1580 C.3   417  HEM417      0.0000
     41  CGD       34.3610   17.4940   21.8660 C.2   417  HEM417      0.0000
     42  O1D       34.9340   16.4630   21.5570 O.co2 417  HEM417      0.0000
     43  O2D       33.7570   18.1380   20.9890 O.co2 417  HEM417      0.0000
@<TRIPOS>BOND
     1    43    41   ar
     2    15    14   ar
     3    42    41   ar
     4    41    40    1
     5    14    16   ar
     6    14    13    1
     7    39    40    1
     8    39    36    1
     9    13    12    2
    10    38    35    1
    11    36    35   ar
    12    36    37   ar
    13    12     8    1
    14    35    34   ar
    15     2    37    2
    16     2     7    1
    17    37    33   ar
    18     8     7    1
    19     8     9    2
    20     7     6    2
    21    34    33   ar
    22    34     5    2
    23    33     1    1
    24     5    29    1
    25     9    11    1
    26     9    10    1
    27     6    10    1
    28     6     1    1
    29    10     3    2
    30     1    25    1
    31     1    17    1
    32    29    25    2
    33    29    28    1
    34    32    31    1
    35    31    28    1
    36    25    26    1
    37     3    18    1
    38    28    27    2
    39    17    18   ar
    40    17    21   ar
    41    18    19   ar
    42    26    27    1
    43    26     4    2
    44    27    30    1
    45    21     4    1
    46    21    20   ar
    47    19    22    1
    48    19    20   ar
    49    20    23    1
    50    23    24    1
