@<TRIPOS>MOLECULE
1lwn_GLC_A_1.pdb
 12 12 0 0 0
SMALL
GASTEIGER

@<TRIPOS>ATOM
      1  C1        33.4400   22.8640   28.0160 C.3   998  GLC998      0.3024
      2  C2        33.6450   23.1510   26.4870 C.3   998  GLC998      0.2434
      3  C3        32.4070   22.5800   25.6830 C.3   998  GLC998      0.2199
      4  C4        32.0830   21.1000   26.0480 C.3   998  GLC998      0.2144
      5  C5        31.9360   20.9640   27.6010 C.3   998  GLC998      0.1836
      6  C6        31.7320   19.5280   27.9510 C.3   998  GLC998      0.2142
      7  O1        32.3560   23.6310   28.4640 O.3   998  GLC998     -0.1869
      8  O2        33.8020   24.5470   26.2540 O.3   998  GLC998     -0.2148
      9  O3        32.6370   22.6200   24.3060 O.3   998  GLC998     -0.2174
     10  O4        30.8830   20.6930   25.4130 O.3   998  GLC998     -0.2176
     11  O5        33.1540   21.4490   28.2270 O.3   998  GLC998     -0.3236
     12  O6        32.8260   18.8060   27.4190 O.3   998  GLC998     -0.2176
@<TRIPOS>BOND
     1     9     3    1
     2    10     4    1
     3     3     4    1
     4     3     2    1
     5     4     5    1
     6     8     2    1
     7     2     1    1
     8    12     6    1
     9     5     6    1
    10     5    11    1
    11     1    11    1
    12     1     7    1
