@<TRIPOS>MOLECULE
1lwn_PLP_A_1.pdb
 15 15 0 0 0
SMALL
GASTEIGER

@<TRIPOS>ATOM
      1  N1        24.4500   25.8510   30.3790 N.ar  999  PLP999     -0.2452
      2  C2        23.3730   25.1030   30.6980 C.ar  999  PLP999      0.0978
      3  C2A       22.4960   25.5830   31.8300 C.3   999  PLP999      0.0555
      4  C3        23.1060   23.9420   29.9990 C.ar  999  PLP999      0.2049
      5  O3        21.8920   23.3000   30.1580 O.3   999  PLP999     -0.2857
      6  C4        23.9700   23.5310   28.9990 C.ar  999  PLP999      0.0182
      7  C4A       23.5760   22.3210   28.1100 C.3   999  PLP999      0.0342
      8  C5        25.0930   24.2930   28.7250 C.ar  999  PLP999      0.0261
      9  C6        25.3070   25.4600   29.4140 C.ar  999  PLP999      0.0965
     10  C5A       26.0690   23.9650   27.5760 C.3   999  PLP999      0.1815
     11  O4P       25.6490   24.7170   26.4180 O.3   999  PLP999     -0.2653
     12  P         26.6050   24.9010   25.1390 P.3   999  PLP999      0.5329
     13  O1P       25.8170   25.6020   24.0940 O.2   999  PLP999     -0.2224
     14  O2P       27.7450   25.8440   25.6130 O.3   999  PLP999     -0.1145
     15  O3P       27.2370   23.6170   24.8340 O.3   999  PLP999     -0.1145
@<TRIPOS>BOND
     1    13    12    2
     2    15    12    1
     3    12    14    1
     4    12    11    1
     5    11    10    1
     6    10     8    1
     7     7     6    1
     8     8     6   ar
     9     8     9   ar
    10     6     4   ar
    11     9     1   ar
    12     4     5    1
    13     4     2   ar
    14     1     2   ar
    15     2     3    1
