@<TRIPOS>MOLECULE
1lwo_PLP_A_1.pdb
 15 15 0 0 0
SMALL
GASTEIGER

@<TRIPOS>ATOM
      1  N1        24.5500   25.7970   30.2840 N.ar  999  PLP999     -0.2452
      2  C2        23.4520   25.0360   30.5800 C.ar  999  PLP999      0.0978
      3  C2A       22.5130   25.5440   31.6680 C.3   999  PLP999      0.0555
      4  C3        23.2200   23.8450   29.9100 C.ar  999  PLP999      0.2049
      5  O3        22.0070   23.1550   30.0840 O.3   999  PLP999     -0.2857
      6  C4        24.1520   23.4240   28.9420 C.ar  999  PLP999      0.0182
      7  C4A       23.8410   22.1600   28.0620 C.3   999  PLP999      0.0342
      8  C5        25.2910   24.2060   28.6980 C.ar  999  PLP999      0.0261
      9  C6        25.4630   25.3870   29.3820 C.ar  999  PLP999      0.0965
     10  C5A       26.3000   23.8950   27.5420 C.3   999  PLP999      0.1815
     11  O4P       25.8830   24.6100   26.3680 O.3   999  PLP999     -0.2653
     12  P         26.8750   24.8860   25.0930 P.3   999  PLP999      0.5329
     13  O1P       26.0040   25.5680   24.0790 O.2   999  PLP999     -0.2224
     14  O2P       28.0200   25.8960   25.5440 O.3   999  PLP999     -0.1145
     15  O3P       27.5340   23.6130   24.7630 O.3   999  PLP999     -0.1145
@<TRIPOS>BOND
     1    13    12    2
     2    15    12    1
     3    12    14    1
     4    12    11    1
     5    11    10    1
     6    10     8    1
     7     7     6    1
     8     8     6   ar
     9     8     9   ar
    10     6     4   ar
    11     9     1   ar
    12     4     5    1
    13     4     2   ar
    14     1     2   ar
    15     2     3    1
