@<TRIPOS>MOLECULE
1lwo_GLC_A_1.pdb
 12 12 0 0 0
SMALL
GASTEIGER

@<TRIPOS>ATOM
      1  C1        33.6180   22.8250   27.8840 C.3   998  GLC998      0.3024
      2  C2        33.8100   23.1030   26.3610 C.3   998  GLC998      0.2434
      3  C3        32.6190   22.5050   25.5470 C.3   998  GLC998      0.2199
      4  C4        32.3040   21.0440   25.9250 C.3   998  GLC998      0.2144
      5  C5        32.1460   20.9170   27.4990 C.3   998  GLC998      0.1836
      6  C6        31.9310   19.4890   27.8770 C.3   998  GLC998      0.2142
      7  O1        32.4820   23.5590   28.2690 O.3   998  GLC998     -0.1869
      8  O2        33.8670   24.5040   26.1520 O.3   998  GLC998     -0.2148
      9  O3        32.9350   22.5190   24.1900 O.3   998  GLC998     -0.2174
     10  O4        31.1100   20.6680   25.2680 O.3   998  GLC998     -0.2176
     11  O5        33.3700   21.4110   28.1200 O.3   998  GLC998     -0.3236
     12  O6        33.0820   18.7820   27.4720 O.3   998  GLC998     -0.2176
@<TRIPOS>BOND
     1     9     3    1
     2    10     4    1
     3     3     4    1
     4     3     2    1
     5     4     5    1
     6     8     2    1
     7     2     1    1
     8    12     6    1
     9     5     6    1
    10     5    11    1
    11     1    11    1
    12     1     7    1
