@<TRIPOS>MOLECULE
1lwo_CHI_A_1.pdb
 31 34 0 0 0
SMALL
GASTEIGER

@<TRIPOS>ATOM
      1 CL1        17.5170    8.1670   49.5060 Cl    920  CHI920     -0.0869
      2  C1        17.9070    9.4320   50.4990 C.2   920  CHI920      0.0360
      3  C2        18.4010   10.5730   49.8640 C.2   920  CHI920     -0.0113
      4  C3        18.7750   11.7460   50.6520 C.3   920  CHI920      0.0851
      5  C4        18.5750   11.5990   52.1320 C.2   920  CHI920      0.1100
      6  N1        18.8370   12.5300   53.0130 N.2   920  CHI920     -0.4015
      7  C5        18.0850   10.4680   52.7200 C.2   920  CHI920      0.0115
      8  C6        17.7100    9.2950   51.9690 C.3   920  CHI920      0.0662
      9  C7        18.0360   10.7250   54.1340 C.2   920  CHI920      0.0351
     10  C8        18.5640   12.1360   54.2180 C.2   920  CHI920      0.1855
     11  C9        18.7120   12.8900   55.4790 C.2   920  CHI920      0.2949
     12  O1        19.1650   14.0090   55.2880 O.2   920  CHI920     -0.2655
     13  N2        18.3830   12.3770   56.7300 N.am  920  CHI920     -0.1915
     14  C10       18.5980   13.1810   57.9760 C.3   920  CHI920      0.1759
     15  C11       20.1460   13.3840   58.1550 C.2   920  CHI920      0.2458
     16  O2        20.8700   12.2320   58.2600 O.2   920  CHI920     -0.2730
     17  N3        20.8220   14.5840   58.2390 N.am  920  CHI920     -0.2780
     18  C12       19.9200   15.7860   58.5080 C.3   920  CHI920      0.0961
     19  C13       20.7580   17.0820   58.6150 C.3   920  CHI920      0.0544
     20  C14       21.8390   16.9170   59.7540 C.3   920  CHI920      0.1554
     21  O3        22.6570   18.0930   59.9100 O.3   920  CHI920     -0.2230
     22  C15       22.7720   15.7160   59.4570 C.3   920  CHI920      0.0544
     23  C16       21.9350   14.4180   59.2810 C.3   920  CHI920      0.0961
     24  C17       18.0980   12.4250   59.3160 C.3   920  CHI920      0.0574
     25  C18       18.3840   13.3040   60.5650 C.ar  920  CHI920     -0.0198
     26  C19       17.6720   14.5390   60.8870 C.ar  920  CHI920     -0.0019
     27  C20       18.0540   15.2810   62.0460 C.ar  920  CHI920      0.0293
     28  C21       19.1550   14.7890   62.8740 C.ar  920  CHI920      0.1401
     29  F1        19.5390   15.4540   63.9410 F     920  CHI920     -0.2042
     30  C22       19.8390   13.5700   62.5490 C.ar  920  CHI920      0.0293
     31  C23       19.4630   12.8540   61.4210 C.ar  920  CHI920     -0.0019
@<TRIPOS>BOND
     1     1     2    1
     2     3     2    2
     3     3     4    1
     4     2     8    1
     5     4     5    1
     6     8     7    1
     7     5     7    1
     8     5     6    2
     9     7     9    2
    10     6    10    2
    11     9    10    1
    12    10    11    1
    13    12    11    2
    14    11    13   am
    15    13    14    1
    16    14    15    1
    17    14    24    1
    18    15    17   am
    19    15    16    2
    20    17    18    1
    21    17    23    1
    22    18    19    1
    23    19    20    1
    24    23    22    1
    25    24    25    1
    26    22    20    1
    27    20    21    1
    28    25    26   ar
    29    25    31   ar
    30    26    27   ar
    31    31    30   ar
    32    27    28   ar
    33    30    28   ar
    34    28    29    1
