@<TRIPOS>MOLECULE
1lwu_III_M_1.pdb
 32 33 0 0 0
SMALL
GASTEIGER

@<TRIPOS>ATOM
      1  N        -19.0430  -12.0680  214.3810 N.3     1  GLY1       -0.1210
      2  CA       -18.2950  -12.6810  213.2490 C.3     1  GLY1        0.1956
      3  C        -17.4830  -13.8750  213.7020 C.2     1  GLY1        0.2612
      4  O        -16.5710  -13.7410  214.5240 O.2     1  GLY1       -0.2717
      5  N        -17.8080  -15.0440  213.1620 N.am    2  HIS2       -0.1961
      6  CA       -17.1220  -16.2850  213.5220 C.3     2  HIS2        0.1784
      7  C        -15.6480  -16.2630  213.1320 C.2     2  HIS2        0.2620
      8  O        -15.1220  -15.2310  212.7260 O.2     2  HIS2       -0.2715
      9  CB       -17.8120  -17.4620  212.8240 C.3     2  HIS2        0.0745
     10  CG       -17.9380  -17.2880  211.3420 C.2     2  HIS2        0.0653
     11  ND1      -18.7570  -16.3360  210.7730 N.2     2  HIS2       -0.2310
     12  CD2      -17.2990  -17.8970  210.3150 C.3     2  HIS2        0.1683
     13  CE1      -18.6110  -16.3620  209.4590 C.2     2  HIS2        0.1939
     14  NE2      -17.7310  -17.2990  209.1560 N.2     2  HIS2       -0.2440
     15  N        -14.9810  -17.4050  213.2640 N.am    3  ARG3       -0.1964
     16  CA       -13.5760  -17.5150  212.8720 C.3     3  ARG3        0.1714
     17  C        -13.3780  -18.7060  211.9110 C.2     3  ARG3        0.2458
     18  O        -14.2820  -19.5340  211.7390 O.2     3  ARG3       -0.2730
     19  CB       -12.6690  -17.6710  214.1060 C.3     3  ARG3        0.0347
     20  CG       -12.4190  -16.3870  214.9130 C.3     3  ARG3        0.0492
     21  CD       -11.8430  -15.2580  214.0640 C.3     3  ARG3        0.2205
     22  NE       -12.7280  -14.1050  214.1350 N.pl3   3  ARG3       -0.0865
     23  CZ       -12.5880  -13.1100  214.9980 C.cat   3  ARG3        0.5346
     24  NH1      -11.5790  -13.1240  215.8570 N.pl3   3  ARG3        0.1354
     25  NH2      -13.4800  -12.1250  215.0260 N.pl3   3  ARG3        0.1354
     26  N        -12.1940  -18.7990  211.2660 N.am    4  PRO4       -0.2727
     27  CA       -11.9040  -19.8900  210.3320 C.3     4  PRO4        0.1402
     28  C        -12.0760  -21.2500  210.9890 C.2     4  PRO4        0.2269
     29  O        -12.9580  -22.0030  210.5230 O.2     4  PRO4       -0.2865
     30  CB       -10.4480  -19.6330  209.9340 C.3     4  PRO4        0.0296
     31  CG       -10.3170  -18.1650  210.0480 C.3     4  PRO4        0.0237
     32  CD       -11.0400  -17.8840  211.3470 C.3     4  PRO4        0.0939
@<TRIPOS>BOND
     1    14    13    2
     2    14    12    1
     3    13    11    1
     4    30    31    1
     5    30    27    1
     6    31    32    1
     7    12    10    1
     8    27    28    1
     9    27    26    1
    10    29    28    2
    11    11    10    2
    12    26    32    1
    13    26    17   am
    14    10     9    1
    15    18    17    2
    16    17    16    1
    17     8     7    2
    18     9     6    1
    19    16    15    1
    20    16    19    1
    21     7    15   am
    22     7     6    1
    23     5     6    1
    24     5     3   am
    25     2     3    1
    26     2     1    1
    27     3     4    2
    28    21    22    1
    29    21    20    1
    30    19    20    1
    31    22    23    2
    32    23    25    1
    33    23    24    1
