@<TRIPOS>MOLECULE
1lwv_ANG_A_1.pdb
 12 13 0 0 0
SMALL
GASTEIGER

@<TRIPOS>ATOM
      1  N9        20.4660   23.5380   33.6290 N.2   328  ANG328     -0.2547
      2  C4        20.3940   23.9400   32.3180 C.1   328  ANG328      0.2067
      3  N3        20.4220   25.2150   31.8760 N.2   328  ANG328     -0.2542
      4  C2        20.3470   25.2770   30.5520 C.1   328  ANG328      0.2618
      5  N2        20.3670   26.4690   29.9280 N.pl3 328  ANG328     -0.0220
      6  N1        20.2510   24.1760   29.7370 N.2   328  ANG328     -0.2465
      7  C6        20.2180   22.8580   30.1720 C.1   328  ANG328      0.2590
      8  O6        20.1300   21.9480   29.3500 O.2   328  ANG328     -0.2051
      9  C5        20.2980   22.7710   31.5810 C.2   328  ANG328      0.3244
     10  N7        20.3060   21.6600   32.4140 N.2   328  ANG328     -0.2996
     11  C8        20.4130   22.1630   33.6120 C.1   328  ANG328      0.2528
     12  N8        20.4720   21.4050   34.7170 N.pl3 328  ANG328     -0.0226
@<TRIPOS>BOND
     1     8     7    2
     2     6     7    2
     3     6     4    2
     4     5     4    1
     5     7     9    1
     6     4     3    2
     7     9     2    1
     8     9    10    2
     9     3     2    2
    10     2     1    2
    11    10    11    2
    12    11     1    2
    13    11    12    1
