@<TRIPOS>MOLECULE
1lww_BRG_A_1.pdb
 12 13 0 0 0
SMALL
GASTEIGER

@<TRIPOS>ATOM
      1  N9        20.6450   23.8500   33.9320 N.2   328  BRG328     -0.2644
      2  C4        20.5020   24.0390   32.5790 C.1   328  BRG328      0.2059
      3  N3        20.4320   25.2290   31.9500 N.2   328  BRG328     -0.2543
      4  C2        20.3190   25.0880   30.6400 C.1   328  BRG328      0.2618
      5  N2        20.2530   26.1750   29.8620 N.pl3 328  BRG328     -0.0220
      6  N1        20.2670   23.8690   29.9990 N.2   328  BRG328     -0.2465
      7  C6        20.3340   22.6310   30.6300 C.1   328  BRG328      0.2590
      8  O6        20.2810   21.5940   29.9630 O.2   328  BRG328     -0.2051
      9  C5        20.4640   22.7700   32.0340 C.2   328  BRG328      0.3236
     10  N7        20.5800   21.8040   33.0250 N.2   328  BRG328     -0.3085
     11  C8        20.7070   22.4940   34.1240 C.1   328  BRG328      0.1874
     12 BR         20.9940   21.6770   35.8620 Br    328  BRG328      0.0631
@<TRIPOS>BOND
     1     5     4    1
     2     8     7    2
     3     6     7    2
     4     6     4    2
     5     7     9    1
     6     4     3    2
     7     3     2    2
     8     9     2    1
     9     9    10    2
    10     2     1    2
    11    10    11    2
    12     1    11    2
    13    11    12    1
