@<TRIPOS>MOLECULE
1lwx_AZD_A_1.pdb
 27 28 0 0 0
SMALL
GASTEIGER

@<TRIPOS>ATOM
      1  PA        67.4480   30.8570   -1.7780 P.3   156  AZD156      0.2231
      2  O1A       68.4410   29.7880   -1.9220 O.3   156  AZD156     -0.4370
      3  O2A       66.5500   31.1770   -2.9230 O.2   156  AZD156     -0.5169
      4  O3A       66.5210   30.4900   -0.5030 O.3   156  AZD156     -0.2261
      5  PB        66.6030   29.2870    0.6040 P.3   156  AZD156      0.5373
      6  O1B       67.3220   28.1680   -0.0630 O.2   156  AZD156     -0.2221
      7  O2B       65.2150   28.9310    0.9070 O.3   156  AZD156     -0.1143
      8  O3B       67.3570   29.8430    1.7670 O.3   156  AZD156     -0.1143
      9  O5'       68.1770   32.1870   -1.2600 O.3   156  AZD156     -0.3111
     10  C5'       69.3650   32.3000   -0.4100 C.3   156  AZD156      0.1806
     11  C4'       69.2920   33.4470    0.6290 C.3   156  AZD156      0.1722
     12  O4'       68.9480   34.5910   -0.0970 O.3   156  AZD156     -0.3345
     13  C3'       68.2030   33.3390    1.6980 C.3   156  AZD156      0.1731
     14  N3'       68.7120   33.5390    3.1150 N.2   156  AZD156     -0.0969
     15  N4'       68.8540   32.4730    3.6980 N.2   156  AZD156     -0.1663
     16  N5'       69.0230   31.5700    4.3260 N.2   156  AZD156      0.0678
     17  C2'       67.1620   34.3840    1.2760 C.3   156  AZD156      0.0819
     18  C1'       68.0200   35.4070    0.5500 C.3   156  AZD156      0.2085
     19  N1        67.2840   36.1860   -0.5710 N.am  156  AZD156     -0.1794
     20  C2        67.2470   37.6130   -0.4960 C.1   156  AZD156      0.2844
     21  O2        67.7420   38.2800    0.4120 O.2   156  AZD156     -0.1918
     22  N3        66.4940   38.2570   -1.5050 N.2   156  AZD156     -0.2455
     23  C4        65.7360   37.6740   -2.5550 C.1   156  AZD156      0.2134
     24  O4        65.1610   38.4310   -3.3640 O.2   156  AZD156     -0.2088
     25  C5        65.7980   36.2110   -2.5570 C.2   156  AZD156      0.0891
     26  C5A       64.9940   35.4260   -3.5670 C.3   156  AZD156      0.0462
     27  C6        66.5510   35.5370   -1.6200 C.2   156  AZD156      0.0877
@<TRIPOS>BOND
     1    26    25    1
     2    24    23    2
     3     3     1    2
     4    25    23    1
     5    25    27    2
     6    23    22    2
     7     2     1    1
     8     1     9    1
     9     1     4    1
    10    27    19    1
    11    22    20    2
    12     9    10    1
    13    19    20   am
    14    19    18    1
    15     4     5    1
    16    20    21    2
    17    10    11    1
    18    12    18    1
    19    12    11    1
    20     6     5    2
    21    18    17    1
    22     5     7    1
    23     5     8    1
    24    11    13    1
    25    17    13    1
    26    13    14    1
    27    14    15    2
    28    15    16    2
