@<TRIPOS>MOLECULE
1lx6_ZAM_A_1.pdb
 28 30 0 0 0
SMALL
GASTEIGER

@<TRIPOS>ATOM
      1  C13        1.6280   18.6920  137.9950 C.3   502  ZAM502      0.1215
      2  C21        0.5510   16.4280  138.2540 C.2   502  ZAM502      0.2264
      3  C27        2.6990   22.3650  134.6720 C.2   502  ZAM502      0.2493
      4  C30        2.6570   21.8430  132.1820 C.3   502  ZAM502      0.1376
      5  C33        3.1520   24.1290  132.9870 C.3   502  ZAM502      0.1156
      6  C01        3.2210   18.3140  135.9900 C.ar  502  ZAM502      0.0867
      7  C02        2.2990   19.1770  136.7000 C.ar  502  ZAM502      0.0146
      8  C03        2.0900   20.4960  136.2170 C.ar  502  ZAM502      0.0032
      9  C04        2.7800   20.9540  135.0920 C.ar  502  ZAM502      0.0534
     10  C05        3.6640   20.1220  134.4180 C.ar  502  ZAM502      0.0059
     11  C06        3.8990   18.8100  134.8440 C.ar  502  ZAM502      0.0179
     12  N10        3.5080   16.9930  136.3720 N.pl3 502  ZAM502     -0.1283
     13  N16        0.4780   17.7760  137.8460 N.am  502  ZAM502     -0.2736
     14  C17       -0.6780   18.3290  137.1330 C.3   502  ZAM502      0.1152
     15  O22        1.5000   15.9540  138.9110 O.2   502  ZAM502     -0.2748
     16  C23       -0.5900   15.5270  137.8620 C.3   502  ZAM502      0.0948
     17  N28        2.8590   22.7490  133.3260 N.am  502  ZAM502     -0.2687
     18  O29        2.5510   23.1770  135.5670 O.2   502  ZAM502     -0.2699
     19  C37        1.2280   21.8550  131.7910 C.ar  502  ZAM502      0.0574
     20  C38        0.2010   21.0440  132.3500 C.ar  502  ZAM502      0.0159
     21  C39       -0.9850   21.5070  131.6960 C.ar  502  ZAM502      0.0170
     22  C40       -0.6520   22.5570  130.8080 C.ar  502  ZAM502      0.0597
     23  N41        0.7310   22.7740  130.8710 N.ar  502  ZAM502     -0.3271
     24  C43        1.5010   23.7540  130.0920 C.3   502  ZAM502      0.1302
     25  C47       -2.3920   21.2210  131.7930 C.ar  502  ZAM502      0.0015
     26  C48       -3.3270   21.9380  131.0300 C.ar  502  ZAM502      0.0001
     27  C51       -1.5530   23.2930  130.0390 C.ar  502  ZAM502      0.0172
     28  C52       -2.9090   22.9750  130.1680 C.ar  502  ZAM502      0.0015
@<TRIPOS>BOND
     1    27    28   ar
     2    27    22   ar
     3    24    23    1
     4    28    26   ar
     5    22    23   ar
     6    22    21   ar
     7    23    19   ar
     8    26    25   ar
     9    21    25   ar
    10    21    20   ar
    11    19     4    1
    12    19    20   ar
    13     4    17    1
    14     5    17    1
    15    17     3   am
    16    10    11   ar
    17    10     9   ar
    18     3     9    1
    19     3    18    2
    20    11     6   ar
    21     9     8   ar
    22     6    12    1
    23     6     7   ar
    24     8     7   ar
    25     7     1    1
    26    14    13    1
    27    13     1    1
    28    13     2   am
    29    16     2    1
    30     2    15    2
