@<TRIPOS>MOLECULE
1lx6_NAD_A_1.pdb
 44 48 0 0 0
SMALL
GASTEIGER

@<TRIPOS>ATOM
      1  PA         6.6580   15.9020  137.1220 P.3   501  NAD501      0.2189
      2  O1A        5.3230   15.2380  137.1640 O.3   501  NAD501     -0.4371
      3  O2A        7.8660   15.1590  136.6410 O.2   501  NAD501     -0.5170
      4  O5B        7.0700   16.4630  138.5840 O.3   501  NAD501     -0.3112
      5  C5B        6.1290   17.0180  139.4820 C.3   501  NAD501      0.1813
      6  C4B        6.5720   16.3210  140.7470 C.3   501  NAD501      0.1821
      7  O4B        5.5070   16.5430  141.6910 O.3   501  NAD501     -0.3135
      8  C3B        6.7270   14.7850  140.6400 C.3   501  NAD501      0.2184
      9  O3B        8.0180   14.3090  141.0180 O.3   501  NAD501     -0.2174
     10  C2B        5.7790   14.1510  141.6620 C.3   501  NAD501      0.2570
     11  O2B        6.3520   12.9870  142.3090 O.3   501  NAD501     -0.2130
     12  C1B        5.5500   15.3790  142.5470 C.3   501  NAD501      0.3186
     13  N9A        4.4470   15.1980  143.4990 N.pl3 501  NAD501     -0.1439
     14  C8A        3.1160   15.2400  143.2900 C.3   501  NAD501      0.3377
     15  N7A        2.4750   15.1610  144.4620 N.2   501  NAD501     -0.2095
     16  C5A        3.4530   15.0800  145.3590 C.2   501  NAD501      0.2526
     17  C6A        3.2880   14.9580  146.7360 C.2   501  NAD501      0.4393
     18  N6A        2.0880   14.8640  147.2770 N.pl3 501  NAD501      0.2180
     19  N1A        4.4310   14.8560  147.4550 N.2   501  NAD501      0.0021
     20  C2A        5.6570   14.8360  146.8850 C.3   501  NAD501      0.5254
     21  N3A        5.8160   14.9150  145.5590 N.2   501  NAD501     -0.0055
     22  C4A        4.7100   15.0680  144.7870 C.2   501  NAD501      0.3518
     23  O3         6.5710   17.2370  136.2270 O.3   501  NAD501     -0.2703
     24  PN         7.6410   18.3970  135.9390 P.3   501  NAD501      0.2189
     25  O1N        7.3290   18.9740  134.6140 O.2   501  NAD501     -0.5170
     26  O2N        9.0320   17.9440  136.2140 O.3   501  NAD501     -0.4371
     27  O5D        7.2340   19.5580  136.9530 O.3   501  NAD501     -0.3112
     28  C5D        8.0990   20.1120  137.9460 C.3   501  NAD501      0.1813
     29  C4D        7.3890   21.3630  138.3990 C.3   501  NAD501      0.1799
     30  O4D        7.6160   22.3140  137.3390 O.3   501  NAD501     -0.3327
     31  C3D        5.8680   21.1650  138.5280 C.3   501  NAD501      0.2158
     32  O3D        5.3350   21.7590  139.7130 O.3   501  NAD501     -0.2175
     33  C2D        5.3750   21.8640  137.2720 C.3   501  NAD501      0.2309
     34  O2D        4.1300   22.4750  137.3610 O.3   501  NAD501     -0.2158
     35  C1D        6.3560   22.9530  137.0770 C.3   501  NAD501      0.2263
     36  N1N        6.3590   23.4620  135.7130 N.pl3 501  NAD501     -0.2787
     37  C2N        6.3030   22.5600  134.6390 C.3   501  NAD501      0.1244
     38  C3N        6.5800   23.0210  133.3620 C.2   501  NAD501      0.0544
     39  C7N        6.5210   22.1120  132.1450 C.2   501  NAD501      0.2818
     40  O7N        6.5740   22.6940  131.0690 O.2   501  NAD501     -0.2670
     41  N7N        6.3490   20.8000  132.2930 N.am  501  NAD501     -0.0839
     42  C4N        6.9090   24.3620  133.1540 C.2   501  NAD501      0.0033
     43  C5N        6.9640   25.2530  134.2280 C.2   501  NAD501      0.0157
     44  C6N        6.6860   24.8050  135.5140 C.2   501  NAD501      0.0633
@<TRIPOS>BOND
     1    40    39    2
     2    39    41   am
     3    39    38    1
     4    42    38    2
     5    42    43    1
     6    38    37    1
     7    43    44    2
     8    25    24    2
     9    37    36    1
    10    44    36    1
    11    36    35    1
    12    24    26    1
    13    24    23    1
    14    24    27    1
    15    23     1    1
    16     3     1    2
    17    27    28    1
    18    35    33    1
    19    35    30    1
    20     1     2    1
    21     1     4    1
    22    33    34    1
    23    33    31    1
    24    30    29    1
    25    28    29    1
    26    29    31    1
    27    31    32    1
    28     4     5    1
    29     5     6    1
    30     8     6    1
    31     8     9    1
    32     8    10    1
    33     6     7    1
    34    10    11    1
    35    10    12    1
    36     7    12    1
    37    12    13    1
    38    14    13    1
    39    14    15    1
    40    13    22    1
    41    15    16    2
    42    22    16    1
    43    22    21    2
    44    16    17    1
    45    21    20    1
    46    17    18    1
    47    17    19    2
    48    20    19    1
