@<TRIPOS>MOLECULE
1lxc_NAD_A_1.pdb
 44 48 0 0 0
SMALL
GASTEIGER

@<TRIPOS>ATOM
      1  PA         7.0420   15.6540  136.2930 P.3   301  NAD301      0.2189
      2  O1A        5.7620   14.8720  136.3390 O.3   301  NAD301     -0.4371
      3  O2A        8.1850   15.0470  135.5210 O.2   301  NAD301     -0.5170
      4  O5B        7.5520   15.9490  137.8290 O.3   301  NAD301     -0.3112
      5  C5B        6.7470   16.5900  138.8480 C.3   301  NAD301      0.1813
      6  C4B        6.7810   15.8250  140.1680 C.3   301  NAD301      0.1821
      7  O4B        5.5250   16.0010  140.8450 O.3   301  NAD301     -0.3135
      8  C3B        6.9040   14.2930  140.1040 C.3   301  NAD301      0.2184
      9  O3B        8.2640   13.8390  139.9850 O.3   301  NAD301     -0.2174
     10  C2B        6.2170   13.8090  141.3900 C.3   301  NAD301      0.2570
     11  O2B        7.1020   12.9890  142.1740 O.3   301  NAD301     -0.2130
     12  C1B        5.8060   15.1780  141.9910 C.3   301  NAD301      0.3186
     13  N9A        4.6120   15.1260  142.9540 N.pl3 301  NAD301     -0.1439
     14  C8A        3.2680   15.1870  142.7020 C.3   301  NAD301      0.3377
     15  N7A        2.5510   15.1060  143.8420 N.2   301  NAD301     -0.2095
     16  C5A        3.4880   14.9930  144.7860 C.2   301  NAD301      0.2526
     17  C6A        3.2590   14.8720  146.1920 C.2   301  NAD301      0.4393
     18  N6A        2.0180   14.8640  146.6800 N.pl3 301  NAD301      0.2180
     19  N1A        4.3860   14.7640  147.0040 N.2   301  NAD301      0.0021
     20  C2A        5.6580   14.7750  146.4910 C.3   301  NAD301      0.5254
     21  N3A        5.8790   14.8890  145.1390 N.2   301  NAD301     -0.0055
     22  C4A        4.7930   14.9990  144.2740 C.2   301  NAD301      0.3518
     23  O3         6.7430   17.0960  135.6200 O.3   301  NAD301     -0.2703
     24  PN         7.6560   18.4010  135.3570 P.3   301  NAD301      0.2189
     25  O1N        7.2640   18.9900  134.0470 O.2   301  NAD301     -0.5170
     26  O2N        9.0930   18.0380  135.5740 O.3   301  NAD301     -0.4371
     27  O5D        7.2130   19.4800  136.5070 O.3   301  NAD301     -0.3112
     28  C5D        8.0710   19.9840  137.5430 C.3   301  NAD301      0.1813
     29  C4D        7.5930   21.3330  138.0670 C.3   301  NAD301      0.1799
     30  O4D        7.8720   22.3270  137.0580 O.3   301  NAD301     -0.3327
     31  C3D        6.0800   21.4630  138.3210 C.3   301  NAD301      0.2158
     32  O3D        5.8080   22.2340  139.5030 O.3   301  NAD301     -0.2175
     33  C2D        5.5300   22.1240  137.0630 C.3   301  NAD301      0.2309
     34  O2D        4.2880   22.7800  137.3280 O.3   301  NAD301     -0.2158
     35  C1D        6.6560   23.0520  136.6650 C.3   301  NAD301      0.2263
     36  N1N        6.6840   23.3680  135.2030 N.pl3 301  NAD301     -0.2787
     37  C2N        6.4330   22.3740  134.1690 C.3   301  NAD301      0.1244
     38  C3N        6.5050   22.7560  132.7880 C.2   301  NAD301      0.0544
     39  C7N        6.2520   21.7870  131.6780 C.2   301  NAD301      0.2818
     40  O7N        5.7860   22.1750  130.5900 O.2   301  NAD301     -0.2670
     41  N7N        6.5400   20.5050  131.9210 N.am  301  NAD301     -0.0839
     42  C4N        6.8250   24.1100  132.4510 C.2   301  NAD301      0.0033
     43  C5N        7.0620   25.0630  133.4780 C.2   301  NAD301      0.0157
     44  C6N        6.9970   24.7060  134.8460 C.2   301  NAD301      0.0633
@<TRIPOS>BOND
     1    40    39    2
     2    39    41   am
     3    39    38    1
     4    42    38    2
     5    42    43    1
     6    38    37    1
     7    43    44    2
     8    25    24    2
     9    37    36    1
    10    44    36    1
    11    36    35    1
    12    24    26    1
    13    24    23    1
    14    24    27    1
    15     3     1    2
    16    23     1    1
    17     1     2    1
    18     1     4    1
    19    27    28    1
    20    35    30    1
    21    35    33    1
    22    30    29    1
    23    33    34    1
    24    33    31    1
    25    28    29    1
    26     4     5    1
    27    29    31    1
    28    31    32    1
    29     5     6    1
    30     9     8    1
    31     8     6    1
    32     8    10    1
    33     6     7    1
    34     7    12    1
    35    10    12    1
    36    10    11    1
    37    12    13    1
    38    14    13    1
    39    14    15    1
    40    13    22    1
    41    15    16    2
    42    22    16    1
    43    22    21    2
    44    16    17    1
    45    21    20    1
    46    17    18    1
    47    17    19    2
    48    20    19    1
