@<TRIPOS>MOLECULE
1lxc_AYM_A_1.pdb
 24 26 0 0 0
SMALL
GASTEIGER

@<TRIPOS>ATOM
      1  N01       -2.0870   16.1000  137.0360 N.pl3 302  AYM302     -0.1072
      2  C02       -1.4430   17.3190  136.7350 C.ar  302  AYM302      0.1697
      3  N03       -1.1610   18.3620  137.7440 N.ar  302  AYM302     -0.2259
      4  C04       -0.4970   19.5920  137.3670 C.ar  302  AYM302      0.1004
      5  C05       -0.1090   19.8100  136.0310 C.ar  302  AYM302      0.0194
      6  C06       -0.4020   18.7270  134.9880 C.ar  302  AYM302      0.0045
      7  C07       -1.0520   17.5210  135.3580 C.ar  302  AYM302      0.0376
      8  C08        0.5600   21.0710  135.6180 C.2   302  AYM302      0.0062
      9  C09        1.7790   21.0840  134.9170 C.2   302  AYM302      0.0580
     10  C10        2.3850   22.3960  134.5280 C.2   302  AYM302      0.2495
     11  O11        2.5970   23.1650  135.4560 O.2   302  AYM302     -0.2699
     12  N12        2.6970   22.7590  133.1770 N.am  302  AYM302     -0.2687
     13  C13        3.2750   24.0710  132.9220 C.3   302  AYM302      0.1156
     14  C14        2.4760   21.9070  131.9550 C.3   302  AYM302      0.1376
     15  C15        1.1250   22.2270  131.4100 C.ar  302  AYM302      0.0574
     16  C16       -0.0860   21.5910  131.8190 C.ar  302  AYM302      0.0159
     17  C17       -1.0960   22.2360  131.0520 C.ar  302  AYM302      0.0170
     18  C18       -0.4870   23.2320  130.2030 C.ar  302  AYM302      0.0597
     19  N19        0.9100   23.2210  130.4270 N.ar  302  AYM302     -0.3271
     20  C20        1.9200   24.0870  129.7630 C.3   302  AYM302      0.1302
     21  C21       -2.5580   22.1190  130.9420 C.ar  302  AYM302      0.0015
     22  C22       -3.2920   22.9530  130.0520 C.ar  302  AYM302      0.0001
     23  C23       -2.6110   23.9270  129.2370 C.ar  302  AYM302      0.0015
     24  C24       -1.1890   24.0810  129.3030 C.ar  302  AYM302      0.0172
@<TRIPOS>BOND
     1    23    24   ar
     2    23    22   ar
     3    24    18   ar
     4    20    19    1
     5    22    21   ar
     6    18    19   ar
     7    18    17   ar
     8    19    15   ar
     9    21    17   ar
    10    17    16   ar
    11    15    16   ar
    12    15    14    1
    13    14    12    1
    14    13    12    1
    15    12    10   am
    16    10     9    1
    17    10    11    2
    18     9     8    2
    19     6     7   ar
    20     6     5   ar
    21     7     2   ar
    22     8     5    1
    23     5     4   ar
    24     2     1    1
    25     2     3   ar
    26     4     3   ar
