@<TRIPOS>MOLECULE
1lxk_BDP_A_1.pdb
 12 12 0 0 0
SMALL
GASTEIGER

@<TRIPOS>ATOM
      1  C1        14.7760  -13.0480   32.5150 C.3   1001  BDP1001     0.1783
      2  C2        14.5290  -11.5260   32.3450 C.3   1001  BDP1001     0.2141
      3  C3        13.0840  -11.2500   32.8060 C.3   1001  BDP1001     0.2178
      4  C4        12.1190  -12.0380   31.8940 C.3   1001  BDP1001     0.2227
      5  C5        12.2310  -13.7130   31.7930 C.3   1001  BDP1001     0.2512
      6  C6        11.5700  -14.4620   31.0670 C.2   1001  BDP1001     0.3940
      7  O2        15.4700  -10.7880   33.1660 O.3   1001  BDP1001    -0.2176
      8  O3        12.8050   -9.8380   32.6880 O.3   1001  BDP1001    -0.2175
      9  O4        10.7280  -11.8510   32.3030 O.3   1001  BDP1001    -0.2171
     10  O5        13.8390  -13.8320   31.7170 O.3   1001  BDP1001    -0.3403
     11  O6A       10.5320  -13.9770   30.5330 O.co2 1001  BDP1001    -0.2429
     12  O6B       12.0400  -15.6240   30.9400 O.co2 1001  BDP1001    -0.2429
@<TRIPOS>BOND
     1    11     6   ar
     2    12     6   ar
     3     6     5    1
     4    10     5    1
     5    10     1    1
     6     5     4    1
     7     4     9    1
     8     4     3    1
     9     2     1    1
    10     2     3    1
    11     2     7    1
    12     8     3    1
