@<TRIPOS>MOLECULE
1lxy_CIR_A_1.pdb
 12 11 0 0 0
SMALL
GASTEIGER

@<TRIPOS>ATOM
      1  C1        46.7910   39.5960   -4.9170 C.2   500  CIR500      0.3819
      2  O1        47.5010   39.5750   -3.8460 O.co2 500  CIR500     -0.2441
      3  O2        46.0750   38.6910   -5.2500 O.co2 500  CIR500     -0.2441
      4  C2        46.5390   40.9620   -5.6240 C.3   500  CIR500      0.1944
      5  N2        46.4410   40.7210   -7.1480 N.3   500  CIR500     -0.1208
      6  C3        45.2950   41.6770   -5.0670 C.3   500  CIR500      0.0321
      7  C4        45.4200   42.1920   -3.6020 C.3   500  CIR500      0.0210
      8  C5        44.1510   42.7790   -3.0910 C.3   500  CIR500      0.0928
      9  N6        44.3710   43.1220   -1.7220 N.3   500  CIR500     -0.1724
     10  C7        43.3500   43.9160   -1.1220 C.3   500  CIR500      0.3198
     11  O7        42.2130   43.0900   -0.8250 O.3   500  CIR500     -0.1815
     12  N8        44.0790   44.0690    0.1560 N.3   500  CIR500     -0.0790
@<TRIPOS>BOND
     1     5     4    1
     2     4     6    1
     3     4     1    1
     4     3     1   ar
     5     6     7    1
     6     1     2   ar
     7     7     8    1
     8     8     9    1
     9     9    10    1
    10    10    11    1
    11    10    12    1
