@<TRIPOS>MOLECULE
1ly3_COG_A_1.pdb
 25 27 0 0 0
SMALL
GASTEIGER

@<TRIPOS>ATOM
      1  C2B       10.3710    2.3520   12.5400 C.1   307  COG307      0.2424
      2  C4B       10.8290    4.3060   13.8770 C.2   307  COG307      0.2350
      3  C4A       11.9780    4.5560   13.1020 C.2   307  COG307      0.0758
      4  C5B       12.8140    5.6610   13.3540 C.2   307  COG307      0.0205
      5  C6B       13.9600    5.8460   12.5550 C.2   307  COG307      0.0444
      6  C7B       14.2450    4.9620   11.5330 C.2   307  COG307     -0.0041
      7  C8A       12.2790    3.6910   12.0320 C.2   307  COG307      0.1309
      8  C21       19.6790    6.5150   12.4390 C.3   307  COG307      0.2525
      9  C7'       16.1160    7.0730   12.8060 C.3   307  COG307      0.1209
     10  C61       13.7850    8.0160   13.4420 C.3   307  COG307      0.1125
     11  C1'       16.4850    7.3100   11.3330 C.ar  307  COG307      0.0346
     12  C2'       17.7240    6.8790   10.8680 C.ar  307  COG307      0.1365
     13  C3'       18.0700    7.1320    9.5390 C.ar  307  COG307      0.0397
     14  C4'       17.2090    7.8160    8.6960 C.ar  307  COG307      0.0400
     15  C5'       15.9920    8.2720    9.1890 C.ar  307  COG307      0.1387
     16  C51       15.5100    9.4900    7.0640 C.3   307  COG307      0.2525
     17  C6'       15.6390    8.0260   10.5100 C.ar  307  COG307      0.0373
     18  N1'       11.4920    2.5930   11.7700 N.2   307  COG307     -0.3298
     19  N2'        9.5240    1.2660   12.2400 N.pl3 307  COG307     -0.0232
     20  N3'       10.0290    3.2370   13.5860 N.2   307  COG307     -0.3072
     21  N4'       10.4460    5.0870   14.9870 N.pl3 307  COG307     -0.0920
     22  C8'       13.4370    3.8680   11.2280 C.3   307  COG307      0.0874
     23  O2'       18.5940    6.1730   11.6300 O.3   307  COG307     -0.4717
     24  O5'       15.1520    8.9450    8.2870 O.3   307  COG307     -0.4714
     25  N6'       14.6840    6.9990   12.9200 N.pl3 307  COG307     -0.3020
@<TRIPOS>BOND
     1    16    24    1
     2    24    15    1
     3    14    15   ar
     4    14    13   ar
     5    15    17   ar
     6    13    12   ar
     7    17    11   ar
     8    12    11   ar
     9    12    23    1
    10    22     6    1
    11    22     7    1
    12    11     9    1
    13     6     5    2
    14    23     8    1
    15    18     7    2
    16    18     1    2
    17     7     3    1
    18    19     1    1
    19     1    20    2
    20     5    25    1
    21     5     4    1
    22     9    25    1
    23    25    10    1
    24     3     4    2
    25     3     2    1
    26    20     2    2
    27     2    21    1
