@<TRIPOS>MOLECULE
1ly3_NAP_A_1.pdb
 48 52 0 0 0
SMALL
GASTEIGER

@<TRIPOS>ATOM
      1  PA        15.6430    9.3810   23.2980 P.3   207  NAP207      0.2189
      2  O1A       15.5540    9.7270   21.8110 O.2   207  NAP207     -0.5170
      3  O2A       14.3940    9.0880   23.9420 O.3   207  NAP207     -0.4371
      4  O5B       16.3320   10.8270   23.8380 O.3   207  NAP207     -0.3112
      5  C5B       16.4070   10.9690   25.3130 C.3   207  NAP207      0.1813
      6  C4B       16.4130   12.5180   25.4650 C.3   207  NAP207      0.1820
      7  O4B       15.2720   12.9240   25.0910 O.3   207  NAP207     -0.3136
      8  C3B       16.4350   12.8050   27.0700 C.3   207  NAP207      0.2157
      9  O3B       17.9340   12.8250   27.3150 O.3   207  NAP207     -0.2175
     10  C2B       15.7390   14.1750   26.9900 C.3   207  NAP207      0.2314
     11  O2B       16.3660   15.2360   26.3620 O.3   207  NAP207     -0.2630
     12  C1B       14.5760   13.7490   26.0230 C.3   207  NAP207      0.3158
     13  N9A       13.4670   13.0220   26.6280 N.pl3 207  NAP207     -0.1439
     14  C8A       13.0790   11.7600   26.2520 C.3   207  NAP207      0.3377
     15  N7A       12.0860   11.3090   26.9530 N.2   207  NAP207     -0.2095
     16  C5A       11.8210   12.4490   27.8100 C.2   207  NAP207      0.2526
     17  C6A       10.7700   12.7480   28.9250 C.2   207  NAP207      0.4393
     18  N6A        9.8520   11.8140   29.2430 N.pl3 207  NAP207      0.2180
     19  N1A       10.8390   13.9290   29.5520 N.2   207  NAP207      0.0021
     20  C2A       11.8020   14.7590   29.1270 C.3   207  NAP207      0.5254
     21  N3A       12.7370   14.6140   28.2100 N.2   207  NAP207     -0.0055
     22  C4A       12.6840   13.4170   27.5960 C.2   207  NAP207      0.3518
     23  O3        16.9420    8.4950   23.4090 O.3   207  NAP207     -0.2703
     24  PN        17.4430    7.0240   23.7950 P.3   207  NAP207      0.2189
     25  O1N       16.6980    6.4260   24.8220 O.3   207  NAP207     -0.4371
     26  O2N       18.8700    7.0280   24.0840 O.2   207  NAP207     -0.5170
     27  O5D       17.2680    6.2330   22.4170 O.3   207  NAP207     -0.3112
     28  C5D       17.9700    6.6620   21.2850 C.3   207  NAP207      0.1813
     29  C4D       18.3070    5.3210   20.6430 C.3   207  NAP207      0.1799
     30  O4D       17.0170    4.7690   20.1040 O.3   207  NAP207     -0.3327
     31  C3D       19.2910    5.5760   19.4520 C.3   207  NAP207      0.2158
     32  O3D       20.1790    4.4380   19.4140 O.3   207  NAP207     -0.2175
     33  C2D       18.2720    5.6030   18.2650 C.3   207  NAP207      0.2309
     34  O2D       19.0420    5.0950   17.1950 O.3   207  NAP207     -0.2158
     35  C1D       17.2780    4.5370   18.6870 C.3   207  NAP207      0.2263
     36  N1N       15.8980    4.4860   18.0180 N.pl3 207  NAP207     -0.2787
     37  C2N       15.4260    3.3080   17.4100 C.3   207  NAP207      0.1244
     38  C3N       14.1870    3.3260   16.8620 C.2   207  NAP207      0.0544
     39  C7N       13.6940    2.0620   16.2380 C.2   207  NAP207      0.2818
     40  O7N       12.5920    2.2160   15.8240 O.2   207  NAP207     -0.2670
     41  N7N       14.5910    1.0140   16.2810 N.am  207  NAP207     -0.0839
     42  C4N       13.2630    4.5540   16.8020 C.2   207  NAP207      0.0033
     43  C5N       13.9580    5.7130   17.4400 C.2   207  NAP207      0.0157
     44  C6N       15.1480    5.6710   18.0020 C.2   207  NAP207      0.0633
     45  P2B       17.4940   16.2470   27.2490 P.3   207  NAP207      0.5328
     46  O1X       16.4520   16.8200   28.2170 O.3   207  NAP207     -0.1145
     47  O2X       17.9950   17.0710   26.1870 O.2   207  NAP207     -0.2224
     48  O3X       18.2660   15.3130   28.1060 O.3   207  NAP207     -0.1145
@<TRIPOS>BOND
     1    40    39    2
     2    39    41   am
     3    39    38    1
     4    42    38    2
     5    42    43    1
     6    38    37    1
     7    34    33    1
     8    37    36    1
     9    43    44    2
    10    44    36    1
    11    36    35    1
    12    33    35    1
    13    33    31    1
    14    35    30    1
    15    32    31    1
    16    31    29    1
    17    30    29    1
    18    29    28    1
    19    28    27    1
    20     2     1    2
    21    27    24    1
    22     1    23    1
    23     1     4    1
    24     1     3    1
    25    23    24    1
    26    24    26    2
    27    24    25    1
    28     4     5    1
    29     7     6    1
    30     7    12    1
    31     5     6    1
    32     6     8    1
    33    12    13    1
    34    12    10    1
    35    47    45    2
    36    14    13    1
    37    14    15    1
    38    11    10    1
    39    11    45    1
    40    13    22    1
    41    15    16    2
    42    10     8    1
    43     8     9    1
    44    45    48    1
    45    45    46    1
    46    22    16    1
    47    22    21    2
    48    16    17    1
    49    21    20    1
    50    17    18    1
    51    17    19    2
    52    20    19    1
