@<TRIPOS>MOLECULE
1ly4_COQ_A_1.pdb
 25 27 0 0 0
SMALL
GASTEIGER

@<TRIPOS>ATOM
      1  C2B       10.7930    2.3140   11.9000 C.1   307  COQ307      0.2511
      2  C4B       11.2190    3.9580   13.6030 C.2   307  COQ307      0.2288
      3  C4A       12.4520    4.2740   12.9910 C.3   307  COQ307      0.1912
      4  C5B       13.3450    5.2540   13.5220 C.2   307  COQ307      0.0101
      5  C6B       14.5800    5.5040   12.8850 C.2   307  COQ307      0.0480
      6  C7'       14.8410    4.7760   11.6990 C.3   307  COQ307      0.1774
      7  C8A       12.8120    3.5430   11.8410 C.1   307  COQ307      0.0847
      8  C9'       15.1940    7.7850   12.7160 C.3   307  COQ307      0.1178
      9  C1'       15.6310    7.8760   11.2420 C.ar  307  COQ307      0.0036
     10  C2'       16.8980    7.5120   10.7470 C.ar  307  COQ307      0.0345
     11  C3'       17.1650    7.6540    9.3670 C.ar  307  COQ307      0.1415
     12  C4'       16.2380    8.2120    8.4780 C.ar  307  COQ307      0.0737
     13  C5'       15.0510    8.6790    8.9970 C.ar  307  COQ307      0.1415
     14  C6'       14.7240    8.4830   10.3270 C.ar  307  COQ307      0.0345
     15  C31       18.7250    6.0680    8.1950 C.3   307  COQ307      0.2525
     16  C51       14.8760    9.3610    6.8050 C.3   307  COQ307      0.2525
     17  CN'       16.5360    6.3390   14.2900 C.3   307  COQ307      0.1122
     18  N1'       12.0010    2.5690   11.3420 N.2   307  COQ307     -0.2748
     19  N2'        9.8760    1.3830   11.5410 N.pl3 307  COQ307     -0.0226
     20  N3'       10.4740    2.9910   13.0210 N.2   307  COQ307     -0.3099
     21  N4'       10.6630    4.4600   14.7380 N.pl3 307  COQ307     -0.0955
     22  N8'       13.9930    3.7970   11.1910 N.2   307  COQ307     -0.2063
     23  N9'       15.4340    6.4870   13.3420 N.pl3 307  COQ307     -0.3038
     24  O3'       18.4090    7.3230    8.7970 O.3   307  COQ307     -0.4713
     25  O5'       14.1360    9.2120    8.0630 O.3   307  COQ307     -0.4713
@<TRIPOS>BOND
     1    16    25    1
     2    25    13    1
     3    15    24    1
     4    12    13   ar
     5    12    11   ar
     6    24    11    1
     7    13    14   ar
     8    11    10   ar
     9    14     9   ar
    10    10     9   ar
    11    22     6    1
    12    22     7    2
    13     9     8    1
    14    18     7    2
    15    18     1    2
    16    19     1    1
    17     6     5    1
    18     7     3    1
    19     1    20    2
    20     8    23    1
    21     5    23    1
    22     5     4    2
    23     3     4    1
    24     3     2    1
    25    20     2    2
    26    23    17    1
    27     2    21    1
