@<TRIPOS>MOLECULE
1ly4_NAP_A_1.pdb
 48 52 0 0 0
SMALL
GASTEIGER

@<TRIPOS>ATOM
      1  PA        15.8820    9.2930   23.0350 P.3   207  NAP207      0.2189
      2  O1A       15.9860    9.2530   21.5220 O.2   207  NAP207     -0.5170
      3  O2A       14.7540    9.1440   23.9020 O.3   207  NAP207     -0.4371
      4  O5B       16.6770   10.7530   23.4710 O.3   207  NAP207     -0.3112
      5  C5B       16.7080   10.8040   24.9620 C.3   207  NAP207      0.1813
      6  C4B       16.5250   12.2650   25.3770 C.3   207  NAP207      0.1820
      7  O4B       15.4370   12.7510   24.9930 O.3   207  NAP207     -0.3136
      8  C3B       16.3330   12.1540   27.0130 C.3   207  NAP207      0.2157
      9  O3B       17.8120   12.0390   27.3200 O.3   207  NAP207     -0.2175
     10  C2B       15.6700   13.5290   27.1290 C.3   207  NAP207      0.2314
     11  O2B       16.4000   14.5930   26.5850 O.3   207  NAP207     -0.2630
     12  C1B       14.5950   13.3090   26.0070 C.3   207  NAP207      0.3158
     13  N9A       13.4890   12.5340   26.5240 N.pl3 207  NAP207     -0.1439
     14  C8A       13.1470   11.2710   26.1970 C.3   207  NAP207      0.3377
     15  N7A       12.1080   10.8370   26.8720 N.2   207  NAP207     -0.2095
     16  C5A       11.8180   12.0000   27.7190 C.2   207  NAP207      0.2526
     17  C6A       10.7550   12.3470   28.7980 C.2   207  NAP207      0.4393
     18  N6A        9.8340   11.4670   29.2160 N.pl3 207  NAP207      0.2180
     19  N1A       10.7670   13.5660   29.3750 N.2   207  NAP207      0.0021
     20  C2A       11.7550   14.3630   28.9570 C.3   207  NAP207      0.5254
     21  N3A       12.7040   14.1730   28.0620 N.2   207  NAP207     -0.0055
     22  C4A       12.6820   12.9540   27.4760 C.2   207  NAP207      0.3518
     23  O3        17.0980    8.3270   23.3500 O.3   207  NAP207     -0.2703
     24  PN        17.4500    6.8110   23.6590 P.3   207  NAP207      0.2189
     25  O1N       16.5130    6.1060   24.4600 O.3   207  NAP207     -0.4371
     26  O2N       18.8350    6.8840   24.1600 O.2   207  NAP207     -0.5170
     27  O5D       17.5470    6.0440   22.2200 O.3   207  NAP207     -0.3112
     28  C5D       18.3330    6.5730   21.1420 C.3   207  NAP207      0.1813
     29  C4D       18.7510    5.3080   20.4220 C.3   207  NAP207      0.1799
     30  O4D       17.4890    4.5140   20.1820 O.3   207  NAP207     -0.3327
     31  C3D       19.4580    5.4500   19.0200 C.3   207  NAP207      0.2158
     32  O3D       20.0550    4.1080   18.7190 O.3   207  NAP207     -0.2175
     33  C2D       18.1320    5.6900   18.2250 C.3   207  NAP207      0.2309
     34  O2D       18.3950    5.6550   16.8850 O.3   207  NAP207     -0.2158
     35  C1D       17.4200    4.4130   18.7030 C.3   207  NAP207      0.2263
     36  N1N       15.9550    4.0990   18.3380 N.pl3 207  NAP207     -0.2787
     37  C2N       15.5660    2.9570   17.5780 C.3   207  NAP207      0.1244
     38  C3N       14.4540    3.0390   16.8620 C.2   207  NAP207      0.0544
     39  C7N       13.9880    1.8570   16.0550 C.2   207  NAP207      0.2818
     40  O7N       12.9390    2.0680   15.4890 O.2   207  NAP207     -0.2670
     41  N7N       14.7200    0.7380   16.0690 N.am  207  NAP207     -0.0839
     42  C4N       13.5400    4.2950   16.7510 C.2   207  NAP207      0.0033
     43  C5N       14.0480    5.4110   17.5960 C.2   207  NAP207      0.0157
     44  C6N       15.1430    5.2520   18.3460 C.2   207  NAP207      0.0633
     45  P2B       17.4470   15.8340   27.1900 P.3   207  NAP207      0.5328
     46  O1X       16.6130   16.2760   28.4000 O.3   207  NAP207     -0.1145
     47  O2X       17.5010   16.7840   26.0700 O.2   207  NAP207     -0.2224
     48  O3X       18.6520   15.0340   27.5860 O.3   207  NAP207     -0.1145
@<TRIPOS>BOND
     1    40    39    2
     2    39    41   am
     3    39    38    1
     4    42    38    2
     5    42    43    1
     6    38    37    1
     7    34    33    1
     8    37    36    1
     9    43    44    2
    10    33    35    1
    11    33    31    1
    12    36    44    1
    13    36    35    1
    14    35    30    1
    15    32    31    1
    16    31    29    1
    17    30    29    1
    18    29    28    1
    19    28    27    1
    20     2     1    2
    21    27    24    1
    22     1    23    1
    23     1     4    1
    24     1     3    1
    25    23    24    1
    26     4     5    1
    27    24    26    2
    28    24    25    1
    29     5     6    1
    30     7     6    1
    31     7    12    1
    32     6     8    1
    33    12    13    1
    34    12    10    1
    35    47    45    2
    36    14    13    1
    37    14    15    1
    38    13    22    1
    39    11    10    1
    40    11    45    1
    41    15    16    2
    42     8    10    1
    43     8     9    1
    44    45    48    1
    45    45    46    1
    46    22    16    1
    47    22    21    2
    48    16    17    1
    49    21    20    1
    50    17    18    1
    51    17    19    2
    52    20    19    1
