@<TRIPOS>MOLECULE
1ly8_BMA_A_1.pdb
 11 11 0 0 0
SMALL
GASTEIGER

@<TRIPOS>ATOM
      1  C1         3.6920    3.2430   15.0810 C.3   600  BMA600      0.1777
      2  C2         5.0070    2.4840   14.9950 C.3   600  BMA600      0.2141
      3  C3         4.7590    1.2180   14.1830 C.3   600  BMA600      0.2173
      4  C4         3.6080    0.3920   14.7940 C.3   600  BMA600      0.2142
      5  C5         2.3700    1.2630   15.1170 C.3   600  BMA600      0.1810
      6  C6         1.3690    0.5370   15.9950 C.3   600  BMA600      0.2141
      7  O2         5.4410    2.1410   16.3060 O.3   600  BMA600     -0.2176
      8  O3         5.9460    0.4370   14.1390 O.3   600  BMA600     -0.2175
      9  O4         3.2290   -0.6240   13.8750 O.3   600  BMA600     -0.2176
     10  O5         2.7500    2.4680   15.8230 O.3   600  BMA600     -0.3481
     11  O6         1.7570    0.5840   17.3620 O.3   600  BMA600     -0.2176
@<TRIPOS>BOND
     1     9     4    1
     2     8     3    1
     3     3     4    1
     4     3     2    1
     5     4     5    1
     6     2     1    1
     7     2     7    1
     8     1    10    1
     9     5    10    1
    10     5     6    1
    11     6    11    1
