@<TRIPOS>MOLECULE
1ly8_HEM_A_1.pdb
 43 50 0 0 0
SMALL
GASTEIGER

@<TRIPOS>ATOM
      1  CHA       -1.3620   28.6200    0.1220 C.2   344  HEM344      0.0000
      2  CHB        1.9650   28.1350   -3.1150 C.2   344  HEM344      0.0000
      3  CHC        5.0830   29.8690   -0.0540 C.2   344  HEM344      0.0000
      4  CHD        1.5920   30.9440    3.0240 C.2   344  HEM344      0.0000
      5  C1A       -0.7810   28.3470   -1.1110 C.ar  344  HEM344      0.0000
      6  C2A       -1.4650   27.9300   -2.3320 C.ar  344  HEM344      0.0000
      7  C3A       -0.4240   27.8210   -3.3650 C.ar  344  HEM344      0.0000
      8  C4A        0.7310   28.1570   -2.6820 C.ar  344  HEM344      0.0000
      9  CMA       -0.6700   27.3110   -4.9090 C.3   344  HEM344      0.0000
     10  CAA       -3.0270   27.6400   -2.5010 C.3   344  HEM344      0.0000
     11  CBA       -3.7380   29.0240   -2.8180 C.3   344  HEM344      0.0000
     12  CGA       -5.3060   28.5200   -3.0100 C.2   344  HEM344      0.0000
     13  O1A       -5.5990   27.8670   -4.0390 O.co2 344  HEM344      0.0000
     14  O2A       -6.2230   28.9500   -2.1360 O.co2 344  HEM344      0.0000
     15  C1B        3.2380   28.4610   -2.5940 C.2   344  HEM344      0.0000
     16  C2B        4.4530   28.2960   -3.2950 C.2   344  HEM344      0.0000
     17  C3B        5.4710   28.7550   -2.3130 C.2   344  HEM344      0.0000
     18  C4B        4.6490   29.2520   -1.1720 C.2   344  HEM344      0.0000
     19  CMB        4.6760   27.6720   -4.8830 C.3   344  HEM344      0.0000
     20  CAB        6.8130   28.5530   -2.7330 C.2   344  HEM344      0.0000
     21  CBB        7.8480   28.4350   -2.3990 C.2   344  HEM344      0.0000
     22  C1C        4.4700   30.4400    1.0860 C.ar  344  HEM344      0.0000
     23  C2C        5.2190   31.4420    2.1140 C.ar  344  HEM344      0.0000
     24  C3C        4.1410   31.8210    2.9780 C.ar  344  HEM344      0.0000
     25  C4C        2.8820   31.0080    2.4290 C.ar  344  HEM344      0.0000
     26  CMC        6.7380   31.8580    1.9890 C.3   344  HEM344      0.0000
     27  CAC        4.1030   32.7790    4.0940 C.3   344  HEM344      0.0000
     28  CBC        5.0880   33.0450    5.1570 C.3   344  HEM344      0.0000
     29  C1D        0.3910   30.2910    2.6810 C.2   344  HEM344      0.0000
     30  C2D       -0.8240   30.1650    3.4920 C.2   344  HEM344      0.0000
     31  C3D       -1.7670   29.4360    2.5520 C.2   344  HEM344      0.0000
     32  C4D       -0.9620   29.2120    1.3280 C.2   344  HEM344      0.0000
     33  CMD       -1.0700   30.5810    5.0150 C.3   344  HEM344      0.0000
     34  CAD       -3.0800   29.0160    2.8380 C.3   344  HEM344      0.0000
     35  CBD       -4.2360   29.8490    2.2460 C.3   344  HEM344      0.0000
     36  CGD       -5.5950   29.3990    2.7190 C.2   344  HEM344      0.0000
     37  O1D       -6.4110   30.1200    2.3790 O.co2 344  HEM344      0.0000
     38  O2D       -5.8090   28.4800    3.6000 O.co2 344  HEM344      0.0000
     39  NA         0.4440   28.5150   -1.2560 N.ar  344  HEM344      0.0000
     40  NB         3.3760   28.9780   -1.3180 N.2   344  HEM344      0.0000
     41  NC         3.1530   30.2370    1.3060 N.ar  344  HEM344      0.0000
     42  ND         0.2700   29.6310    1.4230 N.2   344  HEM344      0.0000
     43 FE          1.8860   29.1990    0.0720 Fe    344  HEM344      0.0000
@<TRIPOS>BOND
     1     9     7    1
     2    19    16    1
     3    13    12   ar
     4     7     8   ar
     5     7     6   ar
     6    16    15    1
     7    16    17    2
     8     2     8    2
     9     2    15    1
    10    12    11    1
    11    12    14   ar
    12    11    10    1
    13    20    21    2
    14    20    17    1
    15     8    39   ar
    16    15    40    2
    17    10     6    1
    18     6     5   ar
    19    17    18    1
    20    40    18    1
    21    40    43    1
    22    39     5   ar
    23    39    43    1
    24    18     3    2
    25     5     1    2
    26     3    22    1
    27    43    41    1
    28    43    42    1
    29     1    32    1
    30    22    41   ar
    31    22    23   ar
    32    41    25   ar
    33    32    42    2
    34    32    31    1
    35    42    29    1
    36    26    23    1
    37    23    24   ar
    38    35    36    1
    39    35    34    1
    40    37    36   ar
    41    25    24   ar
    42    25     4    1
    43    31    34    1
    44    31    30    2
    45    29     4    2
    46    29    30    1
    47    36    38   ar
    48    24    27    1
    49    30    33    1
    50    27    28    1
