@<TRIPOS>MOLECULE
1ly8_MAN_A_1.pdb
 11 11 0 0 0
SMALL
GASTEIGER

@<TRIPOS>ATOM
      1  C1       -13.2470   11.8270    5.0920 C.3   700  MAN700      0.1777
      2  C2       -13.2170   12.2310    3.6160 C.3   700  MAN700      0.2141
      3  C3       -12.7590   13.6820    3.4980 C.3   700  MAN700      0.2173
      4  C4       -13.6750   14.5810    4.3220 C.3   700  MAN700      0.2142
      5  C5       -13.7570   14.0830    5.7700 C.3   700  MAN700      0.1810
      6  C6       -14.7940   14.8630    6.5600 C.3   700  MAN700      0.2141
      7  O2       -14.5180   12.0970    3.0650 O.3   700  MAN700     -0.2176
      8  O3       -12.7930   14.0900    2.1390 O.3   700  MAN700     -0.2175
      9  O4       -13.1810   15.9120    4.3040 O.3   700  MAN700     -0.2176
     10  O5       -14.1490   12.6880    5.8100 O.3   700  MAN700     -0.3481
     11  O6       -14.8710   14.4090    7.9010 O.3   700  MAN700     -0.2176
@<TRIPOS>BOND
     1     8     3    1
     2     7     2    1
     3     3     2    1
     4     3     4    1
     5     2     1    1
     6     9     4    1
     7     4     5    1
     8     1    10    1
     9     5    10    1
    10     5     6    1
    11     6    11    1
