@<TRIPOS>MOLECULE
1ly9_HEM_A_1.pdb
 43 50 0 0 0
SMALL
GASTEIGER

@<TRIPOS>ATOM
      1 FE          5.2750    5.5060   15.4320 Fe    344  HEM344      0.0000
      2  CHA        4.3650    5.2620   18.4400 C.2   344  HEM344      0.0000
      3  CHB        5.9520    8.9290   15.9270 C.2   344  HEM344      0.0000
      4  CHC        5.9500    5.9210   12.3130 C.2   344  HEM344      0.0000
      5  CHD        5.1990    2.2220   15.0160 C.2   344  HEM344      0.0000
      6  NA         5.2500    6.8210   16.9950 N.2   344  HEM344      0.0000
      7  C1A        4.8250    6.4710   18.2140 C.2   344  HEM344      0.0000
      8  C2A        5.0490    7.6030   19.1720 C.2   344  HEM344      0.0000
      9  C3A        5.6090    8.6310   18.5070 C.2   344  HEM344      0.0000
     10  C4A        5.6470    8.1480   17.0150 C.2   344  HEM344      0.0000
     11  CMA        6.2340   10.0280   19.0040 C.3   344  HEM344      0.0000
     12  CAA        4.6790    7.6060   20.7140 C.3   344  HEM344      0.0000
     13  CBA        5.9300    6.9310   21.4370 C.3   344  HEM344      0.0000
     14  CGA        5.6330    6.9630   23.0100 C.2   344  HEM344      0.0000
     15  O1A        5.3980    8.1450   23.5100 O.co2 344  HEM344      0.0000
     16  O2A        5.5250    5.8530   23.5170 O.co2 344  HEM344      0.0000
     17  NB         5.7820    7.1660   14.2710 N.ar  344  HEM344      0.0000
     18  C1B        5.9900    8.5620   14.5800 C.ar  344  HEM344      0.0000
     19  C2B        6.2960    9.3630   13.4180 C.ar  344  HEM344      0.0000
     20  C3B        6.2970    8.4830   12.2550 C.ar  344  HEM344      0.0000
     21  C4B        6.0080    7.1780   12.8840 C.ar  344  HEM344      0.0000
     22  CMB        6.6420   11.0170   13.4600 C.3   344  HEM344      0.0000
     23  CAB        6.6120    9.0590   10.7130 C.3   344  HEM344      0.0000
     24  CBB        6.9010    8.1400    9.3730 C.3   344  HEM344      0.0000
     25  NC         5.5920    4.2850   13.8640 N.2   344  HEM344      0.0000
     26  C1C        5.9040    4.5950   12.6800 C.2   344  HEM344      0.0000
     27  C2C        6.3090    3.4390   11.7800 C.2   344  HEM344      0.0000
     28  C3C        6.1670    2.3080   12.5490 C.2   344  HEM344      0.0000
     29  C4C        5.6760    2.9350   13.9260 C.2   344  HEM344      0.0000
     30  CMC        6.9090    3.5480   10.1900 C.3   344  HEM344      0.0000
     31  CAC        6.4340    0.8790   12.2700 C.3   344  HEM344      0.0000
     32  CBC        6.1890    0.0370   11.0610 C.3   344  HEM344      0.0000
     33  ND         4.7410    4.0140   16.5460 N.ar  344  HEM344      0.0000
     34  C1D        4.6510    2.6960   16.2300 C.ar  344  HEM344      0.0000
     35  C2D        3.9550    1.9200   17.2760 C.ar  344  HEM344      0.0000
     36  C3D        3.7940    2.7970   18.2710 C.ar  344  HEM344      0.0000
     37  C4D        4.2460    4.0590   17.8510 C.ar  344  HEM344      0.0000
     38  CMD        3.5080    0.3200   17.1380 C.3   344  HEM344      0.0000
     39  CAD        3.1900    2.4090   19.6920 C.3   344  HEM344      0.0000
     40  CBD        4.2040    2.1060   20.7150 C.3   344  HEM344      0.0000
     41  CGD        3.4260    1.7850   22.2070 C.2   344  HEM344      0.0000
     42  O1D        4.2310    1.5810   22.9930 O.co2 344  HEM344      0.0000
     43  O2D        2.2380    1.6620   22.3200 O.co2 344  HEM344      0.0000
@<TRIPOS>BOND
     1    24    23    1
     2    30    27    1
     3    23    20    1
     4    32    31    1
     5    27    28    2
     6    27    26    1
     7    20    21   ar
     8    20    19   ar
     9    31    28    1
    10     4    26    2
    11     4    21    1
    12    28    29    1
    13    26    25    1
    14    21    17   ar
    15    19    22    1
    16    19    18   ar
    17    25    29    2
    18    25     1    1
    19    29     5    1
    20    17    18   ar
    21    17     1    1
    22    18     3    1
    23     5    34    2
    24     1    33    1
    25     1     6    1
    26     3    10    2
    27    34    33   ar
    28    34    35   ar
    29    33    37   ar
    30     6    10    1
    31     6     7    2
    32    10     9    1
    33    38    35    1
    34    35    36   ar
    35    37    36   ar
    36    37     2    2
    37     7     2    1
    38     7     8    1
    39    36    39    1
    40     9    11    1
    41     9     8    2
    42     8    12    1
    43    39    40    1
    44    12    13    1
    45    40    41    1
    46    13    14    1
    47    41    43   ar
    48    41    42   ar
    49    14    15   ar
    50    14    16   ar
