@<TRIPOS>MOLECULE
1lyc_HEM_A_1.pdb
 43 50 0 0 0
SMALL
GASTEIGER

@<TRIPOS>ATOM
      1 FE          5.2750    5.6410   15.6540 Fe    344  HEM344      0.0000
      2  CHA        4.3100    5.2850   19.0440 C.2   344  HEM344      0.0000
      3  CHB        6.0500    8.6920   16.2000 C.2   344  HEM344      0.0000
      4  CHC        6.2330    6.0200   12.2450 C.2   344  HEM344      0.0000
      5  CHD        5.2130    2.1670   15.2590 C.2   344  HEM344      0.0000
      6  NA         5.2630    6.8560   17.3370 N.2   344  HEM344      0.0000
      7  C1A        4.8120    6.5640   18.8030 C.2   344  HEM344      0.0000
      8  C2A        5.1260    7.5850   19.6010 C.2   344  HEM344      0.0000
      9  C3A        5.7280    8.5370   18.8100 C.2   344  HEM344      0.0000
     10  C4A        5.7010    7.9380   17.3290 C.2   344  HEM344      0.0000
     11  CMA        6.2840   10.1070   19.2360 C.3   344  HEM344      0.0000
     12  CAA        4.8970    7.7390   21.0930 C.3   344  HEM344      0.0000
     13  CBA        5.9900    6.9070   22.0220 C.3   344  HEM344      0.0000
     14  CGA        5.7380    7.1200   23.4260 C.2   344  HEM344      0.0000
     15  O1A        5.5440    8.2960   23.9330 O.co2 344  HEM344      0.0000
     16  O2A        5.4540    5.9460   23.9360 O.co2 344  HEM344      0.0000
     17  NB         5.9740    7.2910   14.4360 N.ar  344  HEM344      0.0000
     18  C1B        6.1510    8.4550   14.8790 C.ar  344  HEM344      0.0000
     19  C2B        6.4760    9.4590   13.7780 C.ar  344  HEM344      0.0000
     20  C3B        6.5020    8.5920   12.5280 C.ar  344  HEM344      0.0000
     21  C4B        6.2810    7.3120   12.9210 C.ar  344  HEM344      0.0000
     22  CMB        6.6640   10.9100   13.8320 C.3   344  HEM344      0.0000
     23  CAB        6.7370    9.2400   10.8910 C.3   344  HEM344      0.0000
     24  CBB        6.7930    8.5000    9.6730 C.3   344  HEM344      0.0000
     25  NC         5.6630    4.3760   13.9900 N.2   344  HEM344      0.0000
     26  C1C        6.1270    4.7820   12.5750 C.2   344  HEM344      0.0000
     27  C2C        6.5110    3.5200   11.7930 C.2   344  HEM344      0.0000
     28  C3C        6.3360    2.1980   12.7140 C.2   344  HEM344      0.0000
     29  C4C        5.7390    2.9000   14.1080 C.2   344  HEM344      0.0000
     30  CMC        6.9820    3.6520   10.2290 C.3   344  HEM344      0.0000
     31  CAC        6.5570    0.8480   12.4100 C.3   344  HEM344      0.0000
     32  CBC        6.2020    0.2130   11.0680 C.3   344  HEM344      0.0000
     33  ND         4.7850    4.0250   16.9150 N.ar  344  HEM344      0.0000
     34  C1D        4.7520    2.6950   16.4500 C.ar  344  HEM344      0.0000
     35  C2D        4.0870    1.8200   17.5040 C.ar  344  HEM344      0.0000
     36  C3D        3.9510    2.7590   18.6820 C.ar  344  HEM344      0.0000
     37  C4D        4.3330    4.0080   18.2390 C.ar  344  HEM344      0.0000
     38  CMD        3.5920    0.2760   17.4140 C.3   344  HEM344      0.0000
     39  CAD        3.3800    2.3090   20.0390 C.2   344  HEM344      0.0000
     40  CBD        4.1420    2.1790   21.0540 C.2   344  HEM344      0.0000
     41  CGD        3.4590    1.7750   22.5330 C.2   344  HEM344      0.0000
     42  O1D        4.2790    1.7880   23.5020 O.co2 344  HEM344      0.0000
     43  O2D        2.1210    1.5450   22.6050 O.co2 344  HEM344      0.0000
@<TRIPOS>BOND
     1    24    23    1
     2    30    27    1
     3    23    20    1
     4    32    31    1
     5    27    26    1
     6    27    28    2
     7     4    26    2
     8     4    21    1
     9    31    28    1
    10    20    21   ar
    11    20    19   ar
    12    26    25    1
    13    28    29    1
    14    21    17   ar
    15    19    22    1
    16    19    18   ar
    17    25    29    2
    18    25     1    1
    19    29     5    1
    20    17    18   ar
    21    17     1    1
    22    18     3    1
    23     5    34    2
    24     1    33    1
    25     1     6    1
    26     3    10    2
    27    34    33   ar
    28    34    35   ar
    29    33    37   ar
    30    10     6    1
    31    10     9    1
    32     6     7    2
    33    38    35    1
    34    35    36   ar
    35    37    36   ar
    36    37     2    2
    37    36    39    1
    38     7     2    1
    39     7     8    1
    40     9    11    1
    41     9     8    2
    42     8    12    1
    43    39    40    2
    44    40    41    1
    45    12    13    1
    46    13    14    1
    47    41    43   ar
    48    41    42   ar
    49    14    15   ar
    50    14    16   ar
