@<TRIPOS>MOLECULE
1lyk_HEM_A_1.pdb
 43 50 0 0 0
SMALL
GASTEIGER

@<TRIPOS>ATOM
      1  CHA       13.5970    6.2770    8.4480 C.2   344  HEM344      0.0000
      2  CHB       17.0330    9.1960   10.2810 C.2   344  HEM344      0.0000
      3  CHC       20.2290    5.5870   10.0830 C.2   344  HEM344      0.0000
      4  CHD       16.5850    2.5060    9.1450 C.2   344  HEM344      0.0000
      5  C1A       14.2600    7.3850    8.9770 C.2   344  HEM344      0.0000
      6  C2A       13.6380    8.6150    9.3190 C.2   344  HEM344      0.0000
      7  C3A       14.5220    9.3720    9.9040 C.2   344  HEM344      0.0000
      8  C4A       15.7750    8.6540    9.8730 C.2   344  HEM344      0.0000
      9  CMA       14.2220   10.7490   10.4820 C.3   344  HEM344      0.0000
     10  CAA       12.2210    9.0610    9.0080 C.3   344  HEM344      0.0000
     11  CBA       11.2830    8.4380   10.0140 C.3   344  HEM344      0.0000
     12  CGA        9.8810    8.9170    9.8390 C.2   344  HEM344      0.0000
     13  O1A        9.6740   10.1430    9.8050 O.co2 344  HEM344      0.0000
     14  O2A        8.9690    8.0750    9.7260 O.co2 344  HEM344      0.0000
     15  C1B       18.2660    8.5190   10.2910 C.ar  344  HEM344      0.0000
     16  C2B       19.5690    9.0720   10.5850 C.ar  344  HEM344      0.0000
     17  C3B       20.4450    8.0150   10.5220 C.ar  344  HEM344      0.0000
     18  C4B       19.7040    6.8570   10.1500 C.ar  344  HEM344      0.0000
     19  CMB       19.9150   10.5270   10.9140 C.3   344  HEM344      0.0000
     20  CAB       21.8200    7.9800   10.8470 C.3   344  HEM344      0.0000
     21  CBB       22.8040    8.7530   10.1720 C.3   344  HEM344      0.0000
     22  C1C       19.5220    4.4000    9.8180 C.2   344  HEM344      0.0000
     23  C2C       20.0540    3.0720   10.1470 C.2   344  HEM344      0.0000
     24  C3C       18.9760    2.2100   10.0310 C.2   344  HEM344      0.0000
     25  C4C       17.8550    3.0080    9.4780 C.2   344  HEM344      0.0000
     26  CMC       21.5190    2.7690   10.4760 C.3   344  HEM344      0.0000
     27  CAC       18.8970    0.8580   10.4260 C.3   344  HEM344      0.0000
     28  CBC       19.9150   -0.1620   10.1400 C.3   344  HEM344      0.0000
     29  C1D       15.4500    3.2570    8.8080 C.ar  344  HEM344      0.0000
     30  C2D       14.2560    2.7410    8.1150 C.ar  344  HEM344      0.0000
     31  C3D       13.4630    3.8060    7.9190 C.ar  344  HEM344      0.0000
     32  C4D       14.1400    4.9870    8.3960 C.ar  344  HEM344      0.0000
     33  CMD       14.0460    1.3910    7.4460 C.3   344  HEM344      0.0000
     34  CAD       12.1150    3.7390    7.2860 C.3   344  HEM344      0.0000
     35  CBD       11.0040    3.7200    8.3010 C.3   344  HEM344      0.0000
     36  CGD        9.6340    3.5910    7.6670 C.2   344  HEM344      0.0000
     37  O1D        8.6380    3.4970    8.4090 O.co2 344  HEM344      0.0000
     38  O2D        9.5470    3.5820    6.4230 O.co2 344  HEM344      0.0000
     39  NA        15.5760    7.4140    9.3200 N.2   344  HEM344      0.0000
     40  NB        18.3660    7.1710    9.9800 N.ar  344  HEM344      0.0000
     41  NC        18.2170    4.3260    9.3960 N.2   344  HEM344      0.0000
     42  ND        15.3780    4.6470    8.9260 N.ar  344  HEM344      0.0000
     43 FE         16.8890    5.9670    9.4270 Fe    344  HEM344      0.0000
@<TRIPOS>BOND
     1    38    36   ar
     2    34    31    1
     3    34    35    1
     4    33    30    1
     5    36    35    1
     6    36    37   ar
     7    31    30   ar
     8    31    32   ar
     9    30    29   ar
    10    32     1    2
    11    32    42   ar
    12     1     5    1
    13    29    42   ar
    14    29     4    2
    15    42    43    1
    16     5     6    1
    17     5    39    2
    18    10     6    1
    19    10    11    1
    20     4    25    1
    21     6     7    2
    22    39    43    1
    23    39     8    1
    24    41    43    1
    25    41    25    2
    26    41    22    1
    27    43    40    1
    28    25    24    1
    29    14    12   ar
    30    13    12   ar
    31    22     3    2
    32    22    23    1
    33    12    11    1
    34     8     7    1
    35     8     2    2
    36     7     9    1
    37    40    18   ar
    38    40    15   ar
    39    24    23    2
    40    24    27    1
    41     3    18    1
    42    28    27    1
    43    23    26    1
    44    18    17   ar
    45    21    20    1
    46     2    15    1
    47    15    16   ar
    48    17    16   ar
    49    17    20    1
    50    16    19    1
