@<TRIPOS>MOLECULE
1lyk_BMA_A_1.pdb
 11 11 0 0 0
SMALL
GASTEIGER

@<TRIPOS>ATOM
      1  C1         3.9390   11.0290   -8.4410 C.3   600  BMA600      0.1777
      2  C2         3.5410   12.1140   -7.4570 C.3   600  BMA600      0.2141
      3  C3         3.3550   11.3220   -6.1900 C.3   600  BMA600      0.2173
      4  C4         2.2760   10.1970   -6.4570 C.3   600  BMA600      0.2142
      5  C5         2.5250    9.3250   -7.7820 C.3   600  BMA600      0.1810
      6  C6         1.5470    8.2780   -8.3280 C.3   600  BMA600      0.2141
      7  O2         2.3680   12.8030   -7.8690 O.3   600  BMA600     -0.2176
      8  O3         2.9920   12.1530   -5.1290 O.3   600  BMA600     -0.2175
      9  O4         2.3370    9.3460   -5.3640 O.3   600  BMA600     -0.2176
     10  O5         2.7710   10.2740   -8.8270 O.3   600  BMA600     -0.3481
     11  O6         1.9870    7.6260   -9.5400 O.3   600  BMA600     -0.2176
@<TRIPOS>BOND
     1    11     6    1
     2    10     1    1
     3    10     5    1
     4     1     2    1
     5     6     5    1
     6     7     2    1
     7     5     4    1
     8     2     3    1
     9     4     3    1
    10     4     9    1
    11     3     8    1
