@<TRIPOS>MOLECULE
1lyk_MAN_B_1.pdb
 11 11 0 0 0
SMALL
GASTEIGER

@<TRIPOS>ATOM
      1  C1        73.0610   22.9620   29.1430 C.3   600  MAN600      0.1777
      2  C2        73.0910   22.2250   30.5370 C.3   600  MAN600      0.2141
      3  C3        72.6810   23.0760   31.7560 C.3   600  MAN600      0.2173
      4  C4        73.5770   24.3130   31.8360 C.3   600  MAN600      0.2142
      5  C5        73.3650   25.1420   30.5260 C.3   600  MAN600      0.1810
      6  C6        74.2780   26.3710   30.3970 C.3   600  MAN600      0.2141
      7  O2        74.3810   21.7600   30.8610 O.3   600  MAN600     -0.2176
      8  O3        72.8440   22.2660   32.9260 O.3   600  MAN600     -0.2175
      9  O4        73.2570   25.0650   33.0090 O.3   600  MAN600     -0.2176
     10  O5        73.6210   24.3300   29.3390 O.3   600  MAN600     -0.3481
     11  O6        73.9620   27.2040   29.2500 O.3   600  MAN600     -0.2176
@<TRIPOS>BOND
     1     1    10    1
     2     1     2    1
     3    11     6    1
     4    10     5    1
     5     6     5    1
     6     5     4    1
     7     2     7    1
     8     2     3    1
     9     3     4    1
    10     3     8    1
    11     4     9    1
