@<TRIPOS>MOLECULE
1lzb_NAG_A_1.pdb
 15 15 0 0 0
SMALL
GASTEIGER

@<TRIPOS>ATOM
      1  C1         0.7460   27.0990   34.6730 C.3   130  NAG130      0.2917
      2  C2         0.2880   26.4540   35.9550 C.3   130  NAG130      0.1871
      3  C3        -1.0720   26.9770   36.3420 C.3   130  NAG130      0.2095
      4  C4        -1.1510   28.4770   36.3210 C.3   130  NAG130      0.2136
      5  C5        -0.5230   29.1110   35.0700 C.3   130  NAG130      0.1835
      6  C6        -0.2440   30.6020   35.2570 C.3   130  NAG130      0.2142
      7  C7         0.8900   24.1750   36.5030 C.2   130  NAG130      0.2421
      8  C8         0.6350   22.7220   36.1860 C.3   130  NAG130      0.0964
      9  N2         0.1620   25.0020   35.7630 N.am  130  NAG130     -0.1991
     10  O1         2.0490   26.6640   34.4280 O.3   130  NAG130     -0.1879
     11  O3        -1.3750   26.4760   37.6620 O.3   130  NAG130     -0.2183
     12  O4        -2.5120   28.9010   36.3690 O.3   130  NAG130     -0.2176
     13  O5         0.7440   28.4940   34.7750 O.3   130  NAG130     -0.3242
     14  O6         0.4480   31.1240   34.1110 O.3   130  NAG130     -0.2176
     15  O7         1.7000   24.5330   37.3490 O.2   130  NAG130     -0.2733
@<TRIPOS>BOND
     1    14     6    1
     2    10     1    1
     3     1    13    1
     4     1     2    1
     5    13     5    1
     6     5     6    1
     7     5     4    1
     8     9     2    1
     9     9     7   am
    10     2     3    1
    11     8     7    1
    12     4     3    1
    13     4    12    1
    14     3    11    1
    15     7    15    2
