@<TRIPOS>MOLECULE
1lzc_NAG_A_1.pdb
 14 14 0 0 0
SMALL
GASTEIGER

@<TRIPOS>ATOM
      1  C1         4.3780   26.5060   30.8990 C.3   131  NAG131      0.2916
      2  C2         4.2240   27.8880   31.5240 C.3   131  NAG131      0.1845
      3  C3         3.6610   27.8230   32.9140 C.3   131  NAG131      0.1794
      4  C4         2.4810   26.8860   32.9890 C.3   131  NAG131      0.0672
      5  C5         2.8340   25.5010   32.3950 C.3   131  NAG131      0.1534
      6  C6         1.7260   24.4700   32.4690 C.3   131  NAG131      0.2116
      7  C7         5.7400   29.5740   30.6940 C.2   131  NAG131      0.2420
      8  C8         7.1330   30.1490   30.6740 C.3   131  NAG131      0.0964
      9  N2         5.5440   28.5300   31.4710 N.am  131  NAG131     -0.1992
     10  O1         4.5340   26.7220   29.5370 O.3   131  NAG131     -0.1879
     11  O3         3.1830   29.1380   33.3150 O.3   131  NAG131     -0.2210
     12  O5         3.2350   25.6970   31.0290 O.3   131  NAG131     -0.3269
     13  O6         0.4660   24.9760   32.0830 O.3   131  NAG131     -0.2177
     14  O7         4.8540   30.0860   30.0100 O.2   131  NAG131     -0.2733
@<TRIPOS>BOND
     1    10     1    1
     2    14     7    2
     3     8     7    1
     4     7     9   am
     5     1    12    1
     6     1     2    1
     7    12     5    1
     8     9     2    1
     9     2     3    1
    10    13     6    1
    11     5     6    1
    12     5     4    1
    13     3     4    1
    14     3    11    1
