@<TRIPOS>MOLECULE
1lze_NAG_A_1.pdb
 15 15 0 0 0
SMALL
GASTEIGER

@<TRIPOS>ATOM
      1  C1         0.9650   27.1570   34.4790 C.3   130  NAG130      0.2917
      2  C2         0.4750   26.5090   35.7390 C.3   130  NAG130      0.1871
      3  C3        -0.8730   27.0410   36.1760 C.3   130  NAG130      0.2095
      4  C4        -1.1460   28.4850   35.8830 C.3   130  NAG130      0.2136
      5  C5        -0.5020   28.9640   34.5710 C.3   130  NAG130      0.1835
      6  C6        -0.5590   30.4660   34.3790 C.3   130  NAG130      0.2142
      7  C7         1.2980   24.2250   35.9590 C.2   130  NAG130      0.2421
      8  C8         0.9970   22.7760   35.6810 C.3   130  NAG130      0.0964
      9  N2         0.3750   25.0620   35.5420 N.am  130  NAG130     -0.1991
     10  O1         2.2990   26.7850   34.2670 O.3   130  NAG130     -0.1879
     11  O3        -0.9750   26.8460   37.6120 O.3   130  NAG130     -0.2183
     12  O4        -2.5520   28.7590   35.7530 O.3   130  NAG130     -0.2176
     13  O5         0.8770   28.5670   34.5810 O.3   130  NAG130     -0.3242
     14  O6         0.6580   31.0780   34.8440 O.3   130  NAG130     -0.2176
     15  O7         2.3240   24.5680   36.5250 O.2   130  NAG130     -0.2733
@<TRIPOS>BOND
     1    10     1    1
     2     6     5    1
     3     6    14    1
     4     1    13    1
     5     1     2    1
     6     5    13    1
     7     5     4    1
     8     9     2    1
     9     9     7   am
    10     8     7    1
    11     2     3    1
    12    12     4    1
    13     4     3    1
    14     7    15    2
    15     3    11    1
