@<TRIPOS>MOLECULE
1lzg_NAG_A_1.pdb
 14 14 0 0 0
SMALL
GASTEIGER

@<TRIPOS>ATOM
      1  C1         4.3340   26.4950   30.9110 C.3   131  NAG131      0.2916
      2  C2         4.2190   27.8700   31.5310 C.3   131  NAG131      0.1845
      3  C3         3.5890   27.8340   32.8990 C.3   131  NAG131      0.1794
      4  C4         2.5260   26.7940   33.1830 C.3   131  NAG131      0.0672
      5  C5         2.8140   25.4830   32.4220 C.3   131  NAG131      0.1534
      6  C6         1.5920   24.5590   32.3700 C.3   131  NAG131      0.2116
      7  C7         5.7970   29.6610   31.0240 C.2   131  NAG131      0.2420
      8  C8         7.2030   30.1920   31.1160 C.3   131  NAG131      0.0964
      9  N2         5.5610   28.4800   31.5490 N.am  131  NAG131     -0.1992
     10  O1         4.5140   26.7070   29.5430 O.3   131  NAG131     -0.1879
     11  O3         2.9220   29.1180   33.1300 O.3   131  NAG131     -0.2210
     12  O5         3.1490   25.7520   31.0730 O.3   131  NAG131     -0.3269
     13  O6         0.5900   25.1960   31.5530 O.3   131  NAG131     -0.2177
     14  O7         4.9270   30.3420   30.4950 O.2   131  NAG131     -0.2733
@<TRIPOS>BOND
     1    10     1    1
     2    14     7    2
     3     1    12    1
     4     1     2    1
     5     7     8    1
     6     7     9   am
     7    12     5    1
     8     2     9    1
     9     2     3    1
    10    13     6    1
    11     6     5    1
    12     5     4    1
    13     3    11    1
    14     3     4    1
