@<TRIPOS>MOLECULE
1lzi_UDP_A_1.pdb
 25 26 0 0 0
SMALL
GASTEIGER

@<TRIPOS>ATOM
      1  N1        -9.8310  -51.4710   47.4920 N.am  475  UDP475     -0.1766
      2  C2        -8.7160  -50.6530   47.7450 C.1   475  UDP475      0.2845
      3  N3        -8.2540  -50.5590   49.0610 N.2   475  UDP475     -0.2452
      4  C4        -8.7590  -51.1870   50.2230 C.1   475  UDP475      0.2182
      5  C5       -10.0110  -52.1160   49.9860 C.2   475  UDP475      0.1242
      6  C6       -10.4640  -52.1770   48.5410 C.2   475  UDP475      0.0929
      7  O2        -8.1510  -50.0280   46.8370 O.2   475  UDP475     -0.1918
      8  O4        -8.1920  -50.9640   51.2950 O.2   475  UDP475     -0.2085
      9  C1'      -10.3340  -51.5740   46.0880 C.3   475  UDP475      0.2401
     10  C2'       -9.4830  -52.4300   45.1240 C.3   475  UDP475      0.2319
     11  O2'       -9.3820  -51.8110   43.8620 O.3   475  UDP475     -0.2157
     12  C3'      -10.2470  -53.7550   45.0740 C.3   475  UDP475      0.2158
     13  C4'      -11.6940  -53.2930   45.1670 C.3   475  UDP475      0.1799
     14  O4'      -11.6450  -52.1670   46.0830 O.3   475  UDP475     -0.3320
     15  O3'       -9.9860  -54.3600   43.8060 O.3   475  UDP475     -0.2175
     16  C5'      -12.6650  -54.3450   45.7460 C.3   475  UDP475      0.1813
     17  O5'      -12.0360  -55.0230   46.8220 O.3   475  UDP475     -0.3111
     18  PA       -11.4960  -56.4950   47.0040 P.3   475  UDP475      0.2231
     19  O1A      -10.5730  -56.7820   45.8700 O.2   475  UDP475     -0.5169
     20  O2A      -10.9210  -56.5890   48.3850 O.3   475  UDP475     -0.4370
     21  O3A      -12.8760  -57.2600   46.8080 O.3   475  UDP475     -0.2261
     22  PB       -13.2130  -58.8080   46.5830 P.3   475  UDP475      0.5373
     23  O1B      -12.8850  -59.0580   45.0160 O.2   475  UDP475     -0.2221
     24  O2B      -14.6610  -58.8550   46.8860 O.3   475  UDP475     -0.1143
     25  O3B      -12.2840  -59.7270   47.2870 O.3   475  UDP475     -0.1143
@<TRIPOS>BOND
     1    15    12    1
     2    11    10    1
     3    23    22    2
     4    12    10    1
     5    12    13    1
     6    10     9    1
     7    13    16    1
     8    13    14    1
     9    16    17    1
    10    19    18    2
    11    14     9    1
    12     9     1    1
    13    22    21    1
    14    22    24    1
    15    22    25    1
    16    21    18    1
    17    17    18    1
    18     7     2    2
    19    18    20    1
    20     1     2   am
    21     1     6    1
    22     2     3    2
    23     6     5    2
    24     3     4    2
    25     5     4    1
    26     4     8    2
