@<TRIPOS>MOLECULE
1lzj_FUC_A_1.pdb
 10 10 0 0 0
SMALL
GASTEIGER

@<TRIPOS>ATOM
      1  C1        14.6540   62.3170   45.4910 C.3   453  FUC453      0.1776
      2  C2        13.3010   62.5930   46.1680 C.3   453  FUC453      0.2141
      3  C3        13.0300   64.1020   46.2180 C.3   453  FUC453      0.2172
      4  C4        13.0880   64.6790   44.8080 C.3   453  FUC453      0.2116
      5  C5        14.4630   64.3620   44.2020 C.3   453  FUC453      0.1483
      6  C6        14.5990   64.8330   42.7750 C.3   453  FUC453      0.0349
      7  O2        13.3210   62.0700   47.4820 O.3   453  FUC453     -0.2176
      8  O3        11.7510   64.3430   46.7840 O.3   453  FUC453     -0.2175
      9  O4        12.0610   64.1120   43.9980 O.3   453  FUC453     -0.2177
     10  O5        14.6860   62.9280   44.1980 O.3   453  FUC453     -0.3508
@<TRIPOS>BOND
     1     6     5    1
     2     9     4    1
     3    10     5    1
     4    10     1    1
     5     5     4    1
     6     4     3    1
     7     1     2    1
     8     2     3    1
     9     2     7    1
    10     3     8    1
