@<TRIPOS>MOLECULE
1lzj_UDP_A_1.pdb
 25 26 0 0 0
SMALL
GASTEIGER

@<TRIPOS>ATOM
      1  N1         9.7260   51.5730   47.4430 N.am  475  UDP475     -0.1766
      2  C2         8.5780   50.8210   47.7220 C.1   475  UDP475      0.2845
      3  N3         8.0420   50.8960   49.0120 N.2   475  UDP475     -0.2452
      4  C4         8.5050   51.6480   50.1180 C.1   475  UDP475      0.2182
      5  C5         9.7890   52.5110   49.8500 C.2   475  UDP475      0.1242
      6  C6        10.3230   52.3880   48.4380 C.2   475  UDP475      0.0929
      7  O2         8.0520   50.1070   46.8440 O.2   475  UDP475     -0.1918
      8  O4         7.8780   51.5730   51.1780 O.2   475  UDP475     -0.2085
      9  C1'       10.2890   51.4860   46.0600 C.3   475  UDP475      0.2401
     10  C2'        9.4950   52.2990   45.0040 C.3   475  UDP475      0.2319
     11  O2'        9.5840   51.7250   43.7050 O.3   475  UDP475     -0.2157
     12  C3'       10.1740   53.6490   45.0980 C.3   475  UDP475      0.2158
     13  C4'       11.6510   53.2140   45.1670 C.3   475  UDP475      0.1799
     14  O4'       11.6160   52.0320   46.0270 O.3   475  UDP475     -0.3320
     15  O3'        9.8700   54.3620   43.8880 O.3   475  UDP475     -0.2175
     16  C5'       12.6480   54.2090   45.8300 C.3   475  UDP475      0.1813
     17  O5'       11.9740   54.9120   46.8570 O.3   475  UDP475     -0.3111
     18  PA        11.4530   56.3880   46.9320 P.3   475  UDP475      0.2231
     19  O1A       10.6700   56.6570   45.6790 O.2   475  UDP475     -0.5169
     20  O2A       10.7510   56.5460   48.2610 O.3   475  UDP475     -0.4370
     21  O3A       12.8240   57.1960   46.8830 O.3   475  UDP475     -0.2261
     22  PB        13.0820   58.7110   46.4470 P.3   475  UDP475      0.5373
     23  O1B       14.6480   58.9380   46.6810 O.3   475  UDP475     -0.1143
     24  O2B       12.2440   59.4940   47.3890 O.3   475  UDP475     -0.1143
     25  O3B       12.8700   58.8790   44.9660 O.2   475  UDP475     -0.2221
@<TRIPOS>BOND
     1    11    10    1
     2    15    12    1
     3    25    22    2
     4    10    12    1
     5    10     9    1
     6    12    13    1
     7    13    16    1
     8    13    14    1
     9    19    18    2
    10    16    17    1
    11    14     9    1
    12     9     1    1
    13    22    23    1
    14    22    21    1
    15    22    24    1
    16     7     2    2
    17    17    18    1
    18    21    18    1
    19    18    20    1
    20     1     2   am
    21     1     6    1
    22     2     3    2
    23     6     5    2
    24     3     4    2
    25     5     4    1
    26     4     8    2
