@<TRIPOS>MOLECULE
1lzq_0ZQ_A_1.pdb
 50 52 0 0 0
SMALL
GASTEIGER

@<TRIPOS>ATOM
      1  O1       -22.0500   39.8290   30.2730 O.2   201  0ZQ201     -0.2246
      2  C        -21.2040   39.1790   30.8690 C.2   201  0ZQ201      0.4209
      3  O2       -21.2400   38.8070   32.2120 O.3   201  0ZQ201     -0.4408
      4  CT       -22.4690   38.8660   33.0960 C.3   201  0ZQ201      0.1379
      5  C1       -22.0300   38.3700   34.4650 C.3   201  0ZQ201      0.0437
      6  C2       -23.5510   37.9510   32.5250 C.3   201  0ZQ201      0.0437
      7  C3       -22.9610   40.3120   33.1770 C.3   201  0ZQ201      0.0437
      8  N        -20.0420   38.6920   30.3250 N.am  201  0ZQ201     -0.1701
      9  CA       -19.6820   38.8830   28.9150 C.3   201  0ZQ201      0.1045
     10  C4       -19.8910   37.5850   28.1320 C.3   201  0ZQ201      0.0409
     11  CB       -18.2130   39.3140   28.7860 C.3   201  0ZQ201      0.0481
     12  CG       -17.9130   40.6630   29.3860 C.ar  201  0ZQ201     -0.0205
     13  CD1      -16.6420   40.9500   29.8750 C.ar  201  0ZQ201     -0.0042
     14  CD2      -18.8950   41.6610   29.4400 C.ar  201  0ZQ201     -0.0042
     15  CE1      -16.3470   42.2090   30.4100 C.ar  201  0ZQ201     -0.0003
     16  CE2      -18.6100   42.9220   29.9730 C.ar  201  0ZQ201     -0.0003
     17  CZ       -17.3310   43.1940   30.4590 C.ar  201  0ZQ201     -0.0000
     18  CM       -21.1740   37.5450   27.3210 C.3   201  0ZQ201      0.0910
     19  N1       -21.8560   36.2550   27.4400 N.3   201  0ZQ201     -0.2099
     20  CA1      -23.2170   36.2190   26.9060 C.3   201  0ZQ201      0.1547
     21  C5       -23.5330   37.2710   25.8460 C.2   201  0ZQ201      0.2579
     22  O        -23.8410   38.4130   26.1720 O.2   201  0ZQ201     -0.2718
     23  CB1      -24.2470   36.3540   28.0300 C.3   201  0ZQ201      0.0531
     24  CG1      -25.6690   36.4240   27.5340 C.ar  201  0ZQ201     -0.0203
     25 CD11      -26.4760   37.5170   27.8420 C.ar  201  0ZQ201     -0.0042
     26 CD21      -26.1920   35.4110   26.7340 C.ar  201  0ZQ201     -0.0042
     27 CE11      -27.7850   37.6110   27.3670 C.ar  201  0ZQ201     -0.0003
     28 CE21      -27.4990   35.4920   26.2470 C.ar  201  0ZQ201     -0.0003
     29  CZ1      -28.2990   36.6000   26.5670 C.ar  201  0ZQ201     -0.0000
     30  N2       -23.4710   36.8670   24.5820 N.am  201  0ZQ201     -0.1966
     31  CA2      -23.7710   37.7480   23.4620 C.3   201  0ZQ201      0.1733
     32  C6       -24.6120   36.9810   22.4450 C.2   201  0ZQ201      0.2616
     33  O3       -24.3110   35.8300   22.1120 O.2   201  0ZQ201     -0.2715
     34  CB2      -22.4700   38.2480   22.8160 C.3   201  0ZQ201      0.0429
     35  CG2      -22.6500   39.0670   21.5350 C.3   201  0ZQ201      0.1163
     36  CD       -22.9140   38.1990   20.3100 C.2   201  0ZQ201      0.3649
     37  OE1      -23.2640   38.7470   19.2400 O.co2 201  0ZQ201     -0.2457
     38  OE2      -22.7650   36.9640   20.4180 O.co2 201  0ZQ201     -0.2457
     39  N3       -25.6750   37.6110   21.9620 N.am  201  0ZQ201     -0.1959
     40  CA3      -26.5190   36.9610   20.9740 C.3   201  0ZQ201      0.1787
     41  C7       -26.8160   37.8930   19.7970 C.2   201  0ZQ201      0.2809
     42  O4       -26.9190   39.1110   19.9550 O.2   201  0ZQ201     -0.2698
     43  CB3      -27.8170   36.4580   21.6320 C.3   201  0ZQ201      0.0575
     44  CG3      -28.7310   37.5540   22.1130 C.ar  201  0ZQ201     -0.0200
     45 CD12      -29.7730   38.0150   21.3100 C.ar  201  0ZQ201     -0.0042
     46 CD22      -28.5540   38.1280   23.3690 C.ar  201  0ZQ201     -0.0042
     47 CE12      -30.6240   39.0300   21.7530 C.ar  201  0ZQ201     -0.0003
     48 CE22      -29.4040   39.1490   23.8180 C.ar  201  0ZQ201     -0.0003
     49  CZ2      -30.4380   39.5960   23.0090 C.ar  201  0ZQ201     -0.0000
     50  N4       -26.9270   37.3150   18.6080 N.am  201  0ZQ201     -0.0863
@<TRIPOS>BOND
     1    50    41   am
     2    37    36   ar
     3    41    42    2
     4    41    40    1
     5    36    38   ar
     6    36    35    1
     7    40    43    1
     8    40    39    1
     9    45    47   ar
    10    45    44   ar
    11    35    34    1
    12    43    44    1
    13    47    49   ar
    14    39    32   am
    15    33    32    2
    16    44    46   ar
    17    32    31    1
    18    34    31    1
    19    49    48   ar
    20    46    48   ar
    21    31    30    1
    22    30    21   am
    23    21    22    2
    24    21    20    1
    25    28    29   ar
    26    28    26   ar
    27    29    27   ar
    28    26    24   ar
    29    20    19    1
    30    20    23    1
    31    18    19    1
    32    18    10    1
    33    27    25   ar
    34    24    25   ar
    35    24    23    1
    36    10     9    1
    37    11     9    1
    38    11    12    1
    39     9     8    1
    40    12    14   ar
    41    12    13   ar
    42    14    16   ar
    43    13    15   ar
    44    16    17   ar
    45     1     2    2
    46     8     2   am
    47    15    17   ar
    48     2     3    1
    49     3     4    1
    50     6     4    1
    51     4     7    1
    52     4     5    1
