@<TRIPOS>MOLECULE
1lzr_NAG_A_1.pdb
 14 14 0 0 0
SMALL
GASTEIGER

@<TRIPOS>ATOM
      1  C1        17.0500    4.6310   38.2150 C.3   137  NAG137      0.2916
      2  C2        18.3380    4.0030   38.7040 C.3   137  NAG137      0.1845
      3  C3        18.3990    4.1420   40.2120 C.3   137  NAG137      0.1794
      4  C4        18.1420    5.5370   40.6610 C.3   137  NAG137      0.0672
      5  C5        16.8770    6.1530   40.0290 C.3   137  NAG137      0.1534
      6  C6        16.6570    7.6220   40.2790 C.3   137  NAG137      0.2116
      7  C7        19.2900    2.1720   37.4500 C.2   137  NAG137      0.2420
      8  C8        19.2740    0.7010   37.1420 C.3   137  NAG137      0.0964
      9  N2        18.4190    2.5870   38.3320 N.am  137  NAG137     -0.1992
     10  O1        17.0490    4.6590   36.8220 O.3   137  NAG137     -0.1879
     11  O3        19.7470    3.7420   40.5800 O.3   137  NAG137     -0.2210
     12  O5        16.9720    5.9880   38.6120 O.3   137  NAG137     -0.3269
     13  O6        17.7980    8.4190   39.9090 O.3   137  NAG137     -0.2177
     14  O7        20.0880    2.9150   36.8780 O.2   137  NAG137     -0.2733
@<TRIPOS>BOND
     1    10     1    1
     2    14     7    2
     3     8     7    1
     4     7     9   am
     5     1    12    1
     6     1     2    1
     7     9     2    1
     8    12     5    1
     9     2     3    1
    10    13     6    1
    11     5     6    1
    12     5     4    1
    13     3    11    1
    14     3     4    1
