@<TRIPOS>MOLECULE
1lzs_NAG_A_1.pdb
 14 14 0 0 0
SMALL
GASTEIGER

@<TRIPOS>ATOM
      1  C1        28.0400   15.8960   15.7370 C.3   137  NAG137      0.2916
      2  C2        27.8260   17.0020   16.7610 C.3   137  NAG137      0.1845
      3  C3        28.0810   16.4020   18.1600 C.3   137  NAG137      0.1794
      4  C4        27.2060   15.1900   18.3530 C.3   137  NAG137      0.0672
      5  C5        27.5200   14.1600   17.2310 C.3   137  NAG137      0.1534
      6  C6        26.6890   12.9050   17.2790 C.3   137  NAG137      0.2116
      7  C7        28.2880   19.2300   15.9450 C.2   137  NAG137      0.2420
      8  C8        29.3260   20.3110   15.7540 C.3   137  NAG137      0.0964
      9  N2        28.7190   18.1190   16.5120 N.am  137  NAG137     -0.1992
     10  O1        27.7220   16.3590   14.4730 O.3   137  NAG137     -0.1879
     11  O3        27.7980   17.4340   19.1360 O.3   137  NAG137     -0.2210
     12  O5        27.1420   14.8230   16.0130 O.3   137  NAG137     -0.3269
     13  O6        25.3060   13.1380   17.2110 O.3   137  NAG137     -0.2177
     14  O7        27.1420   19.3880   15.5820 O.2   137  NAG137     -0.2733
@<TRIPOS>BOND
     1    10     1    1
     2    14     7    2
     3     1    12    1
     4     1     2    1
     5     8     7    1
     6     7     9   am
     7    12     5    1
     8     9     2    1
     9     2     3    1
    10    13     6    1
    11     5     6    1
    12     5     4    1
    13     3     4    1
    14     3    11    1
