@<TRIPOS>MOLECULE
1lzx_HEM_A_1.pdb
 43 50 0 0 0
SMALL
GASTEIGER

@<TRIPOS>ATOM
      1  CHA       13.0430    4.5270   26.3600 C.2   750  HEM750      0.0000
      2  CHB       16.8300    1.5380   26.0070 C.2   750  HEM750      0.0000
      3  CHC       17.8730    3.4600   21.7160 C.2   750  HEM750      0.0000
      4  CHD       14.6840    7.0690   22.6010 C.2   750  HEM750      0.0000
      5  C1A       13.9110    3.4680   26.5420 C.2   750  HEM750      0.0000
      6  C2A       13.7550    2.4440   27.5290 C.2   750  HEM750      0.0000
      7  C3A       14.8540    1.6660   27.4960 C.2   750  HEM750      0.0000
      8  C4A       15.6850    2.1710   26.4420 C.2   750  HEM750      0.0000
      9  CMA       15.1750    0.5080   28.4410 C.3   750  HEM750      0.0000
     10  CAA       12.5480    2.2230   28.3990 C.3   750  HEM750      0.0000
     11  CBA       11.5260    1.4670   27.5630 C.3   750  HEM750      0.0000
     12  CGA       10.1910    1.3400   28.2560 C.2   750  HEM750      0.0000
     13  O1A       10.1920    1.1700   29.4960 O.co2 750  HEM750      0.0000
     14  O2A        9.1490    1.4000   27.5670 O.co2 750  HEM750      0.0000
     15  C1B       17.5160    1.8620   24.8620 C.ar  750  HEM750      0.0000
     16  C2B       18.6330    1.0990   24.3570 C.ar  750  HEM750      0.0000
     17  C3B       18.9160    1.5770   23.1360 C.ar  750  HEM750      0.0000
     18  C4B       18.0220    2.7230   22.9110 C.ar  750  HEM750      0.0000
     19  CMB       19.3310   -0.0630   25.0520 C.3   750  HEM750      0.0000
     20  CAB       19.8250    0.9030   22.3020 C.2   750  HEM750      0.0000
     21  CBB       20.6160    1.4840   21.3760 C.2   750  HEM750      0.0000
     22  C1C       16.9450    4.5170   21.5250 C.2   750  HEM750      0.0000
     23  C2C       16.9570    5.3740   20.3550 C.2   750  HEM750      0.0000
     24  C3C       16.1760    6.4780   20.6660 C.2   750  HEM750      0.0000
     25  C4C       15.6540    6.2440   21.9850 C.2   750  HEM750      0.0000
     26  CMC       17.6750    5.0710   19.0280 C.3   750  HEM750      0.0000
     27  CAC       15.8720    7.6110   19.8930 C.2   750  HEM750      0.0000
     28  CBC       16.3520    7.8890   18.6580 C.2   750  HEM750      0.0000
     29  C1D       13.9970    6.7460   23.7790 C.ar  750  HEM750      0.0000
     30  C2D       12.7890    7.4030   24.2370 C.ar  750  HEM750      0.0000
     31  C3D       12.3260    6.6610   25.2530 C.ar  750  HEM750      0.0000
     32  C4D       13.2200    5.5430   25.4310 C.ar  750  HEM750      0.0000
     33  CMD       12.1800    8.7010   23.7060 C.3   750  HEM750      0.0000
     34  CAD       11.0780    6.9060   26.1030 C.3   750  HEM750      0.0000
     35  CBD        9.8490    6.3660   25.3890 C.3   750  HEM750      0.0000
     36  CGD        8.6210    6.3660   26.2790 C.2   750  HEM750      0.0000
     37  O1D        8.4180    7.3720   26.9890 O.co2 750  HEM750      0.0000
     38  O2D        7.8630    5.3670   26.2610 O.co2 750  HEM750      0.0000
     39  NA        15.1190    3.2970   25.8510 N.2   750  HEM750      0.0000
     40  NB        17.1640    2.9050   24.0100 N.ar  750  HEM750      0.0000
     41  NC        16.1120    5.0430   22.5210 N.2   750  HEM750      0.0000
     42  ND        14.2820    5.6220   24.5370 N.ar  750  HEM750      0.0000
     43 FE         15.8580    4.3950   24.3720 Fe    750  HEM750      0.0000
@<TRIPOS>BOND
     1    28    27    2
     2    26    23    1
     3    27    24    1
     4    23    24    2
     5    23    22    1
     6    24    25    1
     7    21    20    2
     8    22     3    2
     9    22    41    1
    10     3    18    1
    11    25    41    2
    12    25     4    1
    13    20    17    1
    14    41    43    1
    15     4    29    2
    16    18    17   ar
    17    18    40   ar
    18    17    16   ar
    19    33    30    1
    20    29    30   ar
    21    29    42   ar
    22    40    43    1
    23    40    15   ar
    24    30    31   ar
    25    16    15   ar
    26    16    19    1
    27    43    42    1
    28    43    39    1
    29    42    32   ar
    30    15     2    1
    31    31    32   ar
    32    31    34    1
    33    35    34    1
    34    35    36    1
    35    32     1    2
    36    39     8    1
    37    39     5    2
    38     2     8    2
    39    38    36   ar
    40    36    37   ar
    41     1     5    1
    42     8     7    1
    43     5     6    1
    44     7     6    2
    45     7     9    1
    46     6    10    1
    47    11    12    1
    48    11    10    1
    49    14    12   ar
    50    12    13   ar
