@<TRIPOS>MOLECULE
1lzx_HAR_A_1.pdb
 13 12 0 0 0
SMALL
GASTEIGER

@<TRIPOS>ATOM
      1  N          9.7250   -1.1240   26.2680 N.3   770  HAR770     -0.1208
      2  CA         9.1530   -1.3760   24.9080 C.3   770  HAR770      0.1944
      3  C          9.0350   -2.8980   24.6690 C.2   770  HAR770      0.3819
      4  O          8.5690   -3.3020   23.5790 O.co2 770  HAR770     -0.2441
      5  CB        10.0620   -0.7360   23.8250 C.3   770  HAR770      0.0343
      6  CG        10.2600    0.7810   23.9340 C.3   770  HAR770      0.0490
      7  CD        11.6100    1.1670   23.3300 C.3   770  HAR770      0.2205
      8  NE        12.7510    0.3830   23.8310 N.pl3 770  HAR770     -0.0871
      9  CZ        14.0020    0.4590   23.3050 C.2   770  HAR770      0.5283
     10  NH1       14.2430    1.2780   22.2890 N.4   770  HAR770      0.1134
     11  NH2       14.9960   -0.2860   23.7980 N.pl3 770  HAR770      0.1348
     12  OH1       15.4800    1.0910   21.5460 O.3   770  HAR770      0.0294
     13  OXT        9.4020   -3.6800   25.5630 O.co2 770  HAR770     -0.2441
@<TRIPOS>BOND
     1    12    10    1
     2    10     9    1
     3     9    11    2
     4     9     8    1
     5     7     8    1
     6     7     6    1
     7     4     3   ar
     8     5     6    1
     9     5     2    1
    10     3     2    1
    11     3    13   ar
    12     2     1    1
