@<TRIPOS>MOLECULE
1lzx_H4B_A_1.pdb
 17 18 0 0 0
SMALL
GASTEIGER

@<TRIPOS>ATOM
      1  N1        10.0280    2.5470   33.8430 N.2   760  H4B760     -0.2683
      2  C2        10.1720    2.1760   32.5440 C.1   760  H4B760      0.2608
      3  N2        11.3640    2.0280   31.9680 N.pl3 760  H4B760     -0.0220
      4  N3         9.0460    1.9470   31.8200 N.2   760  H4B760     -0.2474
      5  C4         7.7210    2.0700   32.3140 C.1   760  H4B760      0.2441
      6  O4         6.7620    1.8310   31.5500 O.2   760  H4B760     -0.2063
      7  C4A        7.6590    2.4630   33.6750 C.2   760  H4B760      0.2463
      8  C8A        8.7930    2.7020   34.4410 C.1   760  H4B760      0.1270
      9  N5         6.3230    2.6230   34.2530 N.2   760  H4B760     -0.2460
     10  N8         8.7320    3.0720   35.7290 N.2   760  H4B760     -0.2054
     11  C6         6.2910    3.5870   35.4400 C.3   760  H4B760      0.1627
     12  C7         7.4310    3.2400   36.4020 C.3   760  H4B760      0.1643
     13  C9         4.8670    3.4970   36.0440 C.3   760  H4B760      0.2063
     14  O9         4.4730    2.1960   36.4400 O.3   760  H4B760     -0.2183
     15  C10        4.6790    4.4310   37.2550 C.3   760  H4B760      0.1842
     16  C11        3.2450    4.5030   37.6760 C.3   760  H4B760      0.0383
     17  O10        5.1180    5.7110   36.8020 O.3   760  H4B760     -0.2204
@<TRIPOS>BOND
     1     6     5    2
     2     4     5    2
     3     4     2    2
     4     3     2    1
     5     5     7    1
     6     2     1    2
     7     7     9    2
     8     7     8    1
     9     1     8    2
    10     9    11    1
    11     8    10    2
    12    11    13    1
    13    11    12    1
    14    10    12    1
    15    13    14    1
    16    13    15    1
    17    17    15    1
    18    15    16    1
