@<TRIPOS>MOLECULE
1lzz_HEM_A_1.pdb
 43 50 0 0 0
SMALL
GASTEIGER

@<TRIPOS>ATOM
      1  CHA       13.1500    4.4630   26.2330 C.2   750  HEM750      0.0000
      2  CHB       16.9520    1.4900   25.7860 C.2   750  HEM750      0.0000
      3  CHC       17.8450    3.4250   21.5170 C.2   750  HEM750      0.0000
      4  CHD       14.7050    7.0390   22.5090 C.2   750  HEM750      0.0000
      5  C1A       14.0330    3.4140   26.3710 C.2   750  HEM750      0.0000
      6  C2A       13.7880    2.3140   27.2380 C.2   750  HEM750      0.0000
      7  C3A       14.8640    1.4950   27.1680 C.2   750  HEM750      0.0000
      8  C4A       15.7470    2.0580   26.1730 C.2   750  HEM750      0.0000
      9  CMA       15.1450    0.2970   28.0860 C.3   750  HEM750      0.0000
     10  CAA       12.5120    2.0990   28.0100 C.3   750  HEM750      0.0000
     11  CBA       11.4400    1.4690   27.1140 C.3   750  HEM750      0.0000
     12  CGA       10.1350    1.2480   27.8470 C.2   750  HEM750      0.0000
     13  O1A       10.1940    0.8480   29.0300 O.co2 750  HEM750      0.0000
     14  O2A        9.0600    1.4600   27.2480 O.co2 750  HEM750      0.0000
     15  C1B       17.7170    1.9390   24.7160 C.ar  750  HEM750      0.0000
     16  C2B       18.7940    1.1540   24.1570 C.ar  750  HEM750      0.0000
     17  C3B       18.9540    1.5530   22.8820 C.ar  750  HEM750      0.0000
     18  C4B       18.0180    2.6640   22.6750 C.ar  750  HEM750      0.0000
     19  CMB       19.5740    0.0490   24.8580 C.3   750  HEM750      0.0000
     20  CAB       19.8200    0.8670   22.0070 C.2   750  HEM750      0.0000
     21  CBB       20.6120    1.4860   21.0870 C.2   750  HEM750      0.0000
     22  C1C       16.9920    4.5410   21.3720 C.2   750  HEM750      0.0000
     23  C2C       16.9360    5.3670   20.1880 C.2   750  HEM750      0.0000
     24  C3C       16.1090    6.4230   20.5090 C.2   750  HEM750      0.0000
     25  C4C       15.6420    6.1970   21.8430 C.2   750  HEM750      0.0000
     26  CMC       17.5730    5.0670   18.8110 C.3   750  HEM750      0.0000
     27  CAC       15.7850    7.5870   19.7970 C.2   750  HEM750      0.0000
     28  CBC       15.9820    7.8210   18.4910 C.2   750  HEM750      0.0000
     29  C1D       14.0650    6.7220   23.7130 C.ar  750  HEM750      0.0000
     30  C2D       12.8400    7.3390   24.2290 C.ar  750  HEM750      0.0000
     31  C3D       12.3750    6.5610   25.2420 C.ar  750  HEM750      0.0000
     32  C4D       13.3180    5.4890   25.3510 C.ar  750  HEM750      0.0000
     33  CMD       12.1850    8.6440   23.7400 C.3   750  HEM750      0.0000
     34  CAD       11.0680    6.6490   26.0400 C.3   750  HEM750      0.0000
     35  CBD        9.8610    6.2270   25.2090 C.3   750  HEM750      0.0000
     36  CGD        8.5580    6.2740   25.9930 C.2   750  HEM750      0.0000
     37  O1D        8.3470    7.2620   26.7310 O.co2 750  HEM750      0.0000
     38  O2D        7.7490    5.3320   25.8600 O.co2 750  HEM750      0.0000
     39  NA        15.2360    3.2550   25.6730 N.2   750  HEM750      0.0000
     40  NB        17.2980    2.9170   23.8340 N.ar  750  HEM750      0.0000
     41  NC        16.1870    5.0520   22.3800 N.2   750  HEM750      0.0000
     42  ND        14.3810    5.5980   24.4340 N.ar  750  HEM750      0.0000
     43 FE         15.9880    4.3980   24.2230 Fe    750  HEM750      0.0000
@<TRIPOS>BOND
     1    28    27    2
     2    26    23    1
     3    27    24    1
     4    23    24    2
     5    23    22    1
     6    24    25    1
     7    21    20    2
     8    22     3    2
     9    22    41    1
    10     3    18    1
    11    25    41    2
    12    25     4    1
    13    20    17    1
    14    41    43    1
    15     4    29    2
    16    18    17   ar
    17    18    40   ar
    18    17    16   ar
    19    29    30   ar
    20    29    42   ar
    21    33    30    1
    22    40    43    1
    23    40    15   ar
    24    16    15   ar
    25    16    19    1
    26    43    42    1
    27    43    39    1
    28    30    31   ar
    29    42    32   ar
    30    15     2    1
    31    35    36    1
    32    35    34    1
    33    31    32   ar
    34    31    34    1
    35    32     1    2
    36    39     8    1
    37    39     5    2
    38     2     8    2
    39    38    36   ar
    40    36    37   ar
    41     8     7    1
    42     1     5    1
    43     5     6    1
    44    11    12    1
    45    11    10    1
    46     7     6    2
    47     7     9    1
    48     6    10    1
    49    14    12   ar
    50    12    13   ar
