@<TRIPOS>MOLECULE
1lzz_H4B_A_1.pdb
 17 18 0 0 0
SMALL
GASTEIGER

@<TRIPOS>ATOM
      1  N1        10.1280    2.3500   33.4050 N.2   760  H4B760     -0.2683
      2  C2        10.2550    1.9620   32.1070 C.1   760  H4B760      0.2608
      3  N2        11.4370    1.8120   31.5170 N.pl3 760  H4B760     -0.0220
      4  N3         9.1090    1.7180   31.3990 N.2   760  H4B760     -0.2474
      5  C4         7.7910    1.8500   31.9220 C.1   760  H4B760      0.2441
      6  O4         6.8210    1.6080   31.1950 O.2   760  H4B760     -0.2063
      7  C4A        7.7530    2.2580   33.2720 C.2   760  H4B760      0.2463
      8  C8A        8.9030    2.5100   34.0170 C.1   760  H4B760      0.1270
      9  N5         6.4260    2.4210   33.8700 N.2   760  H4B760     -0.2460
     10  N8         8.8560    2.8970   35.3010 N.2   760  H4B760     -0.2054
     11  C6         6.4010    3.4030   35.0490 C.3   760  H4B760      0.1627
     12  C7         7.5590    3.0750   35.9970 C.3   760  H4B760      0.1643
     13  C9         4.9870    3.2930   35.6690 C.3   760  H4B760      0.2063
     14  O9         4.6310    1.9790   36.0940 O.3   760  H4B760     -0.2183
     15  C10        4.7890    4.2490   36.8670 C.3   760  H4B760      0.1842
     16  C11        3.3630    4.2860   37.2920 C.3   760  H4B760      0.0383
     17  O10        5.1880    5.5420   36.3720 O.3   760  H4B760     -0.2204
@<TRIPOS>BOND
     1     6     5    2
     2     4     5    2
     3     4     2    2
     4     3     2    1
     5     5     7    1
     6     2     1    2
     7     7     9    2
     8     7     8    1
     9     1     8    2
    10     9    11    1
    11     8    10    2
    12    11    13    1
    13    11    12    1
    14    10    12    1
    15    13    14    1
    16    13    15    1
    17    17    15    1
    18    15    16    1
