@<TRIPOS>MOLECULE
1m00_H4B_A_1.pdb
 17 18 0 0 0
SMALL
GASTEIGER

@<TRIPOS>ATOM
      1  N1        10.1950    2.4300   33.3350 N.2   760  H4B760     -0.2683
      2  C2        10.3510    2.0310   32.0260 C.1   760  H4B760      0.2608
      3  N2        11.5560    1.9300   31.4420 N.pl3 760  H4B760     -0.0220
      4  N3         9.2090    1.7270   31.3190 N.2   760  H4B760     -0.2474
      5  C4         7.8840    1.8030   31.8530 C.1   760  H4B760      0.2441
      6  O4         6.9180    1.5070   31.1360 O.2   760  H4B760     -0.2063
      7  C4A        7.8200    2.2220   33.2050 C.2   760  H4B760      0.2463
      8  C8A        8.9630    2.5410   33.9450 C.1   760  H4B760      0.1270
      9  N5         6.4780    2.3330   33.7990 N.2   760  H4B760     -0.2460
     10  N8         8.9020    2.9280   35.2280 N.2   760  H4B760     -0.2054
     11  C6         6.4250    3.3180   34.9700 C.3   760  H4B760      0.1627
     12  C7         7.6000    3.0390   35.9270 C.3   760  H4B760      0.1643
     13  C9         5.0300    3.1920   35.6100 C.3   760  H4B760      0.2063
     14  O9         4.6980    1.8900   36.0440 O.3   760  H4B760     -0.2183
     15  C10        4.8540    4.1500   36.8030 C.3   760  H4B760      0.1842
     16  C11        3.4440    4.1780   37.2600 C.3   760  H4B760      0.0383
     17  O10        5.2260    5.4380   36.2840 O.3   760  H4B760     -0.2204
@<TRIPOS>BOND
     1     6     5    2
     2     4     5    2
     3     4     2    2
     4     3     2    1
     5     5     7    1
     6     2     1    2
     7     7     9    2
     8     7     8    1
     9     1     8    2
    10     9    11    1
    11     8    10    2
    12    11    13    1
    13    11    12    1
    14    10    12    1
    15    13    14    1
    16    13    15    1
    17    17    15    1
    18    15    16    1
