@<TRIPOS>MOLECULE
1m00_HEM_A_1.pdb
 43 50 0 0 0
SMALL
GASTEIGER

@<TRIPOS>ATOM
      1  CHA       13.1040    4.4140   26.0190 C.2   750  HEM750      0.0000
      2  CHB       16.9460    1.4780   25.6460 C.2   750  HEM750      0.0000
      3  CHC       18.0260    3.6300   21.4970 C.2   750  HEM750      0.0000
      4  CHD       14.7390    7.0890   22.4040 C.2   750  HEM750      0.0000
      5  C1A       14.0100    3.4050   26.2030 C.2   750  HEM750      0.0000
      6  C2A       13.7920    2.3650   27.1510 C.2   750  HEM750      0.0000
      7  C3A       14.8580    1.5320   27.0420 C.2   750  HEM750      0.0000
      8  C4A       15.7670    2.0900   26.0540 C.2   750  HEM750      0.0000
      9  CMA       15.1020    0.2440   27.8830 C.3   750  HEM750      0.0000
     10  CAA       12.5560    2.1280   28.0050 C.3   750  HEM750      0.0000
     11  CBA       11.5040    1.4960   27.0830 C.3   750  HEM750      0.0000
     12  CGA       10.1830    1.1840   27.7940 C.2   750  HEM750      0.0000
     13  O1A       10.2220    0.7130   28.9600 O.co2 750  HEM750      0.0000
     14  O2A        9.1180    1.4050   27.1810 O.co2 750  HEM750      0.0000
     15  C1B       17.6580    1.8640   24.5250 C.ar  750  HEM750      0.0000
     16  C2B       18.7940    1.1330   23.9920 C.ar  750  HEM750      0.0000
     17  C3B       19.1210    1.7370   22.8410 C.ar  750  HEM750      0.0000
     18  C4B       18.1730    2.8530   22.6430 C.ar  750  HEM750      0.0000
     19  CMB       19.4500   -0.1450   24.5290 C.3   750  HEM750      0.0000
     20  CAB       20.1310    1.1790   22.0620 C.2   750  HEM750      0.0000
     21  CBB       20.6380    1.5950   20.8840 C.2   750  HEM750      0.0000
     22  C1C       17.1080    4.6790   21.3090 C.2   750  HEM750      0.0000
     23  C2C       17.0830    5.5160   20.1070 C.2   750  HEM750      0.0000
     24  C3C       16.1590    6.4910   20.4250 C.2   750  HEM750      0.0000
     25  C4C       15.6770    6.2540   21.7560 C.2   750  HEM750      0.0000
     26  CMC       17.6420    5.3000   18.6590 C.3   750  HEM750      0.0000
     27  CAC       15.6730    7.5350   19.6130 C.2   750  HEM750      0.0000
     28  CBC       16.4420    8.1940   18.7160 C.2   750  HEM750      0.0000
     29  C1D       14.0470    6.7260   23.5970 C.ar  750  HEM750      0.0000
     30  C2D       12.8650    7.3680   24.1420 C.ar  750  HEM750      0.0000
     31  C3D       12.4220    6.5820   25.1270 C.ar  750  HEM750      0.0000
     32  C4D       13.3090    5.4660   25.1810 C.ar  750  HEM750      0.0000
     33  CMD       12.2170    8.7160   23.6950 C.3   750  HEM750      0.0000
     34  CAD       11.1360    6.6810   25.9780 C.3   750  HEM750      0.0000
     35  CBD        9.9230    6.2150   25.1760 C.3   750  HEM750      0.0000
     36  CGD        8.6220    6.3140   25.9730 C.2   750  HEM750      0.0000
     37  O1D        8.4520    7.3060   26.7190 O.co2 750  HEM750      0.0000
     38  O2D        7.7770    5.4030   25.8400 O.co2 750  HEM750      0.0000
     39  NA        15.2230    3.2470   25.4970 N.2   750  HEM750      0.0000
     40  NB        17.3000    2.9420   23.7150 N.ar  750  HEM750      0.0000
     41  NC        16.2200    5.1140   22.3010 N.2   750  HEM750      0.0000
     42  ND        14.3580    5.5880   24.2790 N.ar  750  HEM750      0.0000
     43 FE         15.9710    4.3990   24.1140 Fe    750  HEM750      0.0000
@<TRIPOS>BOND
     1    26    23    1
     2    28    27    2
     3    27    24    1
     4    23    24    2
     5    23    22    1
     6    24    25    1
     7    21    20    2
     8    22     3    2
     9    22    41    1
    10     3    18    1
    11    25    41    2
    12    25     4    1
    13    20    17    1
    14    41    43    1
    15     4    29    2
    16    18    17   ar
    17    18    40   ar
    18    17    16   ar
    19    29    30   ar
    20    29    42   ar
    21    33    30    1
    22    40    43    1
    23    40    15   ar
    24    16    15   ar
    25    16    19    1
    26    43    42    1
    27    43    39    1
    28    30    31   ar
    29    42    32   ar
    30    15     2    1
    31    31    32   ar
    32    31    34    1
    33    35    36    1
    34    35    34    1
    35    32     1    2
    36    39     8    1
    37    39     5    2
    38     2     8    2
    39    38    36   ar
    40    36    37   ar
    41     1     5    1
    42     8     7    1
    43     5     6    1
    44     7     6    2
    45     7     9    1
    46    11    12    1
    47    11    10    1
    48     6    10    1
    49    14    12   ar
    50    12    13   ar
