@<TRIPOS>MOLECULE
1m01_NAG_A_1.pdb
 15 15 0 0 0
SMALL
GASTEIGER

@<TRIPOS>ATOM
      1  C1        -4.8540   66.0590   10.3120 C.3   507  NAG507      0.2917
      2  C2        -5.5440   66.7690    9.1240 C.3   507  NAG507      0.1871
      3  C3        -4.5670   67.3420    8.0730 C.3   507  NAG507      0.2095
      4  C4        -3.3570   67.9950    8.7400 C.3   507  NAG507      0.2136
      5  C5        -2.7380   66.9470    9.6470 C.3   507  NAG507      0.1835
      6  C6        -1.4150   67.3530   10.2610 C.3   507  NAG507      0.2142
      7  C7        -6.0730   64.5390    8.3760 C.2   507  NAG507      0.2421
      8  C8        -7.0220   63.5870    7.6640 C.3   507  NAG507      0.0964
      9  N2        -6.4400   65.8170    8.4900 N.am  507  NAG507     -0.1991
     10  O1        -5.7150   66.0290   11.3840 O.3   507  NAG507     -0.1879
     11  O3        -5.2360   68.2920    7.2500 O.3   507  NAG507     -0.2183
     12  O4        -2.4190   68.4250    7.7640 O.3   507  NAG507     -0.2176
     13  O5        -3.6420   66.6920   10.7310 O.3   507  NAG507     -0.3242
     14  O6        -0.9050   66.3130   11.0850 O.3   507  NAG507     -0.2176
     15  O7        -5.0040   64.1110    8.8180 O.2   507  NAG507     -0.2733
@<TRIPOS>BOND
     1    11     3    1
     2     8     7    1
     3    12     4    1
     4     3     4    1
     5     3     2    1
     6     7     9   am
     7     7    15    2
     8     9     2    1
     9     4     5    1
    10     2     1    1
    11     5     6    1
    12     5    13    1
    13     6    14    1
    14     1    13    1
    15     1    10    1
