@<TRIPOS>MOLECULE
1m03_NAG_A_1.pdb
 15 15 0 0 0
SMALL
GASTEIGER

@<TRIPOS>ATOM
      1  C1        -4.7230   66.3240   10.6620 C.3   507  NAG507      0.2917
      2  C2        -5.2820   66.4800    9.2440 C.3   507  NAG507      0.1871
      3  C3        -4.3820   67.3690    8.3770 C.3   507  NAG507      0.2095
      4  C4        -3.1690   67.8890    9.1540 C.3   507  NAG507      0.2136
      5  C5        -2.4450   66.7530    9.8920 C.3   507  NAG507      0.1835
      6  C6        -1.4100   67.2600   10.8790 C.3   507  NAG507      0.2142
      7  C7        -6.4890   64.8980    7.8810 C.2   507  NAG507      0.2421
      8  C8        -6.7870   63.4300    7.6130 C.3   507  NAG507      0.0964
      9  N2        -5.4240   65.1730    8.6290 N.am  507  NAG507     -0.1991
     10  O1        -4.7820   67.5310   11.3460 O.3   507  NAG507     -0.1879
     11  O3        -5.1320   68.4650    7.8720 O.3   507  NAG507     -0.2183
     12  O4        -2.2690   68.5240    8.2590 O.3   507  NAG507     -0.2176
     13  O5        -3.3550   65.8790   10.6230 O.3   507  NAG507     -0.3242
     14  O6        -0.5720   66.2040   11.3290 O.3   507  NAG507     -0.2176
     15  O7        -7.2210   65.7690    7.4110 O.2   507  NAG507     -0.2733
@<TRIPOS>BOND
     1    15     7    2
     2     8     7    1
     3    11     3    1
     4     7     9   am
     5    12     4    1
     6     3     4    1
     7     3     2    1
     8     9     2    1
     9     4     5    1
    10     2     1    1
    11     5    13    1
    12     5     6    1
    13    13     1    1
    14     1    10    1
    15     6    14    1
