@<TRIPOS>MOLECULE
1m04_NAG_A_1.pdb
 15 15 0 0 0
SMALL
GASTEIGER

@<TRIPOS>ATOM
      1  C1        -4.6360   65.3330    9.7600 C.3   507  NAG507      0.2917
      2  C2        -5.6190   66.1570    8.9210 C.3   507  NAG507      0.1871
      3  C3        -4.9230   67.3270    8.1970 C.3   507  NAG507      0.2095
      4  C4        -3.8390   68.0460    9.0220 C.3   507  NAG507      0.2136
      5  C5        -2.9970   67.0380    9.8060 C.3   507  NAG507      0.1835
      6  C6        -1.9890   67.6630   10.7440 C.3   507  NAG507      0.2142
      7  C7        -7.2390   64.4900    8.2600 C.2   507  NAG507      0.2421
      8  C8        -7.4580   63.2700    7.3750 C.3   507  NAG507      0.0964
      9  N2        -6.2350   65.2970    7.9280 N.am  507  NAG507     -0.1991
     10  O1        -5.3270   64.4480   10.5720 O.3   507  NAG507     -0.1879
     11  O3        -5.8970   68.2630    7.7510 O.3   507  NAG507     -0.2183
     12  O4        -2.9960   68.7810    8.1460 O.3   507  NAG507     -0.2176
     13  O5        -3.8560   66.1930   10.5930 O.3   507  NAG507     -0.3242
     14  O6        -1.1740   66.6630   11.3430 O.3   507  NAG507     -0.2176
     15  O7        -7.9780   64.6960    9.2230 O.2   507  NAG507     -0.2733
@<TRIPOS>BOND
     1     8     7    1
     2    11     3    1
     3     9     7   am
     4     9     2    1
     5    12     4    1
     6     3     2    1
     7     3     4    1
     8     7    15    2
     9     2     1    1
    10     4     5    1
    11     1    10    1
    12     1    13    1
    13     5    13    1
    14     5     6    1
    15     6    14    1
