@<TRIPOS>MOLECULE
1m06_3DR_X_1.pdb
 11 11 0 0 0
SMALL
GASTEIGER

@<TRIPOS>ATOM
      1  O5'        7.6950   -9.2440  105.6100 O.3     5  3DR5       -0.2926
      2  P          6.0960   -8.9950  105.6630 P.3     5  3DR5        0.3942
      3  OP1        5.4710  -10.3340  105.7380 O.3     5  3DR5       -0.1425
      4  OP2        5.6790   -7.8880  104.7760 O.3     5  3DR5       -0.1425
      5  C2'       10.9140  -11.1200  105.1220 C.3     5  3DR5        0.0676
      6  C5'        8.6790   -8.2500  105.2350 C.3     5  3DR5        0.1828
      7  C4'       10.0880   -8.8500  105.0470 C.3     5  3DR5        0.1754
      8  O4'       10.8030   -9.0900  106.2710 O.3     5  3DR5       -0.3510
      9  C1'       11.5230  -10.3320  106.2460 C.3     5  3DR5        0.1450
     10  C3'        9.8970  -10.2030  104.4420 C.3     5  3DR5        0.1839
     11  O3'        9.9910   -9.8440  103.0460 O.3     5  3DR5       -0.2204
@<TRIPOS>BOND
     1    11    10    1
     2    10     7    1
     3    10     5    1
     4     4     2    1
     5     7     6    1
     6     7     8    1
     7     5     9    1
     8     6     1    1
     9     1     2    1
    10     2     3    1
    11     9     8    1
