@<TRIPOS>MOLECULE
1m0b_0ZQ_B_1.pdb
 50 52 0 0 0
SMALL
GASTEIGER

@<TRIPOS>ATOM
      1  O1        -8.3880   15.5290   -2.5950 O.2   201  0ZQ201     -0.2246
      2  C         -8.2370   16.5330   -3.2540 C.2   201  0ZQ201      0.4209
      3  O2        -8.3700   16.6440   -4.6150 O.3   201  0ZQ201     -0.4408
      4  CT        -9.0020   15.5950   -5.4930 C.3   201  0ZQ201      0.1379
      5  C1        -8.9150   16.1400   -6.9140 C.3   201  0ZQ201      0.0437
      6  C2       -10.4790   15.3880   -5.0860 C.3   201  0ZQ201      0.0437
      7  C3        -8.1980   14.2870   -5.3690 C.3   201  0ZQ201      0.0437
      8  N         -7.9010   17.7520   -2.7510 N.am  201  0ZQ201     -0.1701
      9  CA        -7.6340   17.9260   -1.3270 C.3   201  0ZQ201      0.1045
     10  C4        -8.8060   18.6250   -0.6340 C.3   201  0ZQ201      0.0409
     11  CB        -6.3200   18.6940   -1.1310 C.3   201  0ZQ201      0.0481
     12  CG        -5.1400   18.0280   -1.7760 C.ar  201  0ZQ201     -0.0205
     13  CD1       -4.6920   18.4390   -3.0330 C.ar  201  0ZQ201     -0.0042
     14  CD2       -4.5230   16.9350   -1.1660 C.ar  201  0ZQ201     -0.0042
     15  CE1       -3.6530   17.7710   -3.6760 C.ar  201  0ZQ201     -0.0003
     16  CE2       -3.4830   16.2590   -1.8020 C.ar  201  0ZQ201     -0.0003
     17  CZ        -3.0490   16.6780   -3.0590 C.ar  201  0ZQ201     -0.0000
     18  CM        -9.5760   17.7220    0.3270 C.3   201  0ZQ201      0.0910
     19  N1       -10.6760   17.0270   -0.3340 N.3   201  0ZQ201     -0.2099
     20  CA1      -11.2620   15.9140    0.4180 C.3   201  0ZQ201      0.1547
     21  C5       -10.4190   15.2950    1.5460 C.2   201  0ZQ201      0.2579
     22  O         -9.3730   14.6980    1.2960 O.2   201  0ZQ201     -0.2718
     23  CB1      -11.6570   14.7930   -0.5430 C.3   201  0ZQ201      0.0531
     24  CG1      -12.3830   13.6630    0.1200 C.ar  201  0ZQ201     -0.0203
     25 CD11      -12.1080   12.3500   -0.2290 C.ar  201  0ZQ201     -0.0042
     26 CD21      -13.3250   13.9120    1.1130 C.ar  201  0ZQ201     -0.0042
     27 CE11      -12.7520   11.2930    0.3990 C.ar  201  0ZQ201     -0.0003
     28 CE21      -13.9790   12.8590    1.7520 C.ar  201  0ZQ201     -0.0003
     29  CZ1      -13.6910   11.5490    1.3950 C.ar  201  0ZQ201     -0.0000
     30  N2       -10.9030   15.4250    2.7800 N.am  201  0ZQ201     -0.1966
     31  CA2      -10.2460   14.8750    3.9650 C.3   201  0ZQ201      0.1733
     32  C6       -11.3350   14.6100    5.0010 C.2   201  0ZQ201      0.2616
     33  O3       -12.1910   15.4600    5.2250 O.2   201  0ZQ201     -0.2715
     34  CB2       -9.2210   15.8670    4.5270 C.3   201  0ZQ201      0.0429
     35  CG2       -8.4970   15.3860    5.7830 C.3   201  0ZQ201      0.1163
     36  CD        -9.3760   15.4210    7.0340 C.2   201  0ZQ201      0.3649
     37  OE1       -8.9920   14.8270    8.0690 O.co2 201  0ZQ201     -0.2457
     38  OE2      -10.4510   16.0560    6.9880 O.co2 201  0ZQ201     -0.2457
     39  N3       -11.3100   13.4390    5.6310 N.am  201  0ZQ201     -0.1959
     40  CA3      -12.3090   13.1080    6.6370 C.3   201  0ZQ201      0.1787
     41  C7       -11.7400   12.4240    7.8820 C.2   201  0ZQ201      0.2809
     42  O4       -10.6190   11.9180    7.8780 O.2   201  0ZQ201     -0.2698
     43  CB3      -13.4140   12.2430    6.0110 C.3   201  0ZQ201      0.0575
     44  CG3      -12.9260   10.9370    5.4420 C.ar  201  0ZQ201     -0.0200
     45 CD12      -13.0590    9.7580    6.1590 C.ar  201  0ZQ201     -0.0042
     46 CD22      -12.3430   10.8860    4.1760 C.ar  201  0ZQ201     -0.0042
     47 CE12      -12.6220    8.5450    5.6230 C.ar  201  0ZQ201     -0.0003
     48 CE22      -11.9020    9.6750    3.6310 C.ar  201  0ZQ201     -0.0003
     49  CZ2      -12.0430    8.5060    4.3560 C.ar  201  0ZQ201     -0.0000
     50  N4       -12.5220   12.4160    8.9550 N.am  201  0ZQ201     -0.0863
@<TRIPOS>BOND
     1     5     4    1
     2     4     7    1
     3     4     6    1
     4     4     3    1
     5     3     2    1
     6    15    17   ar
     7    15    13   ar
     8     2     8   am
     9     2     1    2
    10    17    16   ar
    11    13    12   ar
    12     8     9    1
    13    16    14   ar
    14    12    14   ar
    15    12    11    1
    16     9    11    1
    17     9    10    1
    18    10    18    1
    19    23    24    1
    20    23    20    1
    21    19    18    1
    22    19    20    1
    23    25    24   ar
    24    25    27   ar
    25    24    26   ar
    26    27    29   ar
    27    20    21    1
    28    26    28   ar
    29    22    21    2
    30    29    28   ar
    31    21    30   am
    32    30    31    1
    33    48    46   ar
    34    48    49   ar
    35    31    34    1
    36    31    32    1
    37    46    44   ar
    38    49    47   ar
    39    34    35    1
    40    32    33    2
    41    32    39   am
    42    44    43    1
    43    44    45   ar
    44    47    45   ar
    45    39    40    1
    46    35    36    1
    47    43    40    1
    48    40    41    1
    49    38    36   ar
    50    36    37   ar
    51    42    41    2
    52    41    50   am
