@<TRIPOS>MOLECULE
1m0e_SAH_A_1.pdb
 26 28 0 0 0
SMALL
GASTEIGER

@<TRIPOS>ATOM
      1  N        -17.4820   31.0950   79.7810 N.3   328  SAH328     -0.1208
      2  CA       -17.9980   30.2500   80.8580 C.3   328  SAH328      0.1952
      3  CB       -17.9380   30.9510   82.2200 C.3   328  SAH328      0.0422
      4  CG       -16.5370   31.3450   82.6080 C.3   328  SAH328      0.0597
      5  SD       -16.3070   32.1130   84.2340 S.3   328  SAH328     -0.1375
      6  C        -19.4400   30.0480   80.4330 C.2   328  SAH328      0.3819
      7  O        -19.7200   29.9710   79.1600 O.co2 328  SAH328     -0.2441
      8  OXT      -20.3350   29.9100   81.3680 O.co2 328  SAH328     -0.2441
      9  C5'      -14.7860   31.3100   84.8410 C.3   328  SAH328      0.0899
     10  C4'      -15.0700   29.8530   85.1350 C.3   328  SAH328      0.1630
     11  O4'      -13.8170   29.1280   85.3250 O.3   328  SAH328     -0.3153
     12  C3'      -15.9350   29.5500   86.3580 C.3   328  SAH328      0.2168
     13  O3'      -16.9090   28.5710   86.0270 O.3   328  SAH328     -0.2175
     14  C2'      -14.9280   29.0000   87.3710 C.3   328  SAH328      0.2569
     15  O2'      -15.4510   28.0460   88.2840 O.3   328  SAH328     -0.2130
     16  C1'      -13.9260   28.3060   86.4610 C.3   328  SAH328      0.3185
     17  N9       -12.6160   28.1950   87.0890 N.pl3 328  SAH328     -0.1439
     18  C8       -11.9830   29.1280   87.8840 C.3   328  SAH328      0.3377
     19  N7       -10.8050   28.7470   88.3080 N.2   328  SAH328     -0.2095
     20  C5       -10.6460   27.4810   87.7540 C.2   328  SAH328      0.2526
     21  C6        -9.5900   26.5540   87.8130 C.2   328  SAH328      0.4393
     22  N6        -8.4560   26.7870   88.4800 N.pl3 328  SAH328      0.2180
     23  N1        -9.7360   25.3770   87.1490 N.2   328  SAH328      0.0021
     24  C2       -10.8830   25.1650   86.4770 C.3   328  SAH328      0.5254
     25  N3       -11.9470   25.9630   86.3500 N.2   328  SAH328     -0.0055
     26  C4       -11.7580   27.1230   87.0130 C.2   328  SAH328      0.3518
@<TRIPOS>BOND
     1     7     6   ar
     2     1     2    1
     3     6     2    1
     4     6     8   ar
     5     2     3    1
     6     3     4    1
     7     4     5    1
     8     5     9    1
     9     9    10    1
    10    10    11    1
    11    10    12    1
    12    11    16    1
    13    13    12    1
    14    25    24    1
    15    25    26    2
    16    12    14    1
    17    16    17    1
    18    16    14    1
    19    24    23    1
    20    26    17    1
    21    26    20    1
    22    17    18    1
    23    23    21    2
    24    14    15    1
    25    20    21    1
    26    20    19    2
    27    21    22    1
    28    18    19    1
