@<TRIPOS>MOLECULE
1m0k_RET_A_1.pdb
 20 20 0 0 0
SMALL
GASTEIGER

@<TRIPOS>ATOM
      1  C1        14.9290   45.5330    0.3130 C.3   301  RET301      0.0183
      2  C2        14.7420   46.4840   -0.8670 C.3   301  RET301      0.0044
      3  C3        14.1140   47.7610   -0.5990 C.3   301  RET301      0.0047
      4  C4        14.7830   48.4660    0.5630 C.3   301  RET301      0.0217
      5  C5        15.0380   47.5680    1.7480 C.2   301  RET301     -0.0479
      6  C6        15.2040   46.2450    1.6380 C.2   301  RET301     -0.0307
      7  C7        15.6250   45.5280    2.8270 C.2   301  RET301     -0.0052
      8  C8        15.7660   44.2050    3.0320 C.2   301  RET301     -0.0049
      9  C9        16.2230   43.5570    4.2460 C.2   301  RET301     -0.0258
     10  C10       16.3900   42.2100    4.1080 C.2   301  RET301     -0.0257
     11  C11       16.9330   41.4120    5.2320 C.3   301  RET301      0.0510
     12  C12       17.1600   40.1000    4.9410 C.2   301  RET301     -0.0299
     13  C13       17.4670   39.1050    5.9440 C.2   301  RET301     -0.0478
     14  C14       17.5830   37.8660    5.4040 C.3   301  RET301      0.0217
     15  C15       17.4150   36.6350    6.1460 C.3   301  RET301      0.0047
     16  C16       13.7030   44.6030    0.4430 C.3   301  RET301      0.0043
     17  C17       16.1470   44.6640   -0.1890 C.3   301  RET301      0.0043
     18  C18       15.2570   48.4210    2.9740 C.3   301  RET301      0.0260
     19  C19       16.5750   44.3480    5.4490 C.3   301  RET301      0.0307
     20  C20       17.8840   39.4780    7.3370 C.3   301  RET301      0.0260
@<TRIPOS>BOND
     1     2     3    1
     2     2     1    1
     3     3     4    1
     4    17     1    1
     5     1    16    1
     6     1     6    1
     7     4     5    1
     8     6     5    2
     9     6     7    1
    10     5    18    1
    11     7     8    2
    12     8     9    1
    13    10     9    2
    14    10    11    1
    15     9    19    1
    16    12    11    1
    17    12    13    2
    18    14    13    1
    19    14    15    1
    20    13    20    1
