@<TRIPOS>MOLECULE
1m0l_RET_A_1.pdb
 20 20 0 0 0
SMALL
GASTEIGER

@<TRIPOS>ATOM
      1  C1        14.8580   45.4180    0.2990 C.3   301  RET301      0.0183
      2  C2        14.6850   46.3670   -0.8860 C.3   301  RET301      0.0044
      3  C3        14.0720   47.6500   -0.6220 C.3   301  RET301      0.0047
      4  C4        14.7280   48.3560    0.5470 C.3   301  RET301      0.0217
      5  C5        14.9640   47.4590    1.7280 C.2   301  RET301     -0.0479
      6  C6        15.1310   46.1320    1.6210 C.2   301  RET301     -0.0307
      7  C7        15.5570   45.4190    2.8130 C.2   301  RET301     -0.0052
      8  C8        15.7010   44.0930    3.0200 C.2   301  RET301     -0.0049
      9  C9        16.1520   43.4400    4.2280 C.2   301  RET301     -0.0258
     10  C10       16.3240   42.0910    4.0820 C.2   301  RET301     -0.0257
     11  C11       16.8590   41.2970    5.2170 C.3   301  RET301      0.0510
     12  C12       17.0790   39.9810    4.9310 C.2   301  RET301     -0.0299
     13  C13       17.4050   38.9890    5.9350 C.2   301  RET301     -0.0478
     14  C14       17.5280   37.7470    5.4020 C.3   301  RET301      0.0217
     15  C15       17.3030   36.5220    6.1350 C.3   301  RET301      0.0047
     16  C16       13.6220   44.5000    0.4320 C.3   301  RET301      0.0043
     17  C17       16.0730   44.5430   -0.2010 C.3   301  RET301      0.0043
     18  C18       15.1840   48.3040    2.9590 C.3   301  RET301      0.0260
     19  C19       16.5230   44.2180    5.4350 C.3   301  RET301      0.0307
     20  C20       17.8120   39.3700    7.3280 C.3   301  RET301      0.0260
@<TRIPOS>BOND
     1     2     3    1
     2     2     1    1
     3     3     4    1
     4    17     1    1
     5     1    16    1
     6     1     6    1
     7     4     5    1
     8     6     5    2
     9     6     7    1
    10     5    18    1
    11     7     8    2
    12     8     9    1
    13    10     9    2
    14    10    11    1
    15     9    19    1
    16    12    11    1
    17    12    13    2
    18    14    13    1
    19    14    15    1
    20    13    20    1
