@<TRIPOS>MOLECULE
1m0m_RET_A_1.pdb
 20 20 0 0 0
SMALL
GASTEIGER

@<TRIPOS>ATOM
      1  C1        15.1230   45.4310    0.0130 C.3   301  RET301      0.0183
      2  C2        14.9670   46.3830   -1.1700 C.3   301  RET301      0.0044
      3  C3        14.3480   47.6670   -0.9130 C.3   301  RET301      0.0047
      4  C4        15.0050   48.3650    0.2590 C.3   301  RET301      0.0217
      5  C5        15.2300   47.4650    1.4480 C.2   301  RET301     -0.0479
      6  C6        15.3840   46.1400    1.3420 C.2   301  RET301     -0.0307
      7  C7        15.7770   45.4200    2.5390 C.2   301  RET301     -0.0052
      8  C8        15.9000   44.0950    2.7450 C.2   301  RET301     -0.0049
      9  C9        16.3300   43.4430    3.9680 C.2   301  RET301     -0.0261
     10  C10       16.4850   42.0940    3.8330 C.2   301  RET301     -0.0304
     11  C11       17.0010   41.2900    4.9660 C.3   301  RET301      0.0257
     12  C12       17.2190   39.9760    4.6790 C.3   301  RET301      0.0047
     13  C13       17.4980   38.9780    5.6870 C.3   301  RET301      0.0003
     14  C14       17.6100   37.7380    5.1500 C.3   301  RET301      0.0000
     15  C15       17.4160   36.5090    5.8890 C.3   301  RET301      0.0000
     16  C16       13.8860   44.5140    0.1230 C.3   301  RET301      0.0043
     17  C17       16.3400   44.5490   -0.4680 C.3   301  RET301      0.0043
     18  C18       15.4370   48.3160    2.6780 C.3   301  RET301      0.0260
     19  C19       16.6700   44.2310    5.1760 C.3   301  RET301      0.0307
     20  C20       17.8950   39.3480    7.0870 C.3   301  RET301      0.0000
@<TRIPOS>BOND
     1     2     3    1
     2     2     1    1
     3     3     4    1
     4    17     1    1
     5     1    16    1
     6     1     6    1
     7     4     5    1
     8     6     5    2
     9     6     7    1
    10     5    18    1
    11     7     8    2
    12     8     9    1
    13    10     9    2
    14    10    11    1
    15     9    19    1
    16    12    11    1
    17    12    13    1
    18    14    13    1
    19    14    15    1
    20    13    20    1
