@<TRIPOS>MOLECULE
1m0n_HCP_A_1.pdb
 25 26 0 0 0
SMALL
GASTEIGER

@<TRIPOS>ATOM
      1  C3        16.1080   52.4800   15.5960 C.ar  434  HCP434      0.2103
      2  C2        16.4090   53.0110   14.3860 C.ar  434  HCP434      0.0981
      3  N1        17.6200   52.7000   13.6980 N.ar  434  HCP434     -0.2452
      4  C6        18.4520   51.8650   14.2100 C.ar  434  HCP434      0.0968
      5  C4        17.0520   51.5670   16.2130 C.ar  434  HCP434      0.0587
      6  C4A       16.8020   51.0670   17.5960 C.2   434  HCP434      0.0965
      7  N2        15.7470   51.3570   18.2990 N.2   434  HCP434     -0.2657
      8  C         15.7860   51.1360   19.7400 C.3   434  HCP434      0.1299
      9  CA1       16.6950   49.9350   20.1900 C.3   434  HCP434      0.0294
     10  CB1       16.6850   50.1460   21.7080 C.3   434  HCP434      0.0025
     11  CB2       16.5900   51.7520   21.8870 C.3   434  HCP434      0.0025
     12  CA2       16.5530   52.3040   20.4530 C.3   434  HCP434      0.0294
     13  P2        14.0120   51.1120   20.1730 P.3   434  HCP434      0.1370
     14  O6        13.5670   51.0160   21.6810 O.3   434  HCP434     -0.3559
     15  O7        13.3670   52.4130   19.5680 O.3   434  HCP434     -0.3559
     16  O8        13.3410   49.8750   19.4790 O.2   434  HCP434     -0.4583
     17  O1        14.8830   52.8570   16.2400 O.3   434  HCP434     -0.2853
     18  C2A       15.4410   54.0000   13.7780 C.3   434  HCP434      0.0555
     19  C5        18.1740   51.2710   15.5340 C.ar  434  HCP434      0.0316
     20  C5A       19.2010   50.3520   16.0600 C.3   434  HCP434      0.1819
     21  O2        19.0770   49.0580   15.6090 O.3   434  HCP434     -0.2653
     22  P1        19.8850   48.2040   16.5640 P.3   434  HCP434      0.5329
     23  O5        20.1780   48.8760   17.9120 O.3   434  HCP434     -0.1145
     24  O3        19.4080   46.7580   16.6610 O.3   434  HCP434     -0.1145
     25  O4        21.2540   48.2020   15.9010 O.2   434  HCP434     -0.2224
@<TRIPOS>BOND
     1     3     4   ar
     2     3     2   ar
     3    18     2    1
     4     4    19   ar
     5     2     1   ar
     6    19    20    1
     7    19     5   ar
     8     1     5   ar
     9     1    17    1
    10    21    20    1
    11    21    22    1
    12    25    22    2
    13     5     6    1
    14    22    24    1
    15    22    23    1
    16     6     7    2
    17     7     8    1
    18    16    13    2
    19    15    13    1
    20     8    13    1
    21     8     9    1
    22     8    12    1
    23    13    14    1
    24     9    10    1
    25    12    11    1
    26    10    11    1
