@<TRIPOS>MOLECULE
1m0o_MPM_A_1.pdb
 24 24 0 0 0
SMALL
GASTEIGER

@<TRIPOS>ATOM
      1  C4        17.2890   52.3380   16.5490 C.ar  434  MPM434      0.0353
      2  C3        16.2880   53.2470   16.0950 C.ar  434  MPM434      0.2062
      3  C5        18.3640   52.0000   15.6390 C.ar  434  MPM434      0.0275
      4  C4A       17.2920   51.7180   17.9640 C.3   434  MPM434      0.1184
      5  C2        16.4010   53.7860   14.7820 C.ar  434  MPM434      0.0978
      6  C6        18.4330   52.5750   14.3780 C.ar  434  MPM434      0.0965
      7  O1        15.2290   53.6110   16.8980 O.3   434  MPM434     -0.2856
      8  C5A       19.3300   51.0640   16.1030 C.3   434  MPM434      0.1816
      9  N2        16.3730   52.1820   18.7540 N.3   434  MPM434     -0.2091
     10  N1        17.4550   53.4490   13.9930 N.ar  434  MPM434     -0.2452
     11  C2A       15.3700   54.7740   14.2590 C.3   434  MPM434      0.0555
     12  O2        19.2150   49.7090   16.0170 O.3   434  MPM434     -0.2653
     13  C         16.1530   51.7980   20.1730 C.3   434  MPM434      0.1053
     14  P1        20.1330   48.7420   16.7460 P.3   434  MPM434      0.5329
     15  CA2       16.7820   52.9600   20.9970 C.3   434  MPM434      0.0230
     16  CA1       16.9600   50.5120   20.6860 C.3   434  MPM434      0.0249
     17  P2        14.4980   51.6870   20.4540 P.3   434  MPM434      0.1311
     18  O3        19.6780   47.3930   16.4710 O.3   434  MPM434     -0.1145
     19  O5        20.0630   49.0500   18.1590 O.3   434  MPM434     -0.1145
     20  O4        21.4580   48.7980   16.2110 O.2   434  MPM434     -0.2224
     21  O8        14.0230   50.3910   19.9210 O.3   434  MPM434     -0.3563
     22  O6        14.2010   51.7140   21.8970 O.3   434  MPM434     -0.3563
     23  O7        13.7520   52.7930   19.7790 O.2   434  MPM434     -0.4588
     24  CA3       16.1600   54.3150   20.6450 C.3   434  MPM434      0.0019
@<TRIPOS>BOND
     1    10     6   ar
     2    10     5   ar
     3    11     5    1
     4     6     3   ar
     5     5     2   ar
     6     3     8    1
     7     3     1   ar
     8    12     8    1
     9    12    14    1
    10     2     1   ar
    11     2     7    1
    12    20    14    2
    13    18    14    1
    14     1     4    1
    15    14    19    1
    16     4     9    1
    17     9    13    1
    18    23    17    2
    19    21    17    1
    20    13    17    1
    21    13    16    1
    22    13    15    1
    23    17    22    1
    24    24    15    1
