@<TRIPOS>MOLECULE
1m0p_ELP_A_1.pdb
 28 29 0 0 0
SMALL
GASTEIGER

@<TRIPOS>ATOM
      1  C3        15.8500   52.3800   15.9970 C.ar  434  ELP434      0.2103
      2  C2        16.0890   52.9880   14.7080 C.ar  434  ELP434      0.0981
      3  N1        17.2190   52.6470   13.9550 N.ar  434  ELP434     -0.2452
      4  C6        18.1450   51.7460   14.4540 C.ar  434  ELP434      0.0968
      5  C4        16.7890   51.3970   16.5450 C.ar  434  ELP434      0.0587
      6  C4A       16.5340   50.7010   17.8870 C.2   434  ELP434      0.0969
      7  N2        16.4680   51.3750   18.9460 N.2   434  ELP434     -0.2616
      8  C         15.9480   50.9720   20.2110 C.3   434  ELP434      0.1485
      9  CA1       16.6110   49.6310   20.6620 C.3   434  ELP434      0.0364
     10  CA2       16.4510   52.1690   20.8380 C.ar  434  ELP434      0.0042
     11  P2        14.2100   51.0310   20.2970 P.3   434  ELP434      0.1409
     12  O6        13.8080   51.1640   21.7660 O.3   434  ELP434     -0.3557
     13  O7        13.6240   52.2020   19.5420 O.2   434  ELP434     -0.4579
     14  O8        13.6120   49.8100   19.7060 O.3   434  ELP434     -0.3557
     15  O1        14.7420   52.7900   16.6760 O.3   434  ELP434     -0.2853
     16  C2A       15.0950   54.0040   14.1920 C.3   434  ELP434      0.0555
     17  C5        17.9620   51.0950   15.7410 C.ar  434  ELP434      0.0316
     18  C5A       19.0280   50.2000   16.2860 C.3   434  ELP434      0.1819
     19  O2        18.8810   48.8530   15.8340 O.3   434  ELP434     -0.2653
     20  P1        19.8920   48.0050   16.5930 P.3   434  ELP434      0.5329
     21  O3        19.4720   46.6160   16.4380 O.3   434  ELP434     -0.1145
     22  O4        21.2360   48.1250   16.0860 O.2   434  ELP434     -0.2224
     23  O5        19.7230   48.2940   17.9990 O.3   434  ELP434     -0.1145
     24  CB2       17.5210   52.0390   21.7860 C.ar  434  ELP434     -0.0021
     25  CG2       18.0150   53.2090   22.4310 C.ar  434  ELP434     -0.0003
     26  CD        17.4220   54.5000   22.1000 C.ar  434  ELP434     -0.0000
     27  CG1       16.3310   54.6020   21.1140 C.ar  434  ELP434     -0.0003
     28  CB1       15.8600   53.4420   20.4950 C.ar  434  ELP434     -0.0021
@<TRIPOS>BOND
     1     3     4   ar
     2     3     2   ar
     3    16     2    1
     4     4    17   ar
     5     2     1   ar
     6    17    18    1
     7    17     5   ar
     8    19    18    1
     9    19    20    1
    10     1     5   ar
    11     1    15    1
    12    22    20    2
    13    21    20    1
    14     5     6    1
    15    20    23    1
    16     6     7    2
    17     7     8    1
    18    13    11    2
    19    14    11    1
    20     8    11    1
    21     8     9    1
    22     8    10    1
    23    11    12    1
    24    28    10   ar
    25    28    27   ar
    26    10    24   ar
    27    27    26   ar
    28    24    25   ar
    29    26    25   ar
