@<TRIPOS>MOLECULE
1m0q_EPC_A_1.pdb
 22 22 0 0 0
SMALL
GASTEIGER

@<TRIPOS>ATOM
      1  C         15.8650   51.0490   19.8310 C.3   435  EPC435      0.1546
      2  N2        16.0090   51.2470   18.4280 N.2   435  EPC435     -0.2634
      3  N1        17.1620   52.5670   13.6290 N.ar  435  EPC435     -0.2452
      4  C2        16.0370   52.8770   14.4570 C.ar  435  EPC435      0.0981
      5  C2A       14.9410   53.8310   13.9430 C.3   435  EPC435      0.0555
      6  C3        15.9660   52.3420   15.7510 C.ar  435  EPC435      0.2103
      7  O1        14.8760   52.6630   16.5590 O.3   435  EPC435     -0.2853
      8  C4        17.0930   51.4470   16.2780 C.ar  435  EPC435      0.0587
      9  C4A       17.0100   50.9300   17.7030 C.2   435  EPC435      0.0966
     10  C5        18.2030   51.1800   15.4230 C.ar  435  EPC435      0.0316
     11  C6        18.1880   51.7820   14.0290 C.ar  435  EPC435      0.0968
     12  C5A       19.4040   50.3410   15.8680 C.3   435  EPC435      0.1819
     13  O2        18.9320   49.0270   16.0370 O.3   435  EPC435     -0.2653
     14  P1        20.0160   48.0930   16.6400 P.3   435  EPC435      0.5329
     15  O3        19.3910   46.7170   16.8530 O.3   435  EPC435     -0.1145
     16  O4        21.2570   47.9760   15.8240 O.2   435  EPC435     -0.2224
     17  O5        20.4740   48.7930   17.9260 O.3   435  EPC435     -0.1145
     18  P2        14.2540   51.0870   20.2920 P.3   435  EPC435      0.1392
     19  O7        13.5500   52.3430   19.6510 O.2   435  EPC435     -0.4582
     20  O8        13.6400   49.7540   19.8510 O.3   435  EPC435     -0.3559
     21  O6        14.1400   51.0740   21.8940 O.3   435  EPC435     -0.3559
     22  CA        16.6140   49.7340   20.3460 C.3   435  EPC435      0.0342
@<TRIPOS>BOND
     1     3    11   ar
     2     3     4   ar
     3     5     4    1
     4    11    10   ar
     5     4     6   ar
     6    10    12    1
     7    10     8   ar
     8     6     8   ar
     9     6     7    1
    10    16    14    2
    11    12    13    1
    12    13    14    1
    13     8     9    1
    14    14    15    1
    15    14    17    1
    16     9     2    2
    17     2     1    1
    18    19    18    2
    19     1    18    1
    20     1    22    1
    21    20    18    1
    22    18    21    1
