@<TRIPOS>MOLECULE
1m0u_GSH_A_1.pdb
 20 19 0 0 0
SMALL
GASTEIGER

@<TRIPOS>ATOM
      1  N1        58.3970   17.6030   14.0310 N.3   500  GSH500     -0.1208
      2  CA1       59.0270   16.2930   14.0620 C.3   500  GSH500      0.1948
      3  C1        60.2700   16.3050   13.2170 C.2   500  GSH500      0.3819
      4  O11       60.1610   16.1340   11.8220 O.co2 500  GSH500     -0.2441
      5  O12       61.4580   16.4700   13.7490 O.co2 500  GSH500     -0.2441
      6  CB1       59.3680   15.9370   15.5010 C.3   500  GSH500      0.0402
      7  CG1       59.2620   14.4380   15.7270 C.3   500  GSH500      0.0889
      8  CD1       59.4340   14.1510   17.1960 C.2   500  GSH500      0.2418
      9  OE1       58.7810   14.9520   18.1590 O.2   500  GSH500     -0.2733
     10  N2        60.2070   13.1150   17.5090 N.am  500  GSH500     -0.1968
     11  CA2       59.7370   12.1330   18.4630 C.3   500  GSH500      0.1843
     12  C2        59.9520   12.6560   19.8510 C.2   500  GSH500      0.2627
     13  O2        61.2510   12.9860   20.2980 O.2   500  GSH500     -0.2714
     14  CB2       60.4040   10.7690   18.2890 C.3   500  GSH500      0.0997
     15  SG2       60.9810   10.4170   16.6070 S.3   500  GSH500     -0.0797
     16  N3        58.8500   12.7980   20.5850 N.am  500  GSH500     -0.1917
     17  CA3       58.8580   12.7560   22.0340 C.3   500  GSH500      0.2285
     18  C3        59.4040   11.4600   22.5930 C.2   500  GSH500      0.3865
     19  O31       59.4550   10.2700   21.8330 O.co2 500  GSH500     -0.2437
     20  O32       59.8430   11.4280   23.8230 O.co2 500  GSH500     -0.2437
@<TRIPOS>BOND
     1     4     3   ar
     2     3     5   ar
     3     3     2    1
     4     1     2    1
     5     2     6    1
     6     6     7    1
     7     7     8    1
     8    15    14    1
     9     8    10   am
    10     8     9    2
    11    10    11    1
    12    14    11    1
    13    11    12    1
    14    12    13    2
    15    12    16   am
    16    16    17    1
    17    19    18   ar
    18    17    18    1
    19    18    20   ar
