@<TRIPOS>MOLECULE
1m0w_ANP_A_1.pdb
 31 33 0 0 0
SMALL
GASTEIGER

@<TRIPOS>ATOM
      1  PG        -6.8650   -4.1220    2.6030 P.3   504  ANP504      0.4884
      2  O1G       -5.5580   -4.3020    3.3360 O.3   504  ANP504     -0.1240
      3  O2G       -7.0460   -2.8000    1.9400 O.3   504  ANP504     -0.1240
      4  O3G       -7.1200   -5.2500    1.6340 O.2   504  ANP504     -0.2331
      5  PB        -8.5890   -3.3120    4.9870 P.3   504  ANP504      0.4669
      6  O1B       -7.3540   -2.7860    5.5700 O.2   504  ANP504     -0.2351
      7  O2B       -9.3960   -3.9770    6.0370 O.3   504  ANP504     -0.1253
      8  N3B       -8.1020   -4.2500    3.7670 N.3   504  ANP504     -0.0163
      9  PA        -9.3170   -0.3460    4.4180 P.3   504  ANP504      0.2220
     10  O1A       -8.9330    0.2890    5.7390 O.3   504  ANP504     -0.4370
     11  O2A       -8.3890   -0.0320    3.3020 O.2   504  ANP504     -0.5170
     12  O3A       -9.4580   -1.9380    4.6170 O.3   504  ANP504     -0.2360
     13  O5'      -10.8290    0.0240    3.9930 O.3   504  ANP504     -0.3111
     14  C5'      -11.2010   -0.5620    2.7290 C.3   504  ANP504      0.1813
     15  C4'      -11.8450    0.5390    1.8580 C.3   504  ANP504      0.1821
     16  O4'      -12.8120    1.1610    2.6810 O.3   504  ANP504     -0.3135
     17  C3'      -11.0130    1.7220    1.5240 C.3   504  ANP504      0.2184
     18  O3'      -10.1360    1.5790    0.4380 O.3   504  ANP504     -0.2174
     19  C2'      -12.0850    2.8170    1.4210 C.3   504  ANP504      0.2570
     20  O2'      -12.8300    2.8250    0.2070 O.3   504  ANP504     -0.2130
     21  C1'      -13.0300    2.5620    2.5280 C.3   504  ANP504      0.3186
     22  N9       -12.7150    3.3540    3.7720 N.pl3 504  ANP504     -0.1439
     23  C8       -11.9250    2.9540    4.8020 C.3   504  ANP504      0.3377
     24  N7       -11.8510    3.8880    5.7550 N.2   504  ANP504     -0.2095
     25  C5       -12.6140    4.8990    5.3070 C.2   504  ANP504      0.2526
     26  C6       -12.9020    6.1670    5.9260 C.2   504  ANP504      0.4393
     27  N6       -12.3680    6.4680    7.1430 N.pl3 504  ANP504      0.2180
     28  N1       -13.7270    7.0670    5.2670 N.2   504  ANP504      0.0021
     29  C2       -14.2290    6.6910    4.0380 C.3   504  ANP504      0.5254
     30  N3       -13.9670    5.5000    3.4500 N.2   504  ANP504     -0.0055
     31  C4       -13.1600    4.5740    4.0500 C.2   504  ANP504      0.3518
@<TRIPOS>BOND
     1    20    19    1
     2    18    17    1
     3    19    17    1
     4    19    21    1
     5    17    15    1
     6     4     1    2
     7    15    16    1
     8    15    14    1
     9     3     1    1
    10    21    16    1
    11    21    22    1
    12     1     2    1
    13     1     8    1
    14    14    13    1
    15    11     9    2
    16    30    29    1
    17    30    31    2
    18     8     5    1
    19    22    31    1
    20    22    23    1
    21    13     9    1
    22    29    28    1
    23    31    25    1
    24     9    12    1
    25     9    10    1
    26    12     5    1
    27    23    24    1
    28     5     6    2
    29     5     7    1
    30    28    26    2
    31    25    24    2
    32    25    26    1
    33    26    27    1
