@<TRIPOS>MOLECULE
1m0w_3GC_A_1.pdb
 16 15 0 0 0
SMALL
GASTEIGER

@<TRIPOS>ATOM
      1  N1        -0.9990  -10.8570   -3.1730 N.3   501  3GC501     -0.1208
      2  CA1       -1.3290   -9.7530   -4.0900 C.3   501  3GC501      0.1948
      3  C1        -0.0730   -9.0420   -4.6660 C.2   501  3GC501      0.3819
      4  O11        1.0400   -9.4120   -4.2980 O.co2 501  3GC501     -0.2441
      5  O12       -0.2710   -8.0670   -5.5160 O.co2 501  3GC501     -0.2441
      6  CB1       -2.2620   -8.7380   -3.3580 C.3   501  3GC501      0.0402
      7  CG1       -1.6160   -8.1000   -2.0860 C.3   501  3GC501      0.0889
      8  CD1       -2.6540   -7.1290   -1.4580 C.2   501  3GC501      0.2419
      9  OE1       -3.8230   -7.5070   -1.2360 O.2   501  3GC501     -0.2733
     10  N2        -2.1940   -5.8890   -1.1870 N.am  501  3GC501     -0.1946
     11  CA2       -3.1120   -4.8890   -0.5980 C.3   501  3GC501      0.2093
     12  C2        -2.9210   -3.5210   -1.2790 C.2   501  3GC501      0.3851
     13  O2        -1.8990   -3.2370   -1.9120 O.co2 501  3GC501     -0.2437
     14  CB2       -2.8790   -4.7530    0.9290 C.3   501  3GC501      0.1019
     15  SG2       -1.2510   -4.0660    1.3690 S.3   501  3GC501     -0.0797
     16  O3        -3.9270   -2.6170   -1.0950 O.co2 501  3GC501     -0.2437
@<TRIPOS>BOND
     1     5     3   ar
     2     3     4   ar
     3     3     2    1
     4     2     6    1
     5     2     1    1
     6     6     7    1
     7     7     8    1
     8    13    12   ar
     9     8     9    2
    10     8    10   am
    11    12    16   ar
    12    12    11    1
    13    10    11    1
    14    11    14    1
    15    14    15    1
