@<TRIPOS>MOLECULE
1m13_HYF_A_1.pdb
 39 40 0 0 0
SMALL
GASTEIGER

@<TRIPOS>ATOM
      1  C1         9.5070   71.9840   -4.1800 C.2   435  HYF435     -0.0478
      2  C2        13.6650   77.9120   -5.8650 C.3   435  HYF435      0.0260
      3  C3        15.1880   79.1870   -4.2550 C.3   435  HYF435      0.0260
      4  C4         5.0030   74.6870   -1.2500 C.3   435  HYF435      0.0078
      5  C5         6.2350   74.6680   -0.3330 C.3   435  HYF435      0.0585
      6  C6         5.8040   74.2810    1.0940 C.3   435  HYF435      0.0078
      7  C7         7.0020   76.0620   -0.3760 C.2   435  HYF435      0.1629
      8  O8         6.2840   77.0480   -0.1880 O.2   435  HYF435     -0.2952
      9  C9        13.3150   77.8590   -3.3460 C.2   435  HYF435     -0.0346
     10  C10       13.9980   78.2770   -4.4340 C.2   435  HYF435     -0.0478
     11  C11       12.0810   76.9660   -3.2950 C.3   435  HYF435      0.0254
     12  C12        8.4820   77.4650   -3.1420 C.3   435  HYF435      0.0013
     13  C13       13.6170   80.8910   -0.1630 C.3   435  HYF435      0.0260
     14  C14       11.7280   82.6660   -0.4250 C.3   435  HYF435      0.0260
     15  C15       12.1300   81.2800    0.0420 C.2   435  HYF435     -0.0478
     16  C16       11.1890   80.4850    0.6070 C.2   435  HYF435     -0.0337
     17  C17       11.3950   79.0610    1.1560 C.3   435  HYF435      0.0396
     18  C18        9.2020   77.7360    0.0590 C.2   435  HYF435      0.1697
     19  O19        8.4850   78.7260    0.2600 O.2   435  HYF435     -0.2948
     20  O20       11.4100   76.5640    2.5800 O.2   435  HYF435     -0.2911
     21  O21        8.9400   73.7130   -0.4720 O.2   435  HYF435     -0.2907
     22  C22       13.8920   73.3240   -0.3130 C.3   435  HYF435      0.0260
     23  C23       12.6770   71.1600   -1.0270 C.3   435  HYF435      0.0260
     24  C24       12.6530   72.4240   -0.1930 C.2   435  HYF435     -0.0475
     25  C25       11.5570   72.6370    0.5940 C.2   435  HYF435     -0.0297
     26  C26       11.1320   73.7480    1.5960 C.3   435  HYF435      0.0575
     27  C27        8.6440   76.2870   -0.6350 C.3   435  HYF435      0.1576
     28  C28        9.3820   74.9580   -0.0020 C.2   435  HYF435      0.1846
     29  C29       10.4180   74.9830    0.9740 C.2   435  HYF435      0.0527
     30  C30       10.9160   76.4320    1.4580 C.2   435  HYF435      0.1783
     31  C31       10.7900   77.7140    0.4640 C.3   435  HYF435      0.1113
     32  C32       11.6690   77.3300   -0.8830 C.3   435  HYF435      0.0150
     33  C33       10.9400   77.4360   -2.3010 C.3   435  HYF435      0.0064
     34  C34        9.3900   76.5270   -2.2530 C.3   435  HYF435      0.0197
     35  C35        9.6030   75.2470   -3.1780 C.3   435  HYF435      0.0059
     36  C36        8.4640   74.3130   -3.6750 C.3   435  HYF435      0.0254
     37  C37        9.0340   73.1930   -4.5490 C.2   435  HYF435     -0.0346
     38  C38        9.5590   71.4920   -2.7470 C.3   435  HYF435      0.0260
     39  C39       10.0210   71.0400   -5.2370 C.3   435  HYF435      0.0260
@<TRIPOS>BOND
     1     2    10    1
     2    39     1    1
     3    37     1    2
     4    37    36    1
     5    10     3    1
     6    10     9    2
     7     1    38    1
     8    36    35    1
     9     9    11    1
    10    11    33    1
    11    35    34    1
    12    12    34    1
    13    33    34    1
    14    33    32    1
    15    34    27    1
    16     4     5    1
    17    23    24    1
    18    32    31    1
    19    27     7    1
    20    27    28    1
    21    27    18    1
    22    21    28    1
    23    14    15    1
    24     7     5    1
    25     7     8    2
    26     5     6    1
    27    22    24    1
    28    24    25    2
    29    13    15    1
    30    28    29    2
    31    15    16    2
    32    18    19    2
    33    18    31    1
    34    31    17    1
    35    31    30    1
    36    25    26    1
    37    16    17    1
    38    29    30    1
    39    29    26    1
    40    30    20    2
