@<TRIPOS>MOLECULE
1m15_ARG_A_1.pdb
 12 11 0 0 0
SMALL
GASTEIGER

@<TRIPOS>ATOM
      1  N         33.5240    5.4000   39.5600 N.3   403  ARG403     -0.1208
      2  CA        33.1040    6.4150   40.5400 C.3   403  ARG403      0.1944
      3  C         33.5850    5.9570   41.9280 C.2   403  ARG403      0.3819
      4  O         34.0620    4.8150   42.0230 O.co2 403  ARG403     -0.2441
      5  CB        31.5720    6.5770   40.5680 C.3   403  ARG403      0.0343
      6  CG        30.8210    5.2760   40.7870 C.3   403  ARG403      0.0490
      7  CD        29.3310    5.4730   41.1970 C.3   403  ARG403      0.2205
      8  NE        28.7420    6.5640   40.3780 N.pl3 403  ARG403     -0.0865
      9  CZ        28.4310    6.3890   39.1070 C.cat 403  ARG403      0.5346
     10  NH1       28.4040    5.1650   38.5650 N.pl3 403  ARG403      0.1354
     11  NH2       28.1050    7.4790   38.4090 N.pl3 403  ARG403      0.1354
     12  OXT       33.4470    6.7360   42.8790 O.co2 403  ARG403     -0.2441
@<TRIPOS>BOND
     1    11     9    1
     2    10     9    1
     3     9     8    2
     4     1     2    1
     5     8     7    1
     6     2     5    1
     7     2     3    1
     8     5     6    1
     9     6     7    1
    10     3     4   ar
    11     3    12   ar
