@<TRIPOS>MOLECULE
1m15_ADP_A_1.pdb
 27 29 0 0 0
SMALL
GASTEIGER

@<TRIPOS>ATOM
      1  PB        22.6870   10.5680   38.1640 P.3   400  ADP400      0.5373
      2  O1B       23.7640   10.4170   37.0930 O.2   400  ADP400     -0.2221
      3  O2B       21.4540   11.1460   37.5980 O.3   400  ADP400     -0.1143
      4  O3B       22.4490    9.3370   38.9880 O.3   400  ADP400     -0.1143
      5  PA        24.4500   12.6390   39.4360 P.3   400  ADP400      0.2231
      6  O1A       25.4540   12.3240   38.3960 O.2   400  ADP400     -0.5169
      7  O2A       24.9040   12.6350   40.8760 O.3   400  ADP400     -0.4370
      8  O3A       23.2250   11.6370   39.2960 O.3   400  ADP400     -0.2261
      9  O5'       23.7760   14.0330   39.2290 O.3   400  ADP400     -0.3111
     10  C5'       23.1560   14.2890   37.9360 C.3   400  ADP400      0.1813
     11  C4'       22.3780   15.5400   38.0370 C.3   400  ADP400      0.1821
     12  O4'       21.1180   15.2840   38.7240 O.3   400  ADP400     -0.3135
     13  C3'       22.9540   16.7780   38.6570 C.3   400  ADP400      0.2184
     14  O3'       22.8000   17.9470   37.8730 O.3   400  ADP400     -0.2174
     15  C2'       22.1740   16.9530   39.9490 C.3   400  ADP400      0.2570
     16  O2'       22.1210   18.2300   40.4630 O.3   400  ADP400     -0.2130
     17  C1'       20.8570   16.3920   39.5240 C.3   400  ADP400      0.3186
     18  N9        19.8980   15.9940   40.5700 N.pl3 400  ADP400     -0.1439
     19  C8        19.9400   14.8540   41.2520 C.3   400  ADP400      0.3377
     20  N7        18.9030   14.7590   42.1100 N.2   400  ADP400     -0.2095
     21  C5        18.1930   15.8850   41.9140 C.2   400  ADP400      0.2526
     22  C6        17.0090   16.3610   42.5180 C.2   400  ADP400      0.4393
     23  N6        16.2950   15.6450   43.4240 N.pl3 400  ADP400      0.2180
     24  N1        16.6050   17.5620   42.1330 N.2   400  ADP400      0.0021
     25  C2        17.2620   18.3080   41.2360 C.3   400  ADP400      0.5254
     26  N3        18.3710   17.8800   40.6300 N.2   400  ADP400     -0.0055
     27  C4        18.7970   16.6780   40.9760 C.2   400  ADP400      0.3518
@<TRIPOS>BOND
     1     2     1    2
     2     3     1    1
     3    14    13    1
     4    10    11    1
     5    10     9    1
     6    11    13    1
     7    11    12    1
     8     1     4    1
     9     1     8    1
    10     6     5    2
    11    13    15    1
    12    12    17    1
    13     9     5    1
    14     8     5    1
    15     5     7    1
    16    17    15    1
    17    17    18    1
    18    15    16    1
    19    18    27    1
    20    18    19    1
    21    26    27    2
    22    26    25    1
    23    27    21    1
    24    25    24    1
    25    19    20    1
    26    21    20    2
    27    21    22    1
    28    24    22    2
    29    22    23    1
