@<TRIPOS>MOLECULE
1m17_AQ4_A_1.pdb
 29 31 0 0 0
SMALL
GASTEIGER

@<TRIPOS>ATOM
      1  C1        29.5520   -1.9890   53.4960 C.1   999  AQ4999     -0.0092
      2  C2        28.8410   -1.0220   53.4320 C.1   999  AQ4999     -0.0511
      3  C3        27.9890    0.0940   53.3660 C.ar  999  AQ4999      0.0461
      4  C4        26.6060   -0.1190   53.3230 C.ar  999  AQ4999      0.0527
      5  C5        25.7250    0.9720   53.2580 C.ar  999  AQ4999      0.1840
      6  N1        24.2890    0.7120   53.2150 N.pl3 999  AQ4999     -0.0060
      7  C6        23.4100   -0.2170   53.9080 C.2   999  AQ4999      0.3642
      8  C7        22.0370   -0.3090   53.5720 C.2   999  AQ4999      0.1019
      9  C8        21.5010    0.4760   52.5460 C.2   999  AQ4999      0.0195
     10  C9        20.1430    0.3760   52.2180 C.3   999  AQ4999      0.1936
     11  O1        19.5890    1.2200   51.1200 O.3   999  AQ4999     -0.3416
     12  C10       20.5500    1.3620   50.0410 C.3   999  AQ4999      0.1750
     13  C11       20.2350    2.6450   49.2620 C.3   999  AQ4999      0.1742
     14  O2        18.9900    2.4850   48.5430 O.3   999  AQ4999     -0.3484
     15  C12       17.7120    2.6180   49.3990 C.3   999  AQ4999      0.1742
     16  C13       19.3010   -0.5350   52.9230 C.2   999  AQ4999      0.1488
     17  O3        17.8280   -0.6790   52.5970 O.2   999  AQ4999     -0.4742
     18  C14       17.2270    0.6010   52.2200 C.3   999  AQ4999      0.2369
     19  C15       15.7030    0.4940   52.0660 C.3   999  AQ4999      0.1894
     20  O4        15.1080    0.1670   53.3350 O.3   999  AQ4999     -0.3471
     21  C16       13.8430   -0.6950   53.2210 C.3   999  AQ4999      0.1743
     22  C17       19.8450   -1.3180   53.9420 C.2   999  AQ4999      0.0542
     23  C18       21.1990   -1.2220   54.2640 C.2   999  AQ4999      0.0903
     24  N2        21.7470   -2.0390   55.3190 N.2   999  AQ4999     -0.2183
     25  C19       23.1170   -1.9340   55.6420 C.3   999  AQ4999      0.3920
     26  N3        23.9430   -1.0230   54.9400 N.2   999  AQ4999     -0.0327
     27  C20       26.2340    2.2920   53.2360 C.ar  999  AQ4999      0.0444
     28  C21       27.6250    2.5090   53.2790 C.ar  999  AQ4999      0.0043
     29  C22       28.5080    1.4100   53.3440 C.ar  999  AQ4999      0.0085
@<TRIPOS>BOND
     1    14    13    1
     2    14    15    1
     3    13    12    1
     4    12    11    1
     5    11    10    1
     6    19    18    1
     7    19    20    1
     8    10     9    1
     9    10    16    1
    10    18    17    1
    11     9     8    2
    12    17    16    1
    13    16    22    2
    14     6     5    1
    15     6     7    1
    16    21    20    1
    17    27     5   ar
    18    27    28   ar
    19     5     4   ar
    20    28    29   ar
    21     4     3   ar
    22    29     3   ar
    23     3     2    1
    24     2     1    3
    25     8     7    1
    26     8    23    1
    27     7    26    2
    28    22    23    1
    29    23    24    2
    30    26    25    1
    31    24    25    1
