@<TRIPOS>MOLECULE
1m1b_SPV_A_1.pdb
 10 9 0 0 0
SMALL
GASTEIGER

@<TRIPOS>ATOM
      1  C1        30.3110   69.4470   73.1140 C.2   996  SPV996      0.4235
      2  O1        30.8240   68.4790   72.4320 O.co2 996  SPV996     -0.2373
      3  O2'       30.9770   70.3480   73.5750 O.co2 996  SPV996     -0.2373
      4  C2        28.7920   69.3220   73.2920 C.2   996  SPV996      0.2719
      5  C3        28.0660   68.2870   73.7790 C.3   996  SPV996      0.1810
      6  O2        28.1120   70.3400   72.9260 O.2   996  SPV996     -0.2825
      7  S         28.4660   67.9240   75.5260 S.3   996  SPV996     -0.1882
      8  O1S       28.2630   69.1270   76.2210 O.3   996  SPV996     -0.3071
      9  O2S       29.8230   67.4780   75.5040 O.3   996  SPV996     -0.3071
     10  O3S       27.5120   67.0010   75.9560 O.3   996  SPV996     -0.3071
@<TRIPOS>BOND
     1     2     1   ar
     2     6     4    2
     3     1     4    1
     4     1     3   ar
     5     4     5    1
     6     5     7    1
     7     9     7    1
     8     7    10    1
     9     7     8    1
