@<TRIPOS>MOLECULE
1m1j_III_G_1.pdb
 30 31 0 0 0
SMALL
GASTEIGER

@<TRIPOS>ATOM
      1  N         17.7170   -7.5090   32.4400 N.3     1  GLY1       -0.1210
      2  CA        18.8060   -7.6800   33.4520 C.3     1  GLY1        0.1940
      3  C         19.6230   -8.9220   33.1710 C.2     1  GLY1        0.2454
      4  O         19.6900   -9.3690   32.0230 O.2     1  GLY1       -0.2732
      5  N         20.2780   -9.4960   34.1900 N.am    2  PRO2       -0.2717
      6  CA        21.0890  -10.7060   33.9900 C.3     2  PRO2        0.1535
      7  C         20.2160  -11.9380   34.1030 C.2     2  PRO2        0.2598
      8  O         19.0150  -11.8410   34.3110 O.2     2  PRO2       -0.2715
      9  CB        22.0870  -10.6620   35.1390 C.3     2  PRO2        0.0310
     10  CG        22.0050   -9.2460   35.6680 C.3     2  PRO2        0.0237
     11  CD        20.5650   -8.8950   35.5030 C.3     2  PRO2        0.0939
     12  N         20.8270  -13.0980   33.9520 N.am    3  ARG3       -0.1964
     13  CA        20.1130  -14.3540   34.1040 C.3     3  ARG3        0.1714
     14  C         20.9290  -15.1520   35.1170 C.2     3  ARG3        0.2459
     15  O         22.1550  -15.0310   35.1670 O.2     3  ARG3       -0.2730
     16  CB        20.0480  -15.1310   32.7860 C.3     3  ARG3        0.0347
     17  CG        19.0820  -14.6090   31.7480 C.3     3  ARG3        0.0492
     18  CD        17.6410  -14.5420   32.2420 C.3     3  ARG3        0.2205
     19  NE        17.2150  -13.1450   32.2820 N.pl3   3  ARG3       -0.0865
     20  CZ        16.1250  -12.6690   31.6950 C.cat   3  ARG3        0.5346
     21  NH1       15.3290  -13.4750   31.0160 N.pl3   3  ARG3        0.1354
     22  NH2       15.8420  -11.3760   31.7770 N.pl3   3  ARG3        0.1354
     23  N         20.2640  -15.9510   35.9620 N.am    4  PRO4       -0.2699
     24  CA        21.0610  -16.7150   36.9210 C.3     4  PRO4        0.1791
     25  C         21.9920  -17.6800   36.1920 C.2     4  PRO4        0.3825
     26  O         21.6440  -18.1020   35.0650 O.co2   4  PRO4       -0.2438
     27  CB        20.0010  -17.4320   37.7450 C.3     4  PRO4        0.0332
     28  CG        18.8990  -16.4200   37.7800 C.3     4  PRO4        0.0238
     29  CD        18.8380  -15.9780   36.3330 C.3     4  PRO4        0.0940
     30  OXT       23.0550  -18.0010   36.7630 O.co2   4  PRO4       -0.2438
@<TRIPOS>BOND
     1    21    20    1
     2    20    22    1
     3    20    19    2
     4    17    18    1
     5    17    16    1
     6     4     3    2
     7    18    19    1
     8     1     2    1
     9    16    13    1
    10     3     2    1
    11     3     5   am
    12    12     7   am
    13    12    13    1
    14     6     7    1
    15     6     5    1
    16     6     9    1
    17     7     8    2
    18    13    14    1
    19     5    11    1
    20    26    25   ar
    21    14    15    2
    22    14    23   am
    23     9    10    1
    24    11    10    1
    25    23    29    1
    26    23    24    1
    27    25    30   ar
    28    25    24    1
    29    29    28    1
    30    24    27    1
    31    27    28    1
