@<TRIPOS>MOLECULE
1m1n_CLF_B_1.pdb
 15 36 0 0 0
SMALL
GASTEIGER

@<TRIPOS>ATOM
      1 FE1        61.9170   -8.8310    3.3010 Fe    6498  CLF6498     0.0000
      2 FE2        63.7900  -10.0490    2.1340 Fe    6498  CLF6498     0.0000
      3 FE3        62.8760   -7.6500    1.0030 Fe    6498  CLF6498     0.0000
      4 FE4        61.4540   -9.9390    0.9840 Fe    6498  CLF6498     0.0000
      5  S1        61.8340  -11.2900    2.9320 S.3   6498  CLF6498     0.0000
      6  S2A       63.9820   -7.9270    3.0250 S.3   6498  CLF6498     0.0000
      7  S4A       63.4210   -9.6270   -0.1060 S.3   6498  CLF6498     0.0000
      8  S3A       60.7030   -7.8770    1.6120 S.3   6498  CLF6498     0.0000
      9 FE5        59.4960  -11.5870    2.3530 Fe    6498  CLF6498     0.0000
     10 FE6        60.6560  -13.1640    3.9690 Fe    6498  CLF6498     0.0000
     11 FE7        57.9650  -12.3480    4.5870 Fe    6498  CLF6498     0.0000
     12 FE8        60.2180  -10.7760    4.6730 Fe    6498  CLF6498     0.0000
     13  S2B       58.6940  -13.6760    2.8020 S.3   6498  CLF6498     0.0000
     14  S3B       59.7750  -12.5420    6.0620 S.3   6498  CLF6498     0.0000
     15  S4B       58.2350  -10.2370    3.6800 S.3   6498  CLF6498     0.0000
@<TRIPOS>BOND
     1     7     4    1
     2     7     3    1
     3     7     2    1
     4     4     3    1
     5     4     8    1
     6     4     2    1
     7     4     5    1
     8     4     1    1
     9     3     8    1
    10     3     2    1
    11     3     6    1
    12     3     1    1
    13     8     1    1
    14     2     5    1
    15     2     6    1
    16     2     1    1
    17     9    13    1
    18     9     5    1
    19     9    15    1
    20     9    10    1
    21     9    11    1
    22     9    12    1
    23    13    10    1
    24    13    11    1
    25     5     1    1
    26     5    10    1
    27     5    12    1
    28     6     1    1
    29    15    11    1
    30    15    12    1
    31    10    11    1
    32    10    12    1
    33    10    14    1
    34    11    12    1
    35    11    14    1
    36    12    14    1
