@<TRIPOS>MOLECULE
1m1n_CFN_A_1.pdb
 18 35 0 0 0
SMALL
GASTEIGER

@<TRIPOS>ATOM
      1  S3A       61.5620    9.5070   -4.8670 S.3   6496  CFN6496     0.0000
      2 FE4        62.1980    8.2260   -6.5930 Fe    6496  CFN6496     0.0000
      3  S1A       64.3140    7.3750   -6.6350 S.3   6496  CFN6496     0.0000
      4  S4A       61.7190    8.8220   -8.7530 S.3   6496  CFN6496     0.0000
      5 FE3        60.9360    6.7240   -8.3660 Fe    6496  CFN6496     0.0000
      6  S2A       62.5950    5.3450   -9.0360 S.3   6496  CFN6496     0.0000
      7 FE7        59.1800    6.0880   -6.5780 Fe    6496  CFN6496     0.0000
      8  S4B       58.2080    7.5360   -5.2180 S.3   6496  CFN6496     0.0000
      9 MO1        58.6870    5.6210   -3.9790 Mo    6496  CFN6496     0.0000
     10  S1B       60.8230    6.0840   -3.1440 S.3   6496  CFN6496     0.0000
     11 FE6        61.0410    5.0270   -5.0960 Fe    6496  CFN6496     0.0000
     12 FE2        62.8470    5.6640   -6.8260 Fe    6496  CFN6496     0.0000
     13 FE1        63.4920    7.3990   -8.7540 Fe    6496  CFN6496     0.0000
     14 FE5        60.4110    7.5720   -4.8000 Fe    6496  CFN6496     0.0000
     15  S2B       62.8530    3.9090   -5.4900 S.3   6496  CFN6496     0.0000
     16  S3B       59.1460    4.0240   -5.6630 S.3   6496  CFN6496     0.0000
     17  S5A       58.8050    6.2570   -8.7460 S.3   6496  CFN6496     0.0000
     18  NX        61.1270    6.6410   -6.3870 N.4   6496  CFN6496     0.0000
@<TRIPOS>BOND
     1     6    13    1
     2     6     5    1
     3     6    12    1
     4    13     4    1
     5    13    12    1
     6    13     3    1
     7     4     5    1
     8     4     2    1
     9    17     5    1
    10    17     7    1
    11     5     2    1
    12     5     7    1
    13     5    18    1
    14    12     3    1
    15    12    18    1
    16    12    15    1
    17    12    11    1
    18     3     2    1
    19     2    18    1
    20     2     1    1
    21     2    14    1
    22     7    16    1
    23     7     8    1
    24     7    11    1
    25    18    14    1
    26    16    11    1
    27    16     9    1
    28    15    11    1
    29     8    14    1
    30     8     9    1
    31    11    10    1
    32     1    14    1
    33    14     9    1
    34    14    10    1
    35     9    10    1
