@<TRIPOS>MOLECULE
1m1p_HEM_A_1.pdb
 43 50 0 0 0
SMALL
GASTEIGER

@<TRIPOS>ATOM
      1 FE          3.1470    6.1950    1.5130 Fe    801  HEM801      0.0000
      2  CHA        1.2120    6.7750    4.2760 C.2   801  HEM801      0.0000
      3  CHB        1.2500    8.4340   -0.2820 C.2   801  HEM801      0.0000
      4  CHC        5.3450    5.9570   -1.1200 C.2   801  HEM801      0.0000
      5  CHD        4.6220    3.4910    2.9960 C.2   801  HEM801      0.0000
      6  NA         1.5040    7.3210    1.9100 N.ar  801  HEM801      0.0000
      7  C1A        0.8780    7.4400    3.1180 C.ar  801  HEM801      0.0000
      8  C2A       -0.1790    8.4160    3.0010 C.ar  801  HEM801      0.0000
      9  C3A       -0.1710    8.8740    1.7450 C.ar  801  HEM801      0.0000
     10  C4A        0.8920    8.1920    1.0310 C.ar  801  HEM801      0.0000
     11  CMA       -1.1090    9.9340    1.1250 C.3   801  HEM801      0.0000
     12  CAA       -1.0630    8.8180    4.2150 C.3   801  HEM801      0.0000
     13  CBA       -2.4910    8.3520    4.2760 C.3   801  HEM801      0.0000
     14  CGA       -3.1330    8.9280    5.5320 C.2   801  HEM801      0.0000
     15  O1A       -4.0740    8.2900    6.0450 O.co2 801  HEM801      0.0000
     16  O2A       -2.7270   10.0150    6.0300 O.co2 801  HEM801      0.0000
     17  NB         3.2940    7.0300   -0.3550 N.2   801  HEM801      0.0000
     18  C1B        2.4360    7.9860   -0.8740 C.2   801  HEM801      0.0000
     19  C2B        3.0300    8.4950   -2.0800 C.2   801  HEM801      0.0000
     20  C3B        4.1460    7.8090   -2.3330 C.2   801  HEM801      0.0000
     21  C4B        4.3370    6.8850   -1.2430 C.2   801  HEM801      0.0000
     22  CMB        2.3790    9.5450   -3.0010 C.3   801  HEM801      0.0000
     23  CAB        5.1180    8.0000   -3.5220 C.2   801  HEM801      0.0000
     24  CBB        5.7660    9.2060   -3.6170 C.2   801  HEM801      0.0000
     25  NC         4.6510    4.9750    1.0250 N.ar  801  HEM801      0.0000
     26  C1C        5.4400    5.0440   -0.1040 C.ar  801  HEM801      0.0000
     27  C2C        6.4800    4.0340    0.0130 C.ar  801  HEM801      0.0000
     28  C3C        6.2900    3.3080    1.1460 C.ar  801  HEM801      0.0000
     29  C4C        5.1630    3.9490    1.8260 C.ar  801  HEM801      0.0000
     30  CMC        7.4940    3.8100   -1.1250 C.3   801  HEM801      0.0000
     31  CAC        7.1090    2.1360    1.7150 C.2   801  HEM801      0.0000
     32  CBC        8.4690    2.1430    1.8280 C.2   801  HEM801      0.0000
     33  ND         2.9290    5.2850    3.3000 N.2   801  HEM801      0.0000
     34  C1D        3.6760    4.1930    3.7150 C.2   801  HEM801      0.0000
     35  C2D        3.3690    3.8920    5.0850 C.2   801  HEM801      0.0000
     36  C3D        2.3510    4.9230    5.4980 C.2   801  HEM801      0.0000
     37  C4D        2.1150    5.7320    4.3400 C.2   801  HEM801      0.0000
     38  CMD        3.9570    2.7730    5.9660 C.3   801  HEM801      0.0000
     39  CAD        1.7450    5.0650    6.9050 C.3   801  HEM801      0.0000
     40  CBD        2.4260    6.3060    7.5660 C.3   801  HEM801      0.0000
     41  CGD        3.9480    6.3890    7.5400 C.2   801  HEM801      0.0000
     42  O1D        4.6470    5.4250    7.9630 O.co2 801  HEM801      0.0000
     43  O2D        4.5170    7.4330    7.0930 O.co2 801  HEM801      0.0000
@<TRIPOS>BOND
     1    24    23    2
     2    23    20    1
     3    22    19    1
     4    20    19    2
     5    20    21    1
     6    19    18    1
     7    21     4    2
     8    21    17    1
     9    30    27    1
    10     4    26    1
    11    18    17    2
    12    18     3    1
    13    17     1    1
    14     3    10    2
    15    26    27   ar
    16    26    25   ar
    17    27    28   ar
    18    25     1    1
    19    25    29   ar
    20    10     9   ar
    21    10     6   ar
    22    11     9    1
    23    28    31    1
    24    28    29   ar
    25     1     6    1
    26     1    33    1
    27    31    32    2
    28     9     8   ar
    29    29     5    1
    30     6     7   ar
    31     5    34    2
    32     8     7   ar
    33     8    12    1
    34     7     2    2
    35    33    34    1
    36    33    37    2
    37    34    35    1
    38    12    13    1
    39     2    37    1
    40    13    14    1
    41    37    36    1
    42    35    36    2
    43    35    38    1
    44    36    39    1
    45    14    16   ar
    46    14    15   ar
    47    39    40    1
    48    43    41   ar
    49    41    40    1
    50    41    42   ar
