@<TRIPOS>MOLECULE
1m1q_HEM_A_1.pdb
 43 50 0 0 0
SMALL
GASTEIGER

@<TRIPOS>ATOM
      1 FE         -3.9920   14.7980    2.1330 Fe    801  HEM801      0.0000
      2  CHA       -4.6910   11.8960    3.7470 C.2   801  HEM801      0.0000
      3  CHB       -6.1960   14.0060   -0.2980 C.2   801  HEM801      0.0000
      4  CHC       -3.5030   17.8740    0.6760 C.2   801  HEM801      0.0000
      5  CHD       -1.4490   15.3850    4.2750 C.2   801  HEM801      0.0000
      6  NA        -5.1760   13.2700    1.8010 N.ar  801  HEM801      0.0000
      7  C1A       -5.3820   12.1750    2.6210 C.ar  801  HEM801      0.0000
      8  C2A       -6.3710   11.2960    2.0490 C.ar  801  HEM801      0.0000
      9  C3A       -6.7670   11.8700    0.9030 C.ar  801  HEM801      0.0000
     10  C4A       -5.9990   13.0780    0.7450 C.ar  801  HEM801      0.0000
     11  CMA       -7.8190   11.3620   -0.0820 C.3   801  HEM801      0.0000
     12  CAA       -6.9150   10.0380    2.6810 C.2   801  HEM801      0.0000
     13  CBA       -6.2310    8.8160    2.5030 C.2   801  HEM801      0.0000
     14  CGA       -6.9420    7.5560    2.9120 C.2   801  HEM801      0.0000
     15  O1A       -6.6230    6.4750    2.3710 O.co2 801  HEM801      0.0000
     16  O2A       -7.9740    7.6290    3.5560 O.co2 801  HEM801      0.0000
     17  NB        -4.6800   15.7360    0.5190 N.2   801  HEM801      0.0000
     18  C1B       -5.6030   15.2320   -0.4080 C.2   801  HEM801      0.0000
     19  C2B       -5.9100   16.2280   -1.4040 C.2   801  HEM801      0.0000
     20  C3B       -5.1780   17.3160   -1.1420 C.2   801  HEM801      0.0000
     21  C4B       -4.4110   17.0180    0.0640 C.2   801  HEM801      0.0000
     22  CMB       -6.8950   16.0160   -2.5510 C.3   801  HEM801      0.0000
     23  CAB       -5.1420   18.6290   -1.8210 C.3   801  HEM801      0.0000
     24  CBB       -6.4250   19.4170   -1.8070 C.3   801  HEM801      0.0000
     25  NC        -2.7810   16.3320    2.4440 N.ar  801  HEM801      0.0000
     26  C1C       -2.6900   17.4990    1.7490 C.ar  801  HEM801      0.0000
     27  C2C       -1.6010   18.3290    2.1930 C.ar  801  HEM801      0.0000
     28  C3C       -0.9800   17.6080    3.1840 C.ar  801  HEM801      0.0000
     29  C4C       -1.7280   16.3700    3.3320 C.ar  801  HEM801      0.0000
     30  CMC       -1.1910   19.6040    1.5390 C.3   801  HEM801      0.0000
     31  CAC        0.2590   17.9370    3.9490 C.3   801  HEM801      0.0000
     32  CBC        0.1950   19.1770    4.7630 C.3   801  HEM801      0.0000
     33  ND        -3.2910   13.8600    3.7290 N.2   801  HEM801      0.0000
     34  C1D       -2.0980   14.1800    4.4330 C.2   801  HEM801      0.0000
     35  C2D       -1.7070   13.1020    5.3150 C.2   801  HEM801      0.0000
     36  C3D       -2.5910   12.1030    5.1970 C.2   801  HEM801      0.0000
     37  C4D       -3.5710   12.6210    4.2360 C.2   801  HEM801      0.0000
     38  CMD       -0.5310   13.1330    6.3420 C.3   801  HEM801      0.0000
     39  CAD       -2.5830   10.7300    5.8490 C.3   801  HEM801      0.0000
     40  CBD       -1.5050    9.8080    5.4640 C.3   801  HEM801      0.0000
     41  CGD       -1.3760    9.2690    3.9940 C.2   801  HEM801      0.0000
     42  O1D       -1.6890   10.1820    3.3110 O.co2 801  HEM801      0.0000
     43  O2D       -1.0520    8.2120    3.7710 O.co2 801  HEM801      0.0000
@<TRIPOS>BOND
     1    22    19    1
     2    23    24    1
     3    23    20    1
     4    19    20    2
     5    19    18    1
     6    20    21    1
     7    18     3    1
     8    18    17    2
     9     3    10    2
    10    11     9    1
    11    21    17    1
    12    21     4    2
    13    17     1    1
    14     4    26    1
    15    10     9   ar
    16    10     6   ar
    17     9     8   ar
    18    30    27    1
    19    26    27   ar
    20    26    25   ar
    21     6     1    1
    22     6     7   ar
    23     8     7   ar
    24     8    12    1
    25     1    25    1
    26     1    33    1
    27    27    28   ar
    28    15    14   ar
    29    25    29   ar
    30    13    12    2
    31    13    14    1
    32     7     2    2
    33    14    16   ar
    34    28    29   ar
    35    28    31    1
    36    42    41   ar
    37    29     5    1
    38    33    37    2
    39    33    34    1
    40     2    37    1
    41    43    41   ar
    42    31    32    1
    43    41    40    1
    44    37    36    1
    45     5    34    2
    46    34    35    1
    47    36    35    2
    48    36    39    1
    49    35    38    1
    50    40    39    1
