@<TRIPOS>MOLECULE
1m1r_HEM_A_1.pdb
 43 50 0 0 0
SMALL
GASTEIGER

@<TRIPOS>ATOM
      1 FE         -3.9560   14.7410    2.1620 Fe    801  HEM801      0.0000
      2  CHA       -4.6100   11.8180    3.7530 C.2   801  HEM801      0.0000
      3  CHB       -6.1690   13.9580   -0.2930 C.2   801  HEM801      0.0000
      4  CHC       -3.4700   17.7770    0.6950 C.2   801  HEM801      0.0000
      5  CHD       -1.4120   15.3320    4.2930 C.2   801  HEM801      0.0000
      6  NA        -5.1540   13.2000    1.8010 N.ar  801  HEM801      0.0000
      7  C1A       -5.3670   12.1130    2.6580 C.ar  801  HEM801      0.0000
      8  C2A       -6.3680   11.2550    2.0800 C.ar  801  HEM801      0.0000
      9  C3A       -6.7320   11.8160    0.8830 C.ar  801  HEM801      0.0000
     10  C4A       -5.9830   13.0400    0.7740 C.ar  801  HEM801      0.0000
     11  CMA       -7.7780   11.3280   -0.0650 C.3   801  HEM801      0.0000
     12  CAA       -6.8880    9.9650    2.6920 C.3   801  HEM801      0.0000
     13  CBA       -6.2090    8.7500    2.3390 C.3   801  HEM801      0.0000
     14  CGA       -6.8710    7.5340    2.8610 C.2   801  HEM801      0.0000
     15  O1A       -6.5460    6.4300    2.3710 O.co2 801  HEM801      0.0000
     16  O2A       -7.9870    7.5530    3.5140 O.co2 801  HEM801      0.0000
     17  NB        -4.6340   15.6660    0.5430 N.2   801  HEM801      0.0000
     18  C1B       -5.5910   15.1730   -0.3550 C.2   801  HEM801      0.0000
     19  C2B       -5.8980   16.1890   -1.3780 C.2   801  HEM801      0.0000
     20  C3B       -5.1500   17.2690   -1.1270 C.2   801  HEM801      0.0000
     21  C4B       -4.3830   16.9490    0.1070 C.2   801  HEM801      0.0000
     22  CMB       -6.8810   15.9740   -2.4900 C.3   801  HEM801      0.0000
     23  CAB       -5.1100   18.5800   -1.8180 C.3   801  HEM801      0.0000
     24  CBB       -6.3840   19.3720   -1.7800 C.3   801  HEM801      0.0000
     25  NC        -2.7300   16.2620    2.4900 N.ar  801  HEM801      0.0000
     26  C1C       -2.6540   17.4440    1.7950 C.ar  801  HEM801      0.0000
     27  C2C       -1.5300   18.2480    2.2200 C.ar  801  HEM801      0.0000
     28  C3C       -0.9250   17.5350    3.2100 C.ar  801  HEM801      0.0000
     29  C4C       -1.6760   16.3150    3.3480 C.ar  801  HEM801      0.0000
     30  CMC       -1.1220   19.5440    1.5630 C.3   801  HEM801      0.0000
     31  CAC        0.3320   17.8620    3.9280 C.3   801  HEM801      0.0000
     32  CBC        0.2520   19.1100    4.7950 C.3   801  HEM801      0.0000
     33  ND        -3.2400   13.7820    3.7440 N.2   801  HEM801      0.0000
     34  C1D       -2.0490   14.1120    4.4670 C.2   801  HEM801      0.0000
     35  C2D       -1.7010   13.0460    5.3580 C.2   801  HEM801      0.0000
     36  C3D       -2.5560   12.0110    5.1890 C.2   801  HEM801      0.0000
     37  C4D       -3.5630   12.5470    4.2180 C.2   801  HEM801      0.0000
     38  CMD       -0.5180   13.0540    6.3820 C.3   801  HEM801      0.0000
     39  CAD       -2.5750   10.6950    5.8890 C.3   801  HEM801      0.0000
     40  CBD       -1.4600    9.7840    5.4900 C.3   801  HEM801      0.0000
     41  CGD       -1.4540    9.2060    4.0210 C.2   801  HEM801      0.0000
     42  O1D       -1.7360   10.0860    3.2320 O.co2 801  HEM801      0.0000
     43  O2D       -0.9840    8.2500    3.7950 O.co2 801  HEM801      0.0000
@<TRIPOS>BOND
     1    22    19    1
     2    23    24    1
     3    23    20    1
     4    19    20    2
     5    19    18    1
     6    20    21    1
     7    18     3    1
     8    18    17    2
     9     3    10    2
    10    11     9    1
    11    21    17    1
    12    21     4    2
    13    17     1    1
    14     4    26    1
    15    10     9   ar
    16    10     6   ar
    17     9     8   ar
    18    30    27    1
    19    26    27   ar
    20    26    25   ar
    21     6     1    1
    22     6     7   ar
    23     8     7   ar
    24     8    12    1
    25     1    25    1
    26     1    33    1
    27    27    28   ar
    28    13    12    1
    29    13    14    1
    30    15    14   ar
    31    25    29   ar
    32     7     2    2
    33    14    16   ar
    34    28    29   ar
    35    28    31    1
    36    42    41   ar
    37    29     5    1
    38    33    37    2
    39    33    34    1
    40     2    37    1
    41    43    41   ar
    42    31    32    1
    43    41    40    1
    44    37    36    1
    45     5    34    2
    46    34    35    1
    47    36    35    2
    48    36    39    1
    49    35    38    1
    50    40    39    1
