@<TRIPOS>MOLECULE
1m1y_CLF_A_1.pdb
 15 31 0 0 0
SMALL
GASTEIGER

@<TRIPOS>ATOM
      1 FE1         8.4740  188.5950  172.6830 Fe    6498  CLF6498     0.0000
      2 FE2         7.9260  187.1730  171.5740 Fe    6498  CLF6498     0.0000
      3 FE3         9.7580  186.7360  170.7960 Fe    6498  CLF6498     0.0000
      4 FE4         7.4110  188.5390  170.1800 Fe    6498  CLF6498     0.0000
      5  S1         6.0590  188.3640  172.2210 S.3   6498  CLF6498     0.0000
      6  S2A        9.3770  186.5560  173.0380 S.3   6498  CLF6498     0.0000
      7  S4A        7.9380  186.4300  169.5480 S.3   6498  CLF6498     0.0000
      8  S3A        9.5470  188.9320  170.6430 S.3   6498  CLF6498     0.0000
      9 FE5         6.4480  190.1680  170.4630 Fe    6498  CLF6498     0.0000
     10 FE6         5.6640  190.6680  172.2370 Fe    6498  CLF6498     0.0000
     11 FE7         5.2470  192.5690  172.2560 Fe    6498  CLF6498     0.0000
     12 FE8         7.1980  190.2510  173.3190 Fe    6498  CLF6498     0.0000
     13  S2B        4.5340  191.3830  170.4900 S.3   6498  CLF6498     0.0000
     14  S3B        5.5410  191.4890  174.2480 S.3   6498  CLF6498     0.0000
     15  S4B        7.3440  191.9260  171.6780 S.3   6498  CLF6498     0.0000
@<TRIPOS>BOND
     1     7     4    1
     2     7     3    1
     3     7     2    1
     4     4     9    1
     5     4     8    1
     6     4     2    1
     7     4     5    1
     8     9    13    1
     9     9    15    1
    10     9    10    1
    11    13    10    1
    12    13    11    1
    13     8     3    1
    14     8     1    1
    15     3     2    1
    16     3     6    1
    17     2     5    1
    18     2     1    1
    19     2     6    1
    20    15    10    1
    21    15    11    1
    22    15    12    1
    23     5     1    1
    24     5    12    1
    25    10    11    1
    26    10    12    1
    27    10    14    1
    28    11    14    1
    29     1     6    1
    30     1    12    1
    31    12    14    1
