@<TRIPOS>MOLECULE
1m1y_CFM_A_1.pdb
 17 35 0 0 0
SMALL
GASTEIGER

@<TRIPOS>ATOM
      1 FE1        25.1540  182.7000  162.3700 Fe    6496  CFM6496     0.0000
      2 FE2        23.6360  183.9230  163.8160 Fe    6496  CFM6496     0.0000
      3 FE3        24.2870  185.1660  162.1520 Fe    6496  CFM6496     0.0000
      4 FE4        25.8350  184.4270  164.0250 Fe    6496  CFM6496     0.0000
      5 FE5        24.9670  186.4250  164.9360 Fe    6496  CFM6496     0.0000
      6 FE6        22.9540  186.1360  164.7130 Fe    6496  CFM6496     0.0000
      7 FE7        23.9160  187.2730  162.8600 Fe    6496  CFM6496     0.0000
      8 MO1        23.5730  188.4300  165.2990 Mo    6496  CFM6496     0.0000
      9  S1A       25.0400  182.4940  164.6470 S.3   6496  CFM6496     0.0000
     10  S4A       26.2300  184.4700  161.8300 S.3   6496  CFM6496     0.0000
     11  S3A       26.7330  185.4520  165.7230 S.3   6496  CFM6496     0.0000
     12  S2A       23.1830  183.3180  161.7580 S.3   6496  CFM6496     0.0000
     13  S1B       23.8030  186.5660  166.7380 S.3   6496  CFM6496     0.0000
     14  S2B       21.8960  184.2220  165.1520 S.3   6496  CFM6496     0.0000
     15  S3B       21.9850  187.8610  163.7240 S.3   6496  CFM6496     0.0000
     16  S4B       25.4620  188.3030  164.0800 S.3   6496  CFM6496     0.0000
     17  S5        24.3840  186.7690  160.6820 S.3   6496  CFM6496     0.0000
@<TRIPOS>BOND
     1    17     3    1
     2    17     7    1
     3    12     3    1
     4    12     1    1
     5    12     2    1
     6    10     3    1
     7    10     1    1
     8    10     4    1
     9     3     7    1
    10     3     2    1
    11     1     2    1
    12     1     4    1
    13     1     9    1
    14     7    15    1
    15     7    16    1
    16     7     6    1
    17     7     8    1
    18    15     6    1
    19    15     8    1
    20     2     4    1
    21     2     9    1
    22     2    14    1
    23     4     9    1
    24     4     5    1
    25     4    11    1
    26    16     5    1
    27    16     8    1
    28     6     5    1
    29     6    14    1
    30     6     8    1
    31     6    13    1
    32     5     8    1
    33     5    11    1
    34     5    13    1
    35     8    13    1
