@<TRIPOS>MOLECULE
1m20_HEM_A_1.pdb
 43 50 0 0 0
SMALL
GASTEIGER

@<TRIPOS>ATOM
      1 FE         11.7120    2.3270   -2.3010 Fe    201  HEM201      0.0000
      2  CHA       10.5470    2.9100   -5.4300 C.2   201  HEM201      0.0000
      3  CHB       14.5270    4.1780   -2.9970 C.2   201  HEM201      0.0000
      4  CHC       12.9670    1.5650    0.7660 C.2   201  HEM201      0.0000
      5  CHD        8.8790    0.4880   -1.5680 C.2   201  HEM201      0.0000
      6  NA        12.3940    3.3230   -3.8560 N.ar  201  HEM201      0.0000
      7  C1A       11.8000    3.4200   -5.1070 C.ar  201  HEM201      0.0000
      8  C2A       12.6490    4.1440   -6.0290 C.ar  201  HEM201      0.0000
      9  C3A       13.7310    4.5520   -5.3290 C.ar  201  HEM201      0.0000
     10  C4A       13.5720    4.0410   -3.9840 C.ar  201  HEM201      0.0000
     11  CMA       14.9070    5.3860   -5.8150 C.3   201  HEM201      0.0000
     12  CAA       12.4350    4.3430   -7.5240 C.3   201  HEM201      0.0000
     13  CBA       12.5840    3.0700   -8.3480 C.3   201  HEM201      0.0000
     14  CGA       13.9360    2.4100   -8.1700 C.2   201  HEM201      0.0000
     15  O1A       14.9630    3.1010   -8.3260 O.co2 201  HEM201      0.0000
     16  O2A       13.9740    1.1950   -7.8830 O.co2 201  HEM201      0.0000
     17  NB        13.3800    2.7770   -1.3340 N.2   201  HEM201      0.0000
     18  C1B       14.4350    3.5800   -1.7450 C.2   201  HEM201      0.0000
     19  C2B       15.4300    3.7100   -0.6990 C.2   201  HEM201      0.0000
     20  C3B       14.9670    3.0020    0.3690 C.2   201  HEM201      0.0000
     21  C4B       13.7250    2.3930   -0.0380 C.2   201  HEM201      0.0000
     22  CMB       16.7190    4.5270   -0.7820 C.3   201  HEM201      0.0000
     23  CAB       15.5060    3.0300    1.6550 C.3   201  HEM201      0.0000
     24  CBB       16.2370    1.9790    2.1910 C.3   201  HEM201      0.0000
     25  NC        11.0450    1.2840   -0.7390 N.ar  201  HEM201      0.0000
     26  C1C       11.7380    1.0190    0.4350 C.ar  201  HEM201      0.0000
     27  C2C       11.0230    0.0710    1.2760 C.ar  201  HEM201      0.0000
     28  C3C        9.8510   -0.2070    0.6520 C.ar  201  HEM201      0.0000
     29  C4C        9.8630    0.5590   -0.5930 C.ar  201  HEM201      0.0000
     30  CMC       11.5010   -0.4760    2.6250 C.3   201  HEM201      0.0000
     31  CAC        8.8570   -1.0930    1.0580 C.3   201  HEM201      0.0000
     32  CBC        8.3650   -1.2310    2.3660 C.3   201  HEM201      0.0000
     33  ND        10.0830    1.8100   -3.2790 N.2   201  HEM201      0.0000
     34  C1D        8.9890    1.0760   -2.8280 C.2   201  HEM201      0.0000
     35  C2D        7.9460    1.0320   -3.8380 C.2   201  HEM201      0.0000
     36  C3D        8.3990    1.7110   -4.9130 C.2   201  HEM201      0.0000
     37  C4D        9.7380    2.1750   -4.5760 C.2   201  HEM201      0.0000
     38  CMD        6.5890    0.3500   -3.7110 C.3   201  HEM201      0.0000
     39  CAD        7.6030    1.9810   -6.1920 C.3   201  HEM201      0.0000
     40  CBD        8.0070    1.1200   -7.3780 C.3   201  HEM201      0.0000
     41  CGD        7.1670    1.4010   -8.6110 C.2   201  HEM201      0.0000
     42  O1D        7.1510    2.5630   -9.0710 O.co2 201  HEM201      0.0000
     43  O2D        6.5220    0.4610   -9.1180 O.co2 201  HEM201      0.0000
@<TRIPOS>BOND
     1    43    41   ar
     2    42    41   ar
     3    41    40    1
     4    13    14    1
     5    13    12    1
     6    15    14   ar
     7    14    16   ar
     8    12     8    1
     9    40    39    1
    10    39    36    1
    11     8     9   ar
    12     8     7   ar
    13    11     9    1
    14     2     7    2
    15     2    37    1
    16     9    10   ar
    17     7     6   ar
    18    36    37    1
    19    36    35    2
    20    37    33    2
    21    10     6   ar
    22    10     3    2
    23     6     1    1
    24    35    38    1
    25    35    34    1
    26    33    34    1
    27    33     1    1
    28     3    18    1
    29    34     5    2
    30     1    17    1
    31     1    25    1
    32    18    17    2
    33    18    19    1
    34     5    29    1
    35    17    21    1
    36    22    19    1
    37    25    29   ar
    38    25    26   ar
    39    19    20    2
    40    29    28   ar
    41    21    20    1
    42    21     4    2
    43    20    23    1
    44    26     4    1
    45    26    27   ar
    46    28    31    1
    47    28    27   ar
    48    31    32    1
    49    27    30    1
    50    23    24    1
