@<TRIPOS>MOLECULE
1m21_III_C_1.pdb
 44 46 0 0 0
SMALL
GASTEIGER

@<TRIPOS>ATOM
      1  N          6.3440   -8.6730   55.5330 N.am    1  PHE1       -0.1770
      2  CA         7.0100   -9.9850   55.2560 C.3     1  PHE1        0.2037
      3  C          6.6860  -10.2180   53.7560 C.2     1  PHE1        0.3846
      4  O          6.3120  -11.1840   53.3980 O.co2   1  PHE1       -0.2437
      5  CB         6.3800  -10.9810   56.2860 C.3     1  PHE1        0.0597
      6  CG         4.8360  -11.0710   56.5080 C.ar    1  PHE1       -0.0199
      7  CD1        3.8750  -10.7100   55.5050 C.ar    1  PHE1       -0.0042
      8  CD2        4.3690  -11.5450   57.7730 C.ar    1  PHE1       -0.0042
      9  CE1        2.4820  -10.8230   55.7700 C.ar    1  PHE1       -0.0003
     10  CE2        2.9730  -11.6560   58.0370 C.ar    1  PHE1       -0.0003
     11  CZ         2.0310  -11.2960   57.0370 C.ar    1  PHE1       -0.0000
     12  OXT        6.8600   -9.2900   52.9190 O.co2   1  PHE1       -0.2437
     13  NE         8.5230   -4.4420   52.3320 N.2     2  CSI2       -0.2056
     14  CD2        9.1670   -5.4790   52.9450 C.1     2  CSI2        0.1238
     15  CD1        7.8400   -3.3930   53.1030 C.3     2  CSI2        0.1397
     16  NH        10.0080   -6.2990   52.2900 N.pl3   2  CSI2       -0.0464
     17  CB         8.3200   -4.7420   55.1160 C.3     2  CSI2        0.1454
     18  CG1        7.2210   -3.9720   54.3500 C.3     2  CSI2        0.0546
     19  NG2        9.0110   -5.7990   54.2830 N.2     2  CSI2       -0.2053
     20  N          6.8460   -6.5000   56.0920 N.am    2  CSI2       -0.1775
     21  CA         7.7860   -5.4150   56.4160 C.3     2  CSI2        0.1974
     22  C          7.1060   -4.3160   57.2380 C.2     2  CSI2        0.2637
     23  O          5.8780   -4.1350   57.1760 O.2     2  CSI2       -0.2714
     24  O3         8.4570   -7.9720   55.8720 O.2     2  CSI2       -0.2492
     25  C7         7.2360   -7.7290   55.8330 C.2     2  CSI2        0.3402
     26  N          7.9530   -3.6080   57.9530 N.am    3  LEU3       -0.1963
     27  CA         7.6230   -2.4520   58.8180 C.3     3  LEU3        0.1728
     28  C          6.2770   -2.5190   59.6240 C.2     3  LEU3        0.2612
     29  O          5.4740   -1.5650   59.6400 O.2     3  LEU3       -0.2715
     30  CB         7.5020   -1.1980   57.9180 C.3     3  LEU3        0.0311
     31  CG         8.7270   -0.9430   57.0230 C.3     3  LEU3        0.0022
     32  CD1        8.5640    0.2870   56.1310 C.3     3  LEU3        0.0001
     33  CD2       10.0160   -0.6960   57.8150 C.3     3  LEU3        0.0001
     34  N          5.9530   -3.6430   60.3090 N.am    4  PHE4       -0.2027
     35  CA         4.6590   -3.7930   61.0960 C.3     4  PHE4        0.1325
     36  C          4.6010   -2.6460   62.1610 C.3     4  PHE4        0.2039
     37  O          4.2160   -2.8030   63.7410 O.3     4  PHE4       -0.2185
     38  CB         4.5830   -5.1770   61.7020 C.3     4  PHE4        0.0507
     39  CG         4.8180   -6.2600   60.6580 C.ar    4  PHE4       -0.0204
     40  CD1        5.9090   -7.1230   60.8490 C.ar    4  PHE4       -0.0042
     41  CD2        3.9610   -6.4060   59.5020 C.ar    4  PHE4       -0.0042
     42  CE1        6.1820   -8.1490   59.9080 C.ar    4  PHE4       -0.0003
     43  CE2        4.2340   -7.4380   58.5560 C.ar    4  PHE4       -0.0003
     44  CZ         5.3470   -8.3030   58.7690 C.ar    4  PHE4       -0.0000
@<TRIPOS>BOND
     1    16    14    1
     2    13    14    2
     3    13    15    1
     4    12     3   ar
     5    14    19    2
     6    15    18    1
     7     4     3   ar
     8     3     2    1
     9    19    17    1
    10    18    17    1
    11    17    21    1
    12     2     1    1
    13     2     5    1
    14     7     9   ar
    15     7     6   ar
    16     1    25   am
    17     9    11   ar
    18    25    24    2
    19    25    20   am
    20    20    21    1
    21    32    31    1
    22     5     6    1
    23    21    22    1
    24     6     8   ar
    25    31    33    1
    26    31    30    1
    27    11    10   ar
    28    23    22    2
    29    22    26   am
    30     8    10   ar
    31    30    27    1
    32    26    27    1
    33    43    44   ar
    34    43    41   ar
    35    44    42   ar
    36    27    28    1
    37    41    39   ar
    38    28    29    2
    39    28    34   am
    40    42    40   ar
    41    34    35    1
    42    39    40   ar
    43    39    38    1
    44    35    38    1
    45    35    36    1
    46    36    37    1
