@<TRIPOS>MOLECULE
1m26_A2G_A_1.pdb
 15 15 0 0 0
SMALL
GASTEIGER

@<TRIPOS>ATOM
      1  C1        16.3250    7.3020   50.2080 C.3   135  A2G135      0.2917
      2  C2        16.0530    8.5020   49.3160 C.3   135  A2G135      0.1871
      3  C3        14.5530    8.6920   49.1030 C.3   135  A2G135      0.2095
      4  C4        13.9690    7.4570   48.3560 C.3   135  A2G135      0.2136
      5  C5        14.1960    6.2130   49.3080 C.3   135  A2G135      0.1835
      6  C6        13.6540    4.9120   48.6990 C.3   135  A2G135      0.2142
      7  C7        17.5840   10.3770   49.3470 C.2   135  A2G135      0.2421
      8  C8        18.3020   11.4100   50.1920 C.3   135  A2G135      0.0964
      9  O         15.6700    6.1140   49.6120 O.3   135  A2G135     -0.3242
     10  O1        15.8390    7.4850   51.5400 O.3   135  A2G135     -0.1879
     11  O3        14.3550    9.8230   48.2920 O.3   135  A2G135     -0.2183
     12  O4        14.7080    7.3180   47.1270 O.3   135  A2G135     -0.2176
     13  O6        14.4660    4.4410   47.6380 O.3   135  A2G135     -0.2176
     14  O7        17.7710   10.3600   48.1210 O.2   135  A2G135     -0.2733
     15  N2        16.7640    9.5060   49.9890 N.am  135  A2G135     -0.1991
@<TRIPOS>BOND
     1    12     4    1
     2    13     6    1
     3    14     7    2
     4    11     3    1
     5     4     3    1
     6     4     5    1
     7     6     5    1
     8     3     2    1
     9     5     9    1
    10     2    15    1
    11     2     1    1
    12     7    15   am
    13     7     8    1
    14     9     1    1
    15     1    10    1
