@<TRIPOS>MOLECULE
1m2g_APR_A_1.pdb
 36 39 0 0 0
SMALL
GASTEIGER

@<TRIPOS>ATOM
      1  N1        -5.7700    6.4470   12.7170 N.2   1001  APR1001     0.0021
      2  C2        -5.3100    5.5360   13.6810 C.3   1001  APR1001     0.5254
      3  N3        -5.7900    4.2260   13.6830 N.2   1001  APR1001    -0.0055
      4  C4        -6.7260    3.8410   12.7240 C.2   1001  APR1001     0.3518
      5  C5        -7.1890    4.7450   11.7650 C.2   1001  APR1001     0.2526
      6  C6        -6.7070    6.0860   11.7480 C.2   1001  APR1001     0.4393
      7  N6        -7.1250    6.9870   10.8340 N.pl3 1001  APR1001     0.2180
      8  N7        -8.0630    4.1160   10.9920 N.2   1001  APR1001    -0.2095
      9  C8        -8.1400    2.8290   11.4600 C.3   1001  APR1001     0.3377
     10  N9        -7.2960    2.5710   12.5870 N.pl3 1001  APR1001    -0.1439
     11  C1'       -7.0020    1.4540   13.4050 C.3   1001  APR1001     0.3186
     12  C2'       -8.0750    0.5020   13.5260 C.3   1001  APR1001     0.2570
     13  O2'       -9.0360    0.8220   14.3920 O.3   1001  APR1001    -0.2130
     14  C3'       -7.3780   -0.7080   13.7990 C.3   1001  APR1001     0.2184
     15  O3'       -7.3240   -0.9920   15.1100 O.3   1001  APR1001    -0.2174
     16  O4'       -6.0270    0.7450   12.8190 O.3   1001  APR1001    -0.3135
     17  C4'       -6.0370   -0.5150   13.3140 C.3   1001  APR1001     0.1821
     18  C5'       -5.5820   -1.4240   12.2560 C.3   1001  APR1001     0.1813
     19  O5'       -5.5800   -2.7040   12.6680 O.3   1001  APR1001    -0.3112
     20  PA        -5.0670   -3.7980   11.5650 P.3   1001  APR1001     0.2189
     21  O1A       -5.8940   -3.6800   10.2270 O.2   1001  APR1001    -0.5170
     22  O2A       -5.1690   -5.2330   12.2070 O.3   1001  APR1001    -0.4371
     23  O3A       -3.5370   -3.4180   11.1760 O.3   1001  APR1001    -0.2703
     24  PB        -2.2590   -3.9680   12.0130 P.3   1001  APR1001     0.2189
     25  O1B       -2.4540   -3.9690   13.5800 O.3   1001  APR1001    -0.4371
     26  O2B       -1.0440   -3.0560   11.5940 O.2   1001  APR1001    -0.5170
     27  O5D       -2.0260   -5.4730   11.4410 O.3   1001  APR1001    -0.3112
     28  C5D       -1.0200   -6.1740   11.9330 C.3   1001  APR1001     0.1813
     29  O4D       -1.4980   -7.9470   10.4550 O.3   1001  APR1001    -0.3237
     30  O1D       -1.9050   -9.2670    8.6950 O.3   1001  APR1001    -0.1869
     31  C1D       -1.6230   -7.9440    9.1750 C.3   1001  APR1001     0.3023
     32  O2D        0.8950   -8.3450    8.6440 O.3   1001  APR1001    -0.2148
     33  C2D       -0.2050   -7.6300    8.7370 C.3   1001  APR1001     0.2433
     34  O3D        1.0760   -5.9080    9.6930 O.3   1001  APR1001    -0.2175
     35  C3D       -0.1000   -6.5410    9.6790 C.3   1001  APR1001     0.2168
     36  C4D       -0.5640   -7.1120   10.8970 C.3   1001  APR1001     0.1807
@<TRIPOS>BOND
     1    32    33    1
     2    30    31    1
     3    33    31    1
     4    33    35    1
     5    31    29    1
     6    35    34    1
     7    35    36    1
     8    21    20    2
     9    29    36    1
    10     7     6    1
    11    36    28    1
    12     8     9    1
    13     8     5    2
    14    23    20    1
    15    23    24    1
    16    27    28    1
    17    27    24    1
    18     9    10    1
    19    20    22    1
    20    20    19    1
    21    26    24    2
    22     6     5    1
    23     6     1    2
    24     5     4    1
    25    24    25    1
    26    18    19    1
    27    18    17    1
    28    10     4    1
    29    10    11    1
    30     1     2    1
    31     4     3    2
    32    16    17    1
    33    16    11    1
    34    17    14    1
    35    11    12    1
    36    12    14    1
    37    12    13    1
    38     2     3    1
    39    14    15    1
