@<TRIPOS>MOLECULE
1m2h_APR_A_1.pdb
 36 39 0 0 0
SMALL
GASTEIGER

@<TRIPOS>ATOM
      1  N1        -5.6300    6.3600   12.7350 N.2   1001  APR1001     0.0021
      2  C2        -5.1740    5.4410   13.6900 C.3   1001  APR1001     0.5254
      3  N3        -5.6640    4.1340   13.6870 N.2   1001  APR1001    -0.0055
      4  C4        -6.6080    3.7590   12.7330 C.2   1001  APR1001     0.3518
      5  C5        -7.0680    4.6710   11.7800 C.2   1001  APR1001     0.2526
      6  C6        -6.5790    6.0070   11.7670 C.2   1001  APR1001     0.4393
      7  N6        -7.0000    6.9100   10.8570 N.pl3 1001  APR1001     0.2180
      8  N7        -7.9490    4.0540   11.0090 N.2   1001  APR1001    -0.2095
      9  C8        -8.0350    2.7680   11.4710 C.3   1001  APR1001     0.3377
     10  N9        -7.1880    2.4980   12.5920 N.pl3 1001  APR1001    -0.1439
     11  C1'       -6.9050    1.3740   13.4070 C.3   1001  APR1001     0.3186
     12  C2'       -7.9810    0.4260   13.4960 C.3   1001  APR1001     0.2570
     13  O2'       -8.9780    0.7570   14.3120 O.3   1001  APR1001    -0.2130
     14  C3'       -7.2940   -0.7840   13.8050 C.3   1001  APR1001     0.2184
     15  O3'       -7.2740   -1.0590   15.1180 O.3   1001  APR1001    -0.2174
     16  O4'       -5.9210    0.6650   12.8450 O.3   1001  APR1001    -0.3135
     17  C4'       -5.9460   -0.5940   13.3510 C.3   1001  APR1001     0.1821
     18  C5'       -5.4810   -1.5020   12.2980 C.3   1001  APR1001     0.1813
     19  O5'       -5.4930   -2.7830   12.7030 O.3   1001  APR1001    -0.3112
     20  PA        -4.9630   -3.8600   11.5860 P.3   1001  APR1001     0.2189
     21  O1A       -5.7890   -3.7500   10.2390 O.2   1001  APR1001    -0.5170
     22  O2A       -5.0660   -5.3170   12.2010 O.3   1001  APR1001    -0.4371
     23  O3A       -3.4390   -3.4760   11.2020 O.3   1001  APR1001    -0.2703
     24  PB        -2.1640   -4.0490   12.0360 P.3   1001  APR1001     0.2189
     25  O1B       -2.3590   -3.9970   13.6040 O.3   1001  APR1001    -0.4371
     26  O2B       -0.9160   -3.1870   11.5960 O.2   1001  APR1001    -0.5170
     27  O5D       -1.9680   -5.5650   11.5130 O.3   1001  APR1001    -0.3112
     28  C5D       -0.9590   -6.2640   12.0070 C.3   1001  APR1001     0.1813
     29  O4D       -1.4080   -8.0100   10.5090 O.3   1001  APR1001    -0.3237
     30  O1D       -1.8830   -9.2660    8.7240 O.3   1001  APR1001    -0.1869
     31  C1D       -1.5840   -7.9640    9.2400 C.3   1001  APR1001     0.3023
     32  O2D        0.9170   -8.2890    8.5910 O.3   1001  APR1001    -0.2148
     33  C2D       -0.1950   -7.6090    8.7530 C.3   1001  APR1001     0.2433
     34  O3D        1.0880   -5.8960    9.7010 O.3   1001  APR1001    -0.2175
     35  C3D       -0.0730   -6.5490    9.7230 C.3   1001  APR1001     0.2168
     36  C4D       -0.4800   -7.1630   10.9440 C.3   1001  APR1001     0.1807
@<TRIPOS>BOND
     1    32    33    1
     2    30    31    1
     3    33    31    1
     4    33    35    1
     5    31    29    1
     6    34    35    1
     7    35    36    1
     8    21    20    2
     9    29    36    1
    10     7     6    1
    11    36    28    1
    12     8     9    1
    13     8     5    2
    14    23    20    1
    15    23    24    1
    16     9    10    1
    17    27    28    1
    18    27    24    1
    19    20    22    1
    20    20    19    1
    21    26    24    2
    22     6     5    1
    23     6     1    2
    24     5     4    1
    25    24    25    1
    26    18    19    1
    27    18    17    1
    28    10     4    1
    29    10    11    1
    30     4     3    2
    31     1     2    1
    32    16    17    1
    33    16    11    1
    34    17    14    1
    35    11    12    1
    36    12    14    1
    37    12    13    1
    38     3     2    1
    39    14    15    1
