@<TRIPOS>MOLECULE
1m2i_HEM_A_1.pdb
 43 50 0 0 0
SMALL
GASTEIGER

@<TRIPOS>ATOM
      1 FE         11.6560    2.2160   -2.2710 Fe    201  HEM201      0.0000
      2  CHA       10.4860    2.8190   -5.4290 C.2   201  HEM201      0.0000
      3  CHB       14.3910    4.1890   -2.9050 C.2   201  HEM201      0.0000
      4  CHC       12.9280    1.4730    0.8030 C.2   201  HEM201      0.0000
      5  CHD        8.8020    0.4170   -1.5390 C.2   201  HEM201      0.0000
      6  NA        12.3050    3.2610   -3.8230 N.ar  201  HEM201      0.0000
      7  C1A       11.7310    3.3460   -5.0910 C.ar  201  HEM201      0.0000
      8  C2A       12.5990    4.0850   -6.0050 C.ar  201  HEM201      0.0000
      9  C3A       13.6540    4.5140   -5.2640 C.ar  201  HEM201      0.0000
     10  C4A       13.4620    4.0110   -3.9230 C.ar  201  HEM201      0.0000
     11  CMA       14.8590    5.3380   -5.7120 C.3   201  HEM201      0.0000
     12  CAA       12.4280    4.2470   -7.5120 C.3   201  HEM201      0.0000
     13  CBA       12.6760    2.9660   -8.3050 C.3   201  HEM201      0.0000
     14  CGA       14.0780    2.4210   -8.1110 C.2   201  HEM201      0.0000
     15  O1A       15.0430    3.1870   -8.3010 O.co2 201  HEM201      0.0000
     16  O2A       14.2180    1.2260   -7.7730 O.co2 201  HEM201      0.0000
     17  NB        13.2870    2.7340   -1.2650 N.2   201  HEM201      0.0000
     18  C1B       14.3160    3.5560   -1.6630 C.2   201  HEM201      0.0000
     19  C2B       15.3420    3.6380   -0.6480 C.2   201  HEM201      0.0000
     20  C3B       14.9070    2.9320    0.4090 C.2   201  HEM201      0.0000
     21  C4B       13.6600    2.3360    0.0120 C.2   201  HEM201      0.0000
     22  CMB       16.6570    4.4130   -0.7340 C.3   201  HEM201      0.0000
     23  CAB       15.4940    2.9490    1.6750 C.3   201  HEM201      0.0000
     24  CBB       16.3950    1.9970    2.1560 C.3   201  HEM201      0.0000
     25  NC        11.0170    1.1700   -0.7210 N.ar  201  HEM201      0.0000
     26  C1C       11.7150    0.9060    0.4480 C.ar  201  HEM201      0.0000
     27  C2C       10.9960   -0.0460    1.2900 C.ar  201  HEM201      0.0000
     28  C3C        9.8080   -0.3220    0.6690 C.ar  201  HEM201      0.0000
     29  C4C        9.8160    0.4610   -0.5740 C.ar  201  HEM201      0.0000
     30  CMC       11.4930   -0.6070    2.6220 C.3   201  HEM201      0.0000
     31  CAC        8.7800   -1.1900    1.0510 C.3   201  HEM201      0.0000
     32  CBC        8.5570   -1.7900    2.3030 C.3   201  HEM201      0.0000
     33  ND        10.0090    1.7200   -3.2600 N.2   201  HEM201      0.0000
     34  C1D        8.8880    1.0310   -2.7940 C.2   201  HEM201      0.0000
     35  C2D        7.8260    1.0610   -3.7770 C.2   201  HEM201      0.0000
     36  C3D        8.3110    1.6610   -4.8800 C.2   201  HEM201      0.0000
     37  C4D        9.6700    2.0800   -4.5660 C.2   201  HEM201      0.0000
     38  CMD        6.4110    0.5490   -3.6060 C.3   201  HEM201      0.0000
     39  CAD        7.5940    1.7530   -6.2300 C.3   201  HEM201      0.0000
     40  CBD        8.1290    0.6770   -7.1600 C.3   201  HEM201      0.0000
     41  CGD        7.4910    0.7190   -8.5360 C.2   201  HEM201      0.0000
     42  O1D        7.8150   -0.1560   -9.3660 O.co2 201  HEM201      0.0000
     43  O2D        6.6630    1.6190   -8.7840 O.co2 201  HEM201      0.0000
@<TRIPOS>BOND
     1    42    41   ar
     2    43    41   ar
     3    41    40    1
     4    13    14    1
     5    13    12    1
     6    15    14   ar
     7    14    16   ar
     8    12     8    1
     9    40    39    1
    10    39    36    1
    11     8     9   ar
    12     8     7   ar
    13    11     9    1
    14     2     7    2
    15     2    37    1
    16     9    10   ar
    17     7     6   ar
    18    36    37    1
    19    36    35    2
    20    37    33    2
    21    10     6   ar
    22    10     3    2
    23     6     1    1
    24    35    38    1
    25    35    34    1
    26    33    34    1
    27    33     1    1
    28     3    18    1
    29    34     5    2
    30     1    17    1
    31     1    25    1
    32    18    17    2
    33    18    19    1
    34     5    29    1
    35    17    21    1
    36    22    19    1
    37    25    29   ar
    38    25    26   ar
    39    19    20    2
    40    29    28   ar
    41    21    20    1
    42    21     4    2
    43    20    23    1
    44    26     4    1
    45    26    27   ar
    46    28    31    1
    47    28    27   ar
    48    31    32    1
    49    27    30    1
    50    23    24    1
