@<TRIPOS>MOLECULE
1m2j_APR_A_1.pdb
 36 39 0 0 0
SMALL
GASTEIGER

@<TRIPOS>ATOM
      1  N1        -5.7030    6.5020   12.7860 N.2   1001  APR1001     0.0021
      2  C2        -5.2430    5.5890   13.7430 C.3   1001  APR1001     0.5254
      3  N3        -5.7260    4.2810   13.7430 N.2   1001  APR1001    -0.0055
      4  C4        -6.6660    3.8970   12.7900 C.2   1001  APR1001     0.3518
      5  C5        -7.1320    4.8040   11.8360 C.2   1001  APR1001     0.2526
      6  C6        -6.6460    6.1450   11.8190 C.2   1001  APR1001     0.4393
      7  N6        -7.0670    7.0470   10.9080 N.pl3 1001  APR1001     0.2180
      8  N7        -8.0070    4.1810   11.0650 N.2   1001  APR1001    -0.2095
      9  C8        -8.0860    2.8950   11.5300 C.3   1001  APR1001     0.3377
     10  N9        -7.2400    2.6300   12.6520 N.pl3 1001  APR1001    -0.1439
     11  C1'       -6.9540    1.5040   13.4620 C.3   1001  APR1001     0.3186
     12  C2'       -8.0370    0.5660   13.5700 C.3   1001  APR1001     0.2570
     13  O2'       -8.9990    0.8930   14.4290 O.3   1001  APR1001    -0.2130
     14  C3'       -7.3570   -0.6610   13.8340 C.3   1001  APR1001     0.2184
     15  O3'       -7.3080   -0.9640   15.1400 O.3   1001  APR1001    -0.2174
     16  O4'       -5.9840    0.7880   12.8790 O.3   1001  APR1001    -0.3135
     17  C4'       -6.0160   -0.4780   13.3620 C.3   1001  APR1001     0.1821
     18  C5'       -5.5670   -1.3820   12.3050 C.3   1001  APR1001     0.1813
     19  O5'       -5.5910   -2.6610   12.7110 O.3   1001  APR1001    -0.3112
     20  PA        -5.0830   -3.7510   11.5960 P.3   1001  APR1001     0.2189
     21  O1A       -5.9150   -3.6270   10.2530 O.2   1001  APR1001    -0.5170
     22  O2A       -5.2060   -5.1980   12.2170 O.3   1001  APR1001    -0.4371
     23  O3A       -3.5490   -3.4040   11.2010 O.3   1001  APR1001    -0.2703
     24  PB        -2.2730   -3.9450   12.0490 P.3   1001  APR1001     0.2189
     25  O1B       -2.4790   -3.9230   13.6140 O.3   1001  APR1001    -0.4371
     26  O2B       -1.0510   -3.0400   11.6290 O.2   1001  APR1001    -0.5170
     27  O5D       -2.0440   -5.4560   11.5030 O.3   1001  APR1001    -0.3112
     28  C5D       -1.0350   -6.1530   11.9930 C.3   1001  APR1001     0.1813
     29  O4D       -1.5380   -7.9090   10.5120 O.3   1001  APR1001    -0.3237
     30  O1D       -1.9980   -9.2050    8.7410 O.3   1001  APR1001    -0.1869
     31  C1D       -1.6790   -7.8920    9.2340 C.3   1001  APR1001     0.3023
     32  O2D        0.8200   -8.3210    8.6670 O.3   1001  APR1001    -0.2148
     33  C2D       -0.2680   -7.5960    8.7790 C.3   1001  APR1001     0.2433
     34  O3D        1.0470   -5.8920    9.7220 O.3   1001  APR1001    -0.2175
     35  C3D       -0.1360   -6.5120    9.7260 C.3   1001  APR1001     0.2168
     36  C4D       -0.5890   -7.0860   10.9490 C.3   1001  APR1001     0.1807
@<TRIPOS>BOND
     1    32    33    1
     2    30    31    1
     3    33    31    1
     4    33    35    1
     5    31    29    1
     6    34    35    1
     7    35    36    1
     8    21    20    2
     9    29    36    1
    10     7     6    1
    11    36    28    1
    12     8     9    1
    13     8     5    2
    14    23    20    1
    15    23    24    1
    16    27    28    1
    17    27    24    1
    18     9    10    1
    19    20    22    1
    20    20    19    1
    21    26    24    2
    22     6     5    1
    23     6     1    2
    24     5     4    1
    25    24    25    1
    26    18    19    1
    27    18    17    1
    28    10     4    1
    29    10    11    1
    30     1     2    1
    31     4     3    2
    32    16    17    1
    33    16    11    1
    34    17    14    1
    35    11    12    1
    36    12    14    1
    37    12    13    1
    38     3     2    1
    39    14    15    1
