@<TRIPOS>MOLECULE
1m2k_APR_A_1.pdb
 36 39 0 0 0
SMALL
GASTEIGER

@<TRIPOS>ATOM
      1  N1        -5.9530    5.8200   13.9340 N.2   1001  APR1001     0.0021
      2  C2        -5.3550    4.9800   14.8820 C.3   1001  APR1001     0.5254
      3  N3        -5.7310    3.6410   14.9490 N.2   1001  APR1001    -0.0055
      4  C4        -6.6930    3.1510   14.0800 C.2   1001  APR1001     0.3518
      5  C5        -7.2950    3.9760   13.1380 C.2   1001  APR1001     0.2526
      6  C6        -6.9280    5.3510   13.0460 C.2   1001  APR1001     0.4393
      7  N6        -7.4850    6.1800   12.1420 N.pl3 1001  APR1001     0.2180
      8  N7        -8.1680    3.2470   12.4510 N.2   1001  APR1001    -0.2095
      9  C8        -8.1070    1.9870   12.9570 C.3   1001  APR1001     0.3377
     10  N9        -7.1660    1.8380   14.0230 N.pl3 1001  APR1001    -0.1439
     11  C1'       -6.7210    0.7790   14.8550 C.3   1001  APR1001     0.3186
     12  C2'       -7.6970   -0.2540   15.0530 C.3   1001  APR1001     0.2570
     13  O2'       -8.6360    0.0150   15.9510 O.3   1001  APR1001    -0.2130
     14  C3'       -6.8910   -1.4010   15.3070 C.3   1001  APR1001     0.2184
     15  O3'       -6.7360   -1.6600   16.6160 O.3   1001  APR1001    -0.2174
     16  O4'       -5.7020    0.1540   14.2630 O.3   1001  APR1001    -0.3135
     17  C4'       -5.5970   -1.0960   14.7530 C.3   1001  APR1001     0.1821
     18  C5'       -5.1330   -1.9560   13.6640 C.3   1001  APR1001     0.1813
     19  O5'       -5.0340   -3.2270   14.0650 O.3   1001  APR1001    -0.3112
     20  PA        -4.5070   -4.2950   12.9450 P.3   1001  APR1001     0.2189
     21  O1A       -5.4120   -4.2540   11.6470 O.2   1001  APR1001    -0.5170
     22  O2A       -4.5170   -5.7310   13.6000 O.3   1001  APR1001    -0.4371
     23  O3A       -3.0210   -3.8680   12.4580 O.3   1001  APR1001    -0.2703
     24  PB        -1.6700   -4.2520   13.2890 P.3   1001  APR1001     0.2189
     25  O1B       -1.7940   -4.0560   14.8550 O.3   1001  APR1001    -0.4371
     26  O2B       -0.5240   -3.3500   12.6970 O.2   1001  APR1001    -0.5170
     27  O5D       -1.3700   -5.7690   12.7170 O.3   1001  APR1001    -0.3112
     28  C5D       -0.2700   -6.5350   13.2250 C.3   1001  APR1001     0.1813
     29  O4D       -0.7790   -8.2670   11.7060 O.3   1001  APR1001    -0.3237
     30  O1D       -1.2660   -9.5970   10.2320 O.3   1001  APR1001    -0.1869
     31  C1D       -0.9700   -8.3690   10.5300 C.3   1001  APR1001     0.3023
     32  O2D        0.9850   -8.6620    9.7270 O.3   1001  APR1001    -0.2148
     33  C2D        0.1280   -7.9070    9.9260 C.3   1001  APR1001     0.2433
     34  O3D        1.5390   -6.1700   10.5020 O.3   1001  APR1001    -0.2175
     35  C3D        0.4000   -6.7990   10.7380 C.3   1001  APR1001     0.2168
     36  C4D        0.2070   -7.2530   12.0710 C.3   1001  APR1001     0.1807
@<TRIPOS>BOND
     1    32    33    1
     2    33    31    1
     3    33    35    1
     4    30    31    1
     5    34    35    1
     6    31    29    1
     7    35    36    1
     8    21    20    2
     9    29    36    1
    10    36    28    1
    11     7     6    1
    12     8     9    1
    13     8     5    2
    14    23    20    1
    15    23    24    1
    16    26    24    2
    17    27    28    1
    18    27    24    1
    19    20    22    1
    20    20    19    1
    21     9    10    1
    22     6     5    1
    23     6     1    2
    24     5     4    1
    25    24    25    1
    26    18    19    1
    27    18    17    1
    28     1     2    1
    29    10     4    1
    30    10    11    1
    31     4     3    2
    32    16    17    1
    33    16    11    1
    34    17    14    1
    35    11    12    1
    36     2     3    1
    37    12    14    1
    38    12    13    1
    39    14    15    1
