@<TRIPOS>MOLECULE
1m2m_HEM_A_1.pdb
 43 50 0 0 0
SMALL
GASTEIGER

@<TRIPOS>ATOM
      1 FE         21.9400    7.0990    7.0750 Fe    201  HEM201      0.0000
      2  CHA       24.9140    7.6680    5.4880 C.2   201  HEM201      0.0000
      3  CHB       22.8800    9.2610    9.5890 C.2   201  HEM201      0.0000
      4  CHC       19.0370    6.4080    8.7560 C.2   201  HEM201      0.0000
      5  CHD       20.9400    5.0660    4.4990 C.2   201  HEM201      0.0000
      6  NA        23.5450    8.2180    7.4580 N.2   201  HEM201      0.0000
      7  C1A       24.7240    8.2710    6.7210 C.2   201  HEM201      0.0000
      8  C2A       25.7240    9.0960    7.3990 C.2   201  HEM201      0.0000
      9  C3A       25.1210    9.6380    8.4850 C.2   201  HEM201      0.0000
     10  C4A       23.7600    9.0820    8.5260 C.2   201  HEM201      0.0000
     11  CMA       25.7260   10.6580    9.4580 C.3   201  HEM201      0.0000
     12  CAA       27.1810    9.3210    6.9460 C.3   201  HEM201      0.0000
     13  CBA       28.1030    8.1210    7.1360 C.3   201  HEM201      0.0000
     14  CGA       28.1950    7.6740    8.5800 C.2   201  HEM201      0.0000
     15  O1A       28.4960    8.5180    9.4480 O.co2 201  HEM201      0.0000
     16  O2A       27.9660    6.4770    8.8500 O.co2 201  HEM201      0.0000
     17  NB        21.1360    7.7070    8.7820 N.ar  201  HEM201      0.0000
     18  C1B       21.6740    8.5940    9.7260 C.ar  201  HEM201      0.0000
     19  C2B       20.7960    8.7450   10.8750 C.ar  201  HEM201      0.0000
     20  C3B       19.7240    7.9550   10.6660 C.ar  201  HEM201      0.0000
     21  C4B       19.9250    7.3090    9.3590 C.ar  201  HEM201      0.0000
     22  CMB       20.9860    9.7230   12.0400 C.3   201  HEM201      0.0000
     23  CAB       18.6050    7.9550   11.4860 C.3   201  HEM201      0.0000
     24  CBB       18.1590    6.8590   12.2240 C.3   201  HEM201      0.0000
     25  NC        20.3440    5.9670    6.7180 N.2   201  HEM201      0.0000
     26  C1C       19.2650    5.7600    7.5420 C.2   201  HEM201      0.0000
     27  C2C       18.3530    4.7770    6.9640 C.2   201  HEM201      0.0000
     28  C3C       18.8630    4.3950    5.7480 C.2   201  HEM201      0.0000
     29  C4C       20.1000    5.1500    5.6070 C.2   201  HEM201      0.0000
     30  CMC       17.0560    4.3070    7.6450 C.3   201  HEM201      0.0000
     31  CAC       18.3760    3.4890    4.7860 C.3   201  HEM201      0.0000
     32  CBC       17.1120    2.8900    4.7680 C.3   201  HEM201      0.0000
     33  ND        22.7320    6.5320    5.3730 N.ar  201  HEM201      0.0000
     34  C1D       22.1540    5.7270    4.3870 C.ar  201  HEM201      0.0000
     35  C2D       23.0150    5.5910    3.2550 C.ar  201  HEM201      0.0000
     36  C3D       24.1610    6.2340    3.5530 C.ar  201  HEM201      0.0000
     37  C4D       23.9820    6.8580    4.8530 C.ar  201  HEM201      0.0000
     38  CMD       22.7150    4.9000    1.9230 C.3   201  HEM201      0.0000
     39  CAD       25.3890    6.1150    2.6600 C.3   201  HEM201      0.0000
     40  CBD       25.9110    7.3790    2.0060 C.3   201  HEM201      0.0000
     41  CGD       27.0130    7.0840    1.0030 C.2   201  HEM201      0.0000
     42  O1D       27.7890    6.1370    1.2510 O.co2 201  HEM201      0.0000
     43  O2D       27.1050    7.7980   -0.0210 O.co2 201  HEM201      0.0000
@<TRIPOS>BOND
     1    43    41   ar
     2    41    42   ar
     3    41    40    1
     4    38    35    1
     5    40    39    1
     6    39    36    1
     7    35    36   ar
     8    35    34   ar
     9    36    37   ar
    10    34     5    2
    11    34    33   ar
    12     5    29    1
    13    32    31    1
    14    31    28    1
    15    37    33   ar
    16    37     2    2
    17    33     1    1
    18     2     7    1
    19    29    28    1
    20    29    25    2
    21    28    27    2
    22    25     1    1
    23    25    26    1
    24     7     8    1
    25     7     6    2
    26    12    13    1
    27    12     8    1
    28    27    26    1
    29    27    30    1
    30     1     6    1
    31     1    17    1
    32    13    14    1
    33     8     9    2
    34     6    10    1
    35    26     4    2
    36     9    10    1
    37     9    11    1
    38    10     3    2
    39    14    16   ar
    40    14    15   ar
    41     4    21    1
    42    17    21   ar
    43    17    18   ar
    44    21    20   ar
    45     3    18    1
    46    18    19   ar
    47    20    19   ar
    48    20    23    1
    49    19    22    1
    50    23    24    1
