@<TRIPOS>MOLECULE
1m2n_OAD_B_1.pdb
 39 42 0 0 0
SMALL
GASTEIGER

@<TRIPOS>ATOM
      1  PA        -1.3190   49.7760   42.1040 P.3   1001  OAD1001     0.2189
      2  O1A       -2.0690   49.8580   43.4230 O.3   1001  OAD1001    -0.4371
      3  O2A       -2.2050   50.4560   41.0050 O.2   1001  OAD1001    -0.5170
      4  O5'       -1.0490   48.2530   41.6310 O.3   1001  OAD1001    -0.3112
      5  C5'       -0.3110   47.4240   42.3930 C.3   1001  OAD1001     0.1813
      6  C4'       -0.2080   46.0940   41.7280 C.3   1001  OAD1001     0.1821
      7  O4'        0.5080   45.3120   42.4980 O.3   1001  OAD1001    -0.3135
      8  C3'       -1.4660   45.4050   41.5140 C.3   1001  OAD1001     0.2184
      9  O3'       -1.5910   45.3060   40.1330 O.3   1001  OAD1001    -0.2174
     10  C2'       -1.3810   44.1270   42.2740 C.3   1001  OAD1001     0.2570
     11  O2'       -1.9660   42.9660   41.8230 O.3   1001  OAD1001    -0.2130
     12  C1'        0.0500   44.0500   42.5240 C.3   1001  OAD1001     0.3186
     13  N9         0.4060   43.5660   43.7790 N.pl3 1001  OAD1001    -0.1439
     14  C8        -0.1770   43.5530   45.0970 C.3   1001  OAD1001     0.3377
     15  N7         0.5690   42.9480   46.0090 N.2   1001  OAD1001    -0.2095
     16  C5         1.6440   42.5380   45.3970 C.2   1001  OAD1001     0.2526
     17  C6         2.8340   41.8050   45.8640 C.2   1001  OAD1001     0.4393
     18  N6         2.9800   41.4120   47.1770 N.pl3 1001  OAD1001     0.2180
     19  N1         3.8620   41.5120   44.8750 N.2   1001  OAD1001     0.0021
     20  C2         3.7480   41.9050   43.4850 C.3   1001  OAD1001     0.5254
     21  N3         2.5740   42.6080   43.0880 N.2   1001  OAD1001    -0.0055
     22  C4         1.5540   42.9080   44.0340 C.2   1001  OAD1001     0.3518
     23  O3A        0.0930   50.4890   42.2430 O.3   1001  OAD1001    -0.2703
     24  PB         0.8700   51.0480   40.9630 P.3   1001  OAD1001     0.2189
     25  O1B        0.7580   50.1330   39.7090 O.2   1001  OAD1001    -0.5170
     26  O2B        2.4150   51.1890   41.0850 O.3   1001  OAD1001    -0.4371
     27  O2D        0.9190   57.5300   42.1280 O.3   1001  OAD1001    -0.4441
     28  O5D        0.1510   52.5020   40.7520 O.3   1001  OAD1001    -0.3112
     29  C5D        0.5300   53.3050   39.7600 C.3   1001  OAD1001     0.1813
     30  C4D        0.6260   54.7560   40.1290 C.3   1001  OAD1001     0.1819
     31  O4D       -0.5190   55.4680   40.1000 O.3   1001  OAD1001    -0.3229
     32  C3D        1.2000   55.1060   41.5100 C.3   1001  OAD1001     0.2264
     33  O3D        2.4650   55.4780   41.3850 O.3   1001  OAD1001    -0.2164
     34  C2D        0.3780   56.2530   41.9440 C.3   1001  OAD1001     0.2601
     35  C1D       -0.7240   56.1490   41.1610 C.3   1001  OAD1001     0.3122
     36  O1D       -1.1760   57.3610   40.6240 O.3   1001  OAD1001    -0.1857
     37  C6D        0.7150   58.3500   43.2200 C.2   1001  OAD1001     0.3177
     38  O6D        1.2130   58.1860   44.4570 O.2   1001  OAD1001    -0.2501
     39  C7D       -0.1690   59.5730   43.0020 C.3   1001  OAD1001     0.1212
@<TRIPOS>BOND
     1    25    24    2
     2    29    30    1
     3    29    28    1
     4    31    30    1
     5    31    35    1
     6    30    32    1
     7     9     8    1
     8    36    35    1
     9    28    24    1
    10    24    26    1
    11    24    23    1
    12     3     1    2
    13    35    34    1
    14    33    32    1
    15    32    34    1
    16     8     6    1
    17     8    10    1
    18     4     1    1
    19     4     5    1
    20     6     5    1
    21     6     7    1
    22    11    10    1
    23    34    27    1
    24     1    23    1
    25     1     2    1
    26    27    37    1
    27    10    12    1
    28     7    12    1
    29    12    13    1
    30    39    37    1
    31    21    20    1
    32    21    22    2
    33    37    38    2
    34    20    19    1
    35    13    22    1
    36    13    14    1
    37    22    16    1
    38    19    17    2
    39    14    15    1
    40    16    17    1
    41    16    15    2
    42    17    18    1
