@<TRIPOS>MOLECULE
1m2p_HNA_A_1.pdb
 21 23 0 0 0
SMALL
GASTEIGER

@<TRIPOS>ATOM
      1  C1        25.4730    3.5510   18.0020 C.ar  351  HNA351      0.1989
      2  C2        24.7120    4.7670   17.8750 C.ar  351  HNA351      0.0826
      3  C3        23.9660    5.2700   19.0040 C.ar  351  HNA351      0.0676
      4  C4        23.9970    4.5440   20.2210 C.ar  351  HNA351      0.1462
      5  C5        24.7510    3.3410   20.3100 C.ar  351  HNA351      0.0275
      6  C6        25.4880    2.8460   19.2180 C.ar  351  HNA351      0.0438
      7  C13       23.1930    6.5650   18.8220 C.2   351  HNA351      0.1976
      8  C14       23.1880    7.2810   17.5300 C.ar  351  HNA351      0.0452
      9  C15       23.9130    6.7760   16.4070 C.ar  351  HNA351      0.0810
     10  C16       24.7000    5.5090   16.5640 C.2   351  HNA351      0.2020
     11  C22       23.8740    7.5060   15.1610 C.ar  351  HNA351      0.1988
     12  C23       23.1230    8.7050   15.0700 C.ar  351  HNA351      0.0421
     13  C24       22.4120    9.2000   16.1920 C.ar  351  HNA351      0.0034
     14  C25       22.4420    8.4920   17.4110 C.ar  351  HNA351      0.0035
     15  O16       25.3340    5.0620   15.6100 O.2   351  HNA351     -0.2864
     16  O13       22.5320    7.0670   19.7280 O.2   351  HNA351     -0.2865
     17  O1        26.2070    3.0380   16.9470 O.3   351  HNA351     -0.2865
     18  O22       24.5420    7.0670   14.0280 O.3   351  HNA351     -0.2865
     19  N4        23.3090    4.8910   21.4330 N.pl3 351  HNA351      0.0578
     20  O4B       22.0820    4.4920   21.5490 O.2   351  HNA351     -0.1261
     21  O4A       23.8020    5.5610   22.3750 O.2   351  HNA351     -0.1261
@<TRIPOS>BOND
     1    18    11    1
     2    12    11   ar
     3    12    13   ar
     4    11     9   ar
     5    15    10    2
     6    13    14   ar
     7     9    10    1
     8     9     8   ar
     9    10     2    1
    10    17     1    1
    11    14     8   ar
    12     8     7    1
    13     2     1   ar
    14     2     3   ar
    15     1     6   ar
    16     7     3    1
    17     7    16    2
    18     3     4   ar
    19     6     5   ar
    20     4     5   ar
    21     4    19    1
    22    19    20    2
    23    19    21    2
