@<TRIPOS>MOLECULE
1m2q_MNX_A_1.pdb
 20 22 0 0 0
SMALL
GASTEIGER

@<TRIPOS>ATOM
      1  C1        26.6500    3.5790   16.3840 C.ar  351  MNX351      0.2017
      2  C2        25.9520    4.8130   16.1720 C.ar  351  MNX351      0.1124
      3  C3        25.3110    5.4640   17.2850 C.ar  351  MNX351      0.1515
      4  C4        25.3450    4.8720   18.5720 C.ar  351  MNX351      0.0378
      5  C5        26.0310    3.6490   18.7750 C.ar  351  MNX351      0.0064
      6  C6        26.6760    3.0000   17.6840 C.ar  351  MNX351      0.0423
      7  O13       24.6240    6.6550   17.1080 O.2   351  MNX351     -0.4514
      8  C14       24.5250    7.3130   15.8720 C.ar  351  MNX351      0.1737
      9  C15       25.1440    6.7560   14.7020 C.ar  351  MNX351      0.1141
     10  C16       25.8950    5.4740   14.8390 C.ar  351  MNX351      0.2077
     11  C22       25.0290    7.4390   13.4480 C.ar  351  MNX351      0.2018
     12  C23       24.3100    8.6500   13.3670 C.ar  351  MNX351      0.0440
     13  C24       23.6950    9.1970   14.5190 C.ar  351  MNX351      0.0305
     14  C25       23.7970    8.5420   15.7720 C.ar  351  MNX351      0.1774
     15  O16       26.4450    4.9490   13.8560 O.2   351  MNX351     -0.2861
     16  O1        27.2870    2.9140   15.3340 O.3   351  MNX351     -0.2864
     17  O22       25.6100    6.9450   12.2810 O.3   351  MNX351     -0.2864
     18  N25       23.1470    9.1420   16.9200 N.pl3 351  MNX351      0.0607
     19  O2B       23.2030    8.5650   18.1600 O.2   351  MNX351     -0.1260
     20  O2A       22.4590   10.3140   16.7690 O.2   351  MNX351     -0.1260
@<TRIPOS>BOND
     1    17    11    1
     2    12    11   ar
     3    12    13   ar
     4    11     9   ar
     5    15    10    2
     6    13    14   ar
     7     9    10   ar
     8     9     8   ar
     9    10     2   ar
    10    16     1    1
    11    14     8   ar
    12    14    18    1
    13     8     7   ar
    14     2     1   ar
    15     2     3   ar
    16     1     6   ar
    17    20    18    2
    18    18    19    2
    19     7     3   ar
    20     3     4   ar
    21     6     5   ar
    22     4     5   ar
