@<TRIPOS>MOLECULE
1m2r_MNY_A_1.pdb
 20 22 0 0 0
SMALL
GASTEIGER

@<TRIPOS>ATOM
      1  C1        21.5130    7.6720   21.5810 C.ar  351  MNY351      0.1990
      2  C2        22.0260    7.7570   20.2360 C.ar  351  MNY351      0.0840
      3  C3        23.0010    6.7960   19.7840 C.ar  351  MNY351      0.0840
      4  C4        23.4540    5.7800   20.6920 C.ar  351  MNY351      0.1990
      5  C5        22.9340    5.7210   22.0060 C.ar  351  MNY351      0.0454
      6  C6        21.9770    6.6620   22.4480 C.ar  351  MNY351      0.0454
      7  C13       23.5400    6.8830   18.3890 C.2   351  MNY351      0.2003
      8  C14       23.0600    7.9470   17.4510 C.ar  351  MNY351      0.0602
      9  C15       22.0770    8.9050   17.9020 C.ar  351  MNY351      0.0602
     10  C16       21.5390    8.8170   19.2950 C.2   351  MNY351      0.2003
     11  C22       21.6190    9.9200   16.9970 C.ar  351  MNY351      0.0923
     12  C23       22.1450    9.9810   15.6890 C.ar  351  MNY351      0.0195
     13  C24       23.1090    9.0530   15.2480 C.ar  351  MNY351      0.0195
     14  C25       23.5750    8.0420   16.1080 C.ar  351  MNY351      0.0923
     15  O16       20.6980    9.6380   19.6810 O.2   351  MNY351     -0.2864
     16  O13       24.3850    6.0580   17.9990 O.2   351  MNY351     -0.2864
     17  O1        20.5630    8.5850   22.0650 O.3   351  MNY351     -0.2865
     18  N22       20.6610   10.8750   17.3780 N.pl3 351  MNY351     -0.1280
     19  N25       24.5640    7.1190   15.6050 N.pl3 351  MNY351     -0.1280
     20  O4        24.4300    4.7990   20.2930 O.3   351  MNY351     -0.2865
@<TRIPOS>BOND
     1    13    12   ar
     2    13    14   ar
     3    19    14    1
     4    12    11   ar
     5    14     8   ar
     6    11    18    1
     7    11     9   ar
     8     8     9   ar
     9     8     7    1
    10     9    10    1
    11    16     7    2
    12     7     3    1
    13    10    15    2
    14    10     2    1
    15     3     2   ar
    16     3     4   ar
    17     2     1   ar
    18    20     4    1
    19     4     5   ar
    20     1    17    1
    21     1     6   ar
    22     5     6   ar
