@<TRIPOS>MOLECULE
1m2w_MTL_A_1.pdb
 12 11 0 0 0
SMALL
GASTEIGER

@<TRIPOS>ATOM
      1  O1        69.5250   74.9210   44.2190 O.3   5600  MTL5600    -0.2175
      2  C1        69.2740   74.8770   42.8000 C.3   5600  MTL5600     0.2175
      3  C2        68.8480   76.2810   42.3740 C.3   5600  MTL5600     0.2175
      4  O2        69.8860   77.2600   42.6590 O.3   5600  MTL5600    -0.2175
      5  C3        68.4540   76.2990   40.8930 C.3   5600  MTL5600     0.2175
      6  O3        67.2020   75.5630   40.7660 O.3   5600  MTL5600    -0.2175
      7  C4        68.2510   77.7570   40.4090 C.3   5600  MTL5600     0.2175
      8  O4        67.0100   78.2720   40.9030 O.3   5600  MTL5600    -0.2175
      9  C5        68.2220   77.7950   38.8800 C.3   5600  MTL5600     0.2175
     10  O5        69.4960   77.4230   38.3570 O.3   5600  MTL5600    -0.2175
     11  C6        67.8340   79.2280   38.3520 C.3   5600  MTL5600     0.2175
     12  O6        68.0690   79.2540   36.9460 O.3   5600  MTL5600    -0.2175
@<TRIPOS>BOND
     1    12    11    1
     2    11     9    1
     3    10     9    1
     4     9     7    1
     5     7     5    1
     6     7     8    1
     7     6     5    1
     8     5     3    1
     9     3     4    1
    10     3     2    1
    11     2     1    1
