@<TRIPOS>MOLECULE
1m2w_NAD_A_1.pdb
 44 48 0 0 0
SMALL
GASTEIGER

@<TRIPOS>ATOM
      1  PA        59.6510   82.8380   43.2500 P.3   5500  NAD5500     0.2189
      2  O1A       59.4010   83.4070   41.9500 O.2   5500  NAD5500    -0.5170
      3  O2A       58.7890   81.7480   43.9090 O.3   5500  NAD5500    -0.4371
      4  O5B       59.7580   84.0450   44.3220 O.3   5500  NAD5500    -0.3112
      5  C5B       60.7170   85.1100   44.0840 C.3   5500  NAD5500     0.1813
      6  C4B       60.4580   86.0150   45.3240 C.3   5500  NAD5500     0.1821
      7  O4B       61.4110   87.1660   45.2060 O.3   5500  NAD5500    -0.3135
      8  C3B       59.0900   86.7320   45.3330 C.3   5500  NAD5500     0.2184
      9  O3B       58.8310   86.9400   46.7100 O.3   5500  NAD5500    -0.2174
     10  C2B       59.3600   88.0140   44.5590 C.3   5500  NAD5500     0.2570
     11  O2B       58.3620   89.0430   44.6590 O.3   5500  NAD5500    -0.2130
     12  C1B       60.6930   88.4120   45.1930 C.3   5500  NAD5500     0.3186
     13  N9A       61.4200   89.3850   44.4180 N.pl3 5500  NAD5500    -0.1439
     14  C8A       61.7350   89.4540   43.0720 C.3   5500  NAD5500     0.3377
     15  N7A       62.4600   90.5150   42.7450 N.2   5500  NAD5500    -0.2095
     16  C5A       62.6170   91.1710   43.9730 C.2   5500  NAD5500     0.2526
     17  C6A       63.3040   92.3510   44.2690 C.2   5500  NAD5500     0.4393
     18  N6A       63.9800   93.1030   43.3960 N.pl3 5500  NAD5500     0.2180
     19  N1A       63.2850   92.7940   45.6180 N.2   5500  NAD5500     0.0021
     20  C2A       62.6060   92.0700   46.6180 C.3   5500  NAD5500     0.5254
     21  N3A       61.9220   90.8790   46.3620 N.2   5500  NAD5500    -0.0055
     22  C4A       61.9630   90.4780   45.0060 C.2   5500  NAD5500     0.3518
     23  O3        61.1410   82.2720   43.2330 O.3   5500  NAD5500    -0.2703
     24  PN        62.0010   81.2900   44.1520 P.3   5500  NAD5500     0.2189
     25  O1N       61.8970   79.8750   43.6990 O.2   5500  NAD5500    -0.5170
     26  O2N       61.5980   81.5830   45.5370 O.3   5500  NAD5500    -0.4371
     27  O5D       63.5030   81.8190   43.8320 O.3   5500  NAD5500    -0.3112
     28  C5D       63.9050   83.0480   44.5270 C.3   5500  NAD5500     0.1813
     29  C4D       65.4080   83.1460   44.6420 C.3   5500  NAD5500     0.1799
     30  O4D       66.0220   82.2870   45.6370 O.3   5500  NAD5500    -0.3327
     31  C3D       66.2560   82.9350   43.3370 C.3   5500  NAD5500     0.2158
     32  O3D       66.2300   84.0620   42.4940 O.3   5500  NAD5500    -0.2175
     33  C2D       67.6430   82.5040   43.8520 C.3   5500  NAD5500     0.2309
     34  O2D       68.6320   83.5450   44.1010 O.3   5500  NAD5500    -0.2158
     35  C1D       67.2800   81.7090   45.0940 C.3   5500  NAD5500     0.2263
     36  N1N       67.1010   80.2590   44.8150 N.pl3 5500  NAD5500    -0.2787
     37  C2N       66.0170   79.6120   44.1190 C.3   5500  NAD5500     0.1244
     38  C3N       66.1330   78.2080   43.9570 C.2   5500  NAD5500     0.0544
     39  C7N       65.0630   77.4350   43.1840 C.2   5500  NAD5500     0.2818
     40  O7N       65.2710   76.1490   42.9010 O.2   5500  NAD5500    -0.2670
     41  N7N       64.0320   78.1290   42.7790 N.am  5500  NAD5500    -0.0839
     42  C4N       67.2840   77.5040   44.4700 C.2   5500  NAD5500     0.0033
     43  C5N       68.3020   78.2120   45.1550 C.2   5500  NAD5500     0.0157
     44  C6N       68.2270   79.5700   45.3280 C.2   5500  NAD5500     0.0633
@<TRIPOS>BOND
     1     2     1    2
     2    32    31    1
     3    15    14    1
     4    15    16    2
     5    41    39   am
     6    40    39    2
     7    14    13    1
     8    39    38    1
     9    23     1    1
    10    23    24    1
    11     1     3    1
    12     1     4    1
    13    31    33    1
    14    31    29    1
    15    18    17    1
    16    25    24    2
    17    27    24    1
    18    27    28    1
    19    33    34    1
    20    33    35    1
    21    38    37    1
    22    38    42    2
    23    16    17    1
    24    16    22    1
    25     5     4    1
    26     5     6    1
    27    37    36    1
    28    24    26    1
    29    17    19    2
    30    13    22    1
    31    13    12    1
    32    42    43    1
    33    28    29    1
    34    10    11    1
    35    10    12    1
    36    10     8    1
    37    29    30    1
    38    36    35    1
    39    36    44    1
    40    22    21    2
    41    35    30    1
    42    43    44    2
    43    12     7    1
    44     7     6    1
    45     6     8    1
    46     8     9    1
    47    19    20    1
    48    21    20    1
