@<TRIPOS>MOLECULE
1m2x_MCO_A_1.pdb
 14 14 0 0 0
SMALL
GASTEIGER

@<TRIPOS>ATOM
      1  O2       -29.4130   35.1480    7.0740 O.co2 811  MCO811     -0.2438
      2  C9       -28.2570   35.5820    7.2860 C.2   811  MCO811      0.3825
      3  O3       -27.2680   35.4070    6.5480 O.co2 811  MCO811     -0.2438
      4  C8       -28.0410   36.4090    8.5740 C.3   811  MCO811      0.1790
      5  C7       -28.7630   35.7520    9.7520 C.3   811  MCO811      0.0332
      6  C6       -27.7810   34.6970   10.2750 C.3   811  MCO811      0.0238
      7  C5       -26.3940   35.3130   10.0650 C.3   811  MCO811      0.0939
      8  N        -26.6250   36.3060    8.9900 N.am  811  MCO811     -0.2713
      9  C4       -25.6540   37.1220    8.5260 C.2   811  MCO811      0.2264
     10  O1       -25.9280   37.9910    7.6970 O.2   811  MCO811     -0.2748
     11  C2       -24.2130   36.9500    9.0220 C.3   811  MCO811      0.0883
     12  C3       -23.9890   37.8620   10.2340 C.3   811  MCO811      0.0105
     13  C1       -23.2280   37.2870    7.9000 C.3   811  MCO811      0.0777
     14  S        -21.5140   36.8160    8.3230 S.3   811  MCO811     -0.0816
@<TRIPOS>BOND
     1     3     2   ar
     2     1     2   ar
     3     2     4    1
     4    10     9    2
     5    13    14    1
     6    13    11    1
     7     9     8   am
     8     9    11    1
     9     4     8    1
    10     4     5    1
    11     8     7    1
    12    11    12    1
    13     5     6    1
    14     7     6    1
