@<TRIPOS>MOLECULE
1m2z_DEX_A_1.pdb
 29 32 0 0 0
SMALL
GASTEIGER

@<TRIPOS>ATOM
      1  C1        30.8150    6.8380    9.6380 C.2   301  DEX301     -0.0171
      2  C2        31.0790    7.5730    8.5640 C.2   301  DEX301      0.0378
      3  C3        32.3500    8.3670    8.5490 C.2   301  DEX301      0.1948
      4  C4        33.1920    8.3840    9.7900 C.2   301  DEX301      0.0339
      5  C5        32.8600    7.6260   10.8320 C.2   301  DEX301     -0.0354
      6  C6        33.7450    7.7080   12.0400 C.3   301  DEX301      0.0226
      7  C7        32.8990    8.0240   13.2700 C.3   301  DEX301      0.0068
      8  C8        31.6540    7.1500   13.3840 C.3   301  DEX301      0.0299
      9  C9        30.8260    7.0610   12.1020 C.3   301  DEX301      0.1676
     10  C10       31.6650    6.7140   10.8710 C.3   301  DEX301      0.0639
     11  C11       29.4930    6.3260   12.2370 C.3   301  DEX301      0.1823
     12  C12       28.7280    6.5700   13.5340 C.3   301  DEX301      0.0382
     13  C13       29.6260    6.4770   14.7670 C.3   301  DEX301      0.0316
     14  C14       30.7830    7.4620   14.5980 C.3   301  DEX301     -0.0137
     15  C15       31.3930    7.6320   15.9860 C.3   301  DEX301     -0.0009
     16  C16       30.2030    7.4630   16.9260 C.3   301  DEX301      0.0346
     17  C17       29.0230    7.0530   16.0480 C.3   301  DEX301      0.1792
     18  C18       30.0650    5.0310   14.9890 C.3   301  DEX301      0.0027
     19  C19       32.1830    5.2780   10.8610 C.3   301  DEX301      0.0112
     20  C20       28.0530    6.1170   16.7520 C.2   301  DEX301      0.2109
     21  C21       26.5460    6.3020   16.6910 C.3   301  DEX301      0.2484
     22  C22       30.0040    8.7080   17.7840 C.3   301  DEX301      0.0030
     23  F1        30.4060    8.3410   11.8910 F     301  DEX301     -0.2368
     24  O1        32.6900    8.9850    7.5430 O.2   301  DEX301     -0.2866
     25  O2        29.7060    4.9240   12.1580 O.3   301  DEX301     -0.2203
     26  O3        28.3010    8.2390   15.7480 O.3   301  DEX301     -0.2181
     27  O4        28.4710    5.1550   17.3930 O.2   301  DEX301     -0.2907
     28  O5        25.9300    5.1110   16.2250 O.3   301  DEX301     -0.2118
     29  H14       30.3750    8.4540   14.3320 H     301  DEX301      0.0320
@<TRIPOS>BOND
     1    24     3    2
     2     3     2    1
     3     3     4    1
     4     2     1    2
     5     1    10    1
     6     4     5    2
     7     5    10    1
     8     5     6    1
     9    19    10    1
    10    10     9    1
    11    23     9    1
    12     6     7    1
    13     9    11    1
    14     9     8    1
    15    25    11    1
    16    11    12    1
    17     7     8    1
    18     8    14    1
    19    12    13    1
    20    29    14    1
    21    14    13    1
    22    14    15    1
    23    13    18    1
    24    13    17    1
    25    26    17    1
    26    15    16    1
    27    17    20    1
    28    17    16    1
    29    28    21    1
    30    21    20    1
    31    20    27    2
    32    16    22    1
