@<TRIPOS>MOLECULE
1m32_PLP_A_1.pdb
 14 14 0 0 0
SMALL
GASTEIGER

@<TRIPOS>ATOM
      1  N1         2.2100   30.9950   55.6750 N.ar  4401  PLP4401    -0.2452
      2  C2         3.1170   31.3590   56.6670 C.ar  4401  PLP4401     0.0981
      3  C2A        2.8070   31.0120   58.1290 C.3   4401  PLP4401     0.0555
      4  C3         4.2780   32.0270   56.3060 C.ar  4401  PLP4401     0.2089
      5  O3         5.2020   32.4040   57.2350 O.3   4401  PLP4401    -0.2853
      6  C4         4.5030   32.3180   54.9590 C.ar  4401  PLP4401     0.0430
      7  C5         3.5530   31.9340   53.9650 C.ar  4401  PLP4401     0.0302
      8  C6         2.4130   31.2730   54.3430 C.ar  4401  PLP4401     0.0968
      9  C5A        3.7400   32.2280   52.4960 C.3   4401  PLP4401     0.1818
     10  O4P        4.7680   31.6010   51.7810 O.3   4401  PLP4401    -0.2653
     11  P          5.0460   31.9030   50.2560 P.3   4401  PLP4401     0.5329
     12  O1P        3.7970   31.5900   49.5200 O.2   4401  PLP4401    -0.2224
     13  O2P        6.2690   30.9150   50.0110 O.3   4401  PLP4401    -0.1145
     14  O3P        5.5550   33.2790   50.1430 O.3   4401  PLP4401    -0.1145
@<TRIPOS>BOND
     1    12    11    2
     2    13    11    1
     3    14    11    1
     4    11    10    1
     5    10     9    1
     6     9     7    1
     7     7     8   ar
     8     7     6   ar
     9     8     1   ar
    10     6     4   ar
    11     1     2   ar
    12     4     2   ar
    13     4     5    1
    14     2     3    1
