@<TRIPOS>MOLECULE
1m34_ADP_E_1.pdb
 27 29 0 0 0
SMALL
GASTEIGER

@<TRIPOS>ATOM
      1  PB       233.3140   73.5760  116.8800 P.3   3091  ADP3091     0.5373
      2  O1B      232.1590   73.1120  117.6100 O.3   3091  ADP3091    -0.1143
      3  O2B      234.5150   72.5860  116.8640 O.2   3091  ADP3091    -0.2221
      4  O3B      233.7340   75.0330  117.0860 O.3   3091  ADP3091    -0.1143
      5  PA       232.1190   72.1130  114.7520 P.3   3091  ADP3091     0.2231
      6  O1A      233.2790   71.4260  114.0700 O.2   3091  ADP3091    -0.5169
      7  O2A      231.3580   71.3580  115.7550 O.3   3091  ADP3091    -0.4370
      8  O3A      232.7630   73.4170  115.4420 O.3   3091  ADP3091    -0.2261
      9  O5'      231.1810   72.7630  113.6200 O.3   3091  ADP3091    -0.3111
     10  C5'      229.8390   73.1680  113.9650 C.3   3091  ADP3091     0.1813
     11  C4'      228.8460   72.8990  112.8580 C.3   3091  ADP3091     0.1821
     12  O4'      229.0740   73.9100  111.7810 O.3   3091  ADP3091    -0.3135
     13  C3'      228.9360   71.5140  112.1740 C.3   3091  ADP3091     0.2184
     14  O3'      227.6720   70.8270  112.2460 O.3   3091  ADP3091    -0.2174
     15  C2'      229.2320   71.7710  110.6480 C.3   3091  ADP3091     0.2570
     16  O2'      228.1580   71.3250  109.7720 O.3   3091  ADP3091    -0.2130
     17  C1'      229.2490   73.2960  110.5020 C.3   3091  ADP3091     0.3186
     18  N9       230.4450   73.8110  109.7020 N.pl3 3091  ADP3091    -0.1439
     19  C8       231.6550   74.1030  110.1360 C.3   3091  ADP3091     0.3377
     20  N7       232.4080   74.5690  109.2020 N.2   3091  ADP3091    -0.2095
     21  C5       231.6100   74.5790  108.0600 C.2   3091  ADP3091     0.2526
     22  C6       231.8040   74.9740  106.6640 C.2   3091  ADP3091     0.4393
     23  N6       232.9830   75.4840  106.1880 N.pl3 3091  ADP3091     0.2180
     24  N1       230.7540   74.8310  105.8050 N.2   3091  ADP3091     0.0021
     25  C2       229.6010   74.3400  106.2520 C.3   3091  ADP3091     0.5254
     26  N3       229.3360   73.9550  107.5110 N.2   3091  ADP3091    -0.0055
     27  C4       230.3870   74.0990  108.3690 C.2   3091  ADP3091     0.3518
@<TRIPOS>BOND
     1    24    25    1
     2    24    22    2
     3    23    22    1
     4    25    26    1
     5    22    21    1
     6    26    27    2
     7    21    27    1
     8    21    20    2
     9    27    18    1
    10    20    19    1
    11    18    19    1
    12    18    17    1
    13    16    15    1
    14    17    15    1
    15    17    12    1
    16    15    13    1
    17    12    11    1
    18    13    14    1
    19    13    11    1
    20    11    10    1
    21     9    10    1
    22     9     5    1
    23     6     5    2
    24     5     8    1
    25     5     7    1
    26     8     1    1
    27     3     1    2
    28     1     4    1
    29     1     2    1
