@<TRIPOS>MOLECULE
1m34_CLF_B_1.pdb
 15 35 0 0 0
SMALL
GASTEIGER

@<TRIPOS>ATOM
      1 FE1       240.4160   67.0860  152.1710 Fe    2098  CLF2098     0.0000
      2 FE2       241.4180   67.5200  149.8210 Fe    2098  CLF2098     0.0000
      3 FE3       242.8090   65.8450  151.5860 Fe    2098  CLF2098     0.0000
      4 FE4       242.6150   68.6510  151.8990 Fe    2098  CLF2098     0.0000
      5  S1       240.4630   69.1520  151.1080 S.3   2098  CLF2098     0.0000
      6  S2A      240.7750   65.4490  150.6020 S.3   2098  CLF2098     0.0000
      7  S4A      243.6520   67.5340  150.2420 S.3   2098  CLF2098     0.0000
      8  S3A      242.2440   67.0140  153.4310 S.3   2098  CLF2098     0.0000
      9 FE5       241.0760   70.8200  153.0740 Fe    2098  CLF2098     0.0000
     10 FE6       239.0520   71.5560  151.6420 Fe    2098  CLF2098     0.0000
     11 FE7       238.7780   71.8320  154.4320 Fe    2098  CLF2098     0.0000
     12 FE8       238.7040   69.3310  153.0240 Fe    2098  CLF2098     0.0000
     13  S2B      240.2020   72.9360  153.0530 S.3   2098  CLF2098     0.0000
     14  S3B      237.2260   71.1240  152.9160 S.3   2098  CLF2098     0.0000
     15  S4B      239.9740   69.9600  154.8440 S.3   2098  CLF2098     0.0000
@<TRIPOS>BOND
     1     2     7    1
     2     2     6    1
     3     2     5    1
     4     2     3    1
     5     2     4    1
     6     2     1    1
     7     7     3    1
     8     7     4    1
     9     6     3    1
    10     6     1    1
    11     5     4    1
    12     5     1    1
    13     5    12    1
    14     5     9    1
    15     3     4    1
    16     3     1    1
    17     3     8    1
    18    10    14    1
    19    10    12    1
    20    10    13    1
    21    10     9    1
    22    10    11    1
    23     4     1    1
    24     4     8    1
    25     1     8    1
    26    14    12    1
    27    14    11    1
    28    12     9    1
    29    12    11    1
    30    12    15    1
    31    13     9    1
    32    13    11    1
    33     9    11    1
    34     9    15    1
    35    11    15    1
