@<TRIPOS>MOLECULE
1m34_CFM_A_1.pdb
 17 34 0 0 0
SMALL
GASTEIGER

@<TRIPOS>ATOM
      1 FE1       254.8100   53.5940  156.3830 Fe    2096  CFM2096     0.0000
      2 FE2       252.7050   55.2380  156.4680 Fe    2096  CFM2096     0.0000
      3 FE3       254.3360   55.3680  158.4640 Fe    2096  CFM2096     0.0000
      4 FE4       252.8750   53.1490  158.1570 Fe    2096  CFM2096     0.0000
      5 FE5       251.1080   54.3370  159.6120 Fe    2096  CFM2096     0.0000
      6 FE6       250.9510   56.2890  157.9830 Fe    2096  CFM2096     0.0000
      7 FE7       252.7980   56.3990  159.8620 Fe    2096  CFM2096     0.0000
      8 MO1       249.9870   56.8290  160.4430 Mo    2096  CFM2096     0.0000
      9  S1A      252.6310   53.0440  155.8750 S.3   2096  CFM2096     0.0000
     10  S4A      255.1130   53.1950  158.5980 S.3   2096  CFM2096     0.0000
     11  S3A      251.3860   52.1030  159.5850 S.3   2096  CFM2096     0.0000
     12  S2A      254.8830   55.9150  156.3090 S.3   2096  CFM2096     0.0000
     13  S1B      249.1240   55.2590  158.8700 S.3   2096  CFM2096     0.0000
     14  S2B      250.9860   56.5110  155.7330 S.3   2096  CFM2096     0.0000
     15  S3B      251.4650   58.0920  159.1930 S.3   2096  CFM2096     0.0000
     16  S4B      251.5550   55.4480  161.5760 S.3   2096  CFM2096     0.0000
     17  S5       255.0080   56.6870  160.1320 S.3   2096  CFM2096     0.0000
@<TRIPOS>BOND
     1    14     2    1
     2    14     6    1
     3     9     1    1
     4     9     2    1
     5     9     4    1
     6    12     1    1
     7    12     2    1
     8    12     3    1
     9     1     2    1
    10     1     4    1
    11     1    10    1
    12     2     6    1
    13     2     3    1
    14     6    13    1
    15     6    15    1
    16     6     5    1
    17     6     7    1
    18     4     3    1
    19     4    10    1
    20     4    11    1
    21     4     5    1
    22     3    10    1
    23     3     7    1
    24     3    17    1
    25    13     5    1
    26    13     8    1
    27    15     7    1
    28    15     8    1
    29    11     5    1
    30     5     7    1
    31     5    16    1
    32     7    17    1
    33     7    16    1
    34     8    16    1
