@<TRIPOS>MOLECULE
1m3q_ANG_A_1.pdb
 12 13 0 0 0
SMALL
GASTEIGER

@<TRIPOS>ATOM
      1  N9        20.4680   23.5940   34.0930 N.2   326  ANG326     -0.2547
      2  C4        20.4960   23.8110   32.7350 C.1   326  ANG326      0.2067
      3  N3        20.5330   25.0140   32.1250 N.2   326  ANG326     -0.2542
      4  C2        20.5450   24.9000   30.8050 C.1   326  ANG326      0.2618
      5  N2        20.5790   26.0040   30.0440 N.pl3 326  ANG326     -0.0220
      6  N1        20.5250   23.6950   30.1400 N.2   326  ANG326     -0.2465
      7  C6        20.4930   22.4450   30.7530 C.1   326  ANG326      0.2590
      8  O6        20.4860   21.4190   30.0650 O.2   326  ANG326     -0.2051
      9  C5        20.4770   22.5570   32.1640 C.2   326  ANG326      0.3244
     10  N7        20.4440   21.5720   33.1400 N.2   326  ANG326     -0.2996
     11  C8        20.4370   22.2280   34.2690 C.1   326  ANG326      0.2528
     12  N8        20.4080   21.6960   35.3530 N.pl3 326  ANG326     -0.0226
@<TRIPOS>BOND
     1     5     4    1
     2     8     7    2
     3     6     7    2
     4     6     4    2
     5     7     9    1
     6     4     3    2
     7     3     2    2
     8     9     2    1
     9     9    10    2
    10     2     1    2
    11    10    11    2
    12     1    11    2
    13    11    12    1
