@<TRIPOS>MOLECULE
1m3u_KPL_A_1.pdb
 10 9 0 0 0
SMALL
GASTEIGER

@<TRIPOS>ATOM
      1  O2        -3.7500    2.2340   -1.7110 O.2   265  KPL265     -0.2842
      2  C5        -3.1220    1.7200   -2.6420 C.2   265  KPL265      0.2536
      3  C6        -1.8110    1.1500   -2.3140 C.2   265  KPL265      0.4219
      4  O4        -0.9210    0.9860   -3.1750 O.co2 265  KPL265     -0.2373
      5  O3        -1.6700    0.8210   -1.1170 O.co2 265  KPL265     -0.2373
      6  C2        -3.7910    1.7160   -3.9960 C.3   265  KPL265      0.0927
      7  C3        -4.4570    3.0910   -4.0930 C.3   265  KPL265      0.0106
      8  C1        -2.7830    1.5400   -5.1250 C.3   265  KPL265      0.0106
      9  C4        -4.8550    0.5970   -4.0660 C.3   265  KPL265      0.1894
     10  O1        -5.2920    0.1170   -2.7930 O.3   265  KPL265     -0.2200
@<TRIPOS>BOND
     1     8     6    1
     2     7     6    1
     3     9     6    1
     4     9    10    1
     5     6     2    1
     6     4     3   ar
     7     2     3    1
     8     2     1    2
     9     3     5   ar
