@<TRIPOS>MOLECULE
1m3x_U10_L_1.pdb
 13 13 0 0 0
SMALL
GASTEIGER

@<TRIPOS>ATOM
      1  C1        36.1300   75.5210   33.2050 C.2   858  U10858      0.0235
      2  C2        36.8410   74.9130   32.0290 C.2   858  U10858      0.2285
      3  C3        36.3570   75.1450   30.6240 C.2   858  U10858      0.2140
      4  C4        35.1330   76.0050   30.3710 C.2   858  U10858      0.2143
      5  C5        34.4120   76.6190   31.5580 C.2   858  U10858      0.2322
      6  C6        34.9000   76.3860   32.9980 C.2   858  U10858      0.0443
      7  C1M       36.6570   75.2590   34.6200 C.3   858  U10858      0.0346
      8  C3M       36.6460   73.2910   29.0640 C.3   858  U10858      0.2528
      9  C4M       35.3300   77.0130   28.0790 C.3   858  U10858      0.2528
     10  O2        37.8410   74.2100   32.2180 O.2   858  U10858     -0.2835
     11  O3        37.0570   74.5560   29.5590 O.2   858  U10858     -0.4652
     12  O4        34.6430   76.2500   29.0660 O.2   858  U10858     -0.4652
     13  O5        33.4130   77.3160   31.3040 O.2   858  U10858     -0.2832
@<TRIPOS>BOND
     1     9    12    1
     2     8    11    1
     3    12     4    1
     4    11     3    1
     5     4     3    2
     6     4     5    1
     7     3     2    1
     8    13     5    2
     9     5     6    1
    10     2    10    2
    11     2     1    1
    12     6     1    2
    13     1     7    1
