@<TRIPOS>MOLECULE
1m3x_SPO_M_1.pdb
 42 41 0 0 0
SMALL
GASTEIGER

@<TRIPOS>ATOM
      1  CM1       43.3650   84.7830   55.9380 C.3   859  SPO859      0.1739
      2  O1        44.2670   86.0430   55.9030 O.3   859  SPO859     -0.3555
      3  C1        45.3810   86.2410   54.7920 C.3   859  SPO859      0.0970
      4  C2        46.2830   87.3960   55.2400 C.3   859  SPO859      0.0300
      5  C3        46.2650   84.9890   54.6180 C.3   859  SPO859      0.0300
      6  C4        44.7870   86.6640   53.4470 C.3   859  SPO859      0.0532
      7  C5        43.5220   87.3550   53.5220 C.2   859  SPO859     -0.0240
      8  C6        43.0830   88.2170   52.3670 C.2   859  SPO859     -0.0091
      9  C7        41.8110   88.8100   52.2000 C.2   859  SPO859     -0.0261
     10  C8        40.7970   88.5150   53.3560 C.3   859  SPO859      0.0307
     11  C9        41.6080   89.5710   51.0560 C.2   859  SPO859     -0.0257
     12  C10       40.2890   90.2760   50.7170 C.3   859  SPO859      0.0513
     13  C11       40.2410   91.0740   49.4160 C.2   859  SPO859     -0.0257
     14  C12       39.0610   91.4480   48.7970 C.2   859  SPO859     -0.0261
     15  C13       37.6340   91.0670   49.4050 C.3   859  SPO859      0.0307
     16  C14       39.2680   92.1890   47.6170 C.2   859  SPO859     -0.0088
     17  C15       38.0880   92.7140   46.7560 C.2   859  SPO859     -0.0221
     18  C16       38.2100   93.5780   45.4350 C.3   859  SPO859      0.0476
     19  C17       36.9920   93.9690   44.7760 C.2   859  SPO859     -0.0438
     20  C18       35.6010   93.5600   45.3050 C.3   859  SPO859      0.0264
     21  C19       36.9610   94.7480   43.6080 C.2   859  SPO859     -0.0343
     22  C20       38.0770   95.2560   42.9350 C.3   859  SPO859      0.0254
     23  C21       37.9370   96.4630   42.0370 C.3   859  SPO859      0.0050
     24  C22       39.2180   96.8680   41.4330 C.3   859  SPO859      0.0047
     25  C23       39.4810   97.1840   40.1090 C.3   859  SPO859      0.0220
     26  C24       38.5310   98.2200   39.4440 C.3   859  SPO859      0.0047
     27  C25       40.8570   97.4810   40.1600 C.2   859  SPO859     -0.0265
     28  C26       41.6570   97.8930   38.9990 C.2   859  SPO859     -0.0052
     29  C27       43.1080   98.1550   39.1830 C.2   859  SPO859     -0.0088
     30  C28       43.8920   98.5530   38.0970 C.2   859  SPO859     -0.0436
     31  C29       43.3700   98.7660   36.6320 C.3   859  SPO859      0.0264
     32  C30       45.4040   98.8230   38.2500 C.3   859  SPO859      0.0267
     33  C31       45.7160  100.2970   38.3490 C.3   859  SPO859      0.0297
     34  C32       47.0780  100.5590   38.5830 C.2   859  SPO859     -0.0343
     35  C33       47.7000  101.4580   39.4700 C.2   859  SPO859     -0.0482
     36  C34       46.9270  102.3860   40.4130 C.3   859  SPO859      0.0260
     37  C35       49.2670  101.6390   39.6130 C.3   859  SPO859      0.0217
     38  C36       50.1940  100.6840   38.8380 C.3   859  SPO859      0.0043
     39  C37       51.2110  101.4360   37.9980 C.3   859  SPO859      0.0003
     40  C38       51.7390  101.1760   36.7090 C.3   859  SPO859      0.0000
     41  C39       52.6780  100.0010   36.3400 C.3   859  SPO859      0.0000
     42  C40       51.4440  102.0450   35.4700 C.3   859  SPO859      0.0000
@<TRIPOS>BOND
     1    42    40    1
     2    41    40    1
     3    31    30    1
     4    40    39    1
     5    39    38    1
     6    30    32    1
     7    30    29    2
     8    32    33    1
     9    33    34    1
    10    34    35    2
    11    38    37    1
    12    28    29    1
    13    28    27    2
    14    26    25    1
    15    35    37    1
    16    35    36    1
    17    25    27    1
    18    25    24    1
    19    24    23    1
    20    23    22    1
    21    22    21    1
    22    21    19    2
    23    19    20    1
    24    19    18    1
    25    18    17    1
    26    17    16    2
    27    16    14    1
    28    14    15    1
    29    14    13    2
    30    13    12    1
    31    12    11    1
    32    11     9    2
    33     9     8    1
    34     9    10    1
    35     8     7    2
    36     6     7    1
    37     6     3    1
    38     5     3    1
    39     3     4    1
    40     3     2    1
    41     2     1    1
