@<TRIPOS>MOLECULE
1m3x_PC1_L_1.pdb
 43 42 0 0 0
SMALL
GASTEIGER

@<TRIPOS>ATOM
      1  O12       41.8910   80.9460   39.6080 O.3   901  PC1901     -0.4373
      2  P         42.1380   81.1390   38.2470 P.3   901  PC1901      0.2140
      3  O14       42.1900   82.7090   37.8850 O.2   901  PC1901     -0.5172
      4  O13       43.6280   80.4760   38.0730 O.3   901  PC1901     -0.3163
      5  C11       44.2340   79.1890   37.8300 C.3   901  PC1901      0.1271
      6  C12       44.9250   78.8740   39.1740 C.3   901  PC1901     -0.0402
      7  N         45.4210   77.5550   39.4820 N.4   901  PC1901      0.3874
      8  C13       46.8960   77.6520   39.5730 C.3   901  PC1901     -0.0959
      9  C14       44.8370   76.9070   40.7210 C.3   901  PC1901     -0.0959
     10  C15       45.1370   76.6780   38.3270 C.3   901  PC1901     -0.0959
     11  O11       41.2550   80.4910   37.2330 O.3   901  PC1901     -0.3101
     12  C1        39.5900   80.2490   37.6890 C.3   901  PC1901      0.1964
     13  C2        38.4400   78.9610   37.4540 C.3   901  PC1901      0.2420
     14  O21       37.0380   79.0700   38.0060 O.3   901  PC1901     -0.4457
     15  C21       36.0060   79.8480   37.2740 C.2   901  PC1901      0.3171
     16  O22       36.1030   81.1450   37.4160 O.2   901  PC1901     -0.2501
     17  C22       34.9620   79.1410   36.4760 C.3   901  PC1901      0.1096
     18  C23       33.9120   78.6840   37.4850 C.3   901  PC1901      0.0116
     19  C24       32.6830   77.9340   37.1440 C.3   901  PC1901      0.0006
     20  C25       31.9930   78.1150   38.4960 C.3   901  PC1901      0.0000
     21  C26       30.6660   77.4830   38.5960 C.3   901  PC1901      0.0003
     22  C27       29.9040   77.4090   39.9530 C.3   901  PC1901      0.0047
     23  C28       28.5830   76.6440   39.4690 C.3   901  PC1901      0.0257
     24  C29       27.4040   76.2860   40.5080 C.2   901  PC1901     -0.0307
     25  C2A       25.9530   75.5000   40.2300 C.2   901  PC1901     -0.0304
     26  C2B       25.4130   74.8520   38.9690 C.3   901  PC1901      0.0303
     27  C3        39.1280   77.6440   37.9870 C.3   901  PC1901      0.2543
     28  O31       38.1860   76.4820   37.8380 O.3   901  PC1901     -0.4444
     29  C31       38.6010   75.1610   38.2600 C.2   901  PC1901      0.3171
     30  O32       39.7590   74.9440   38.7540 O.2   901  PC1901     -0.2501
     31  C32       37.4960   74.1590   38.0240 C.3   901  PC1901      0.1096
     32  C33       36.2900   74.3080   38.9040 C.3   901  PC1901      0.0116
     33  C34       35.0870   73.9570   38.0820 C.3   901  PC1901      0.0006
     34  C35       33.9040   73.6730   38.9550 C.3   901  PC1901      0.0000
     35  C36       32.6480   73.3090   38.1100 C.3   901  PC1901      0.0000
     36  C37       31.3720   72.9960   38.9280 C.3   901  PC1901      0.0000
     37  C38       30.7240   71.6220   38.5850 C.3   901  PC1901      0.0000
     38  C39       29.4540   71.3540   39.4300 C.3   901  PC1901      0.0000
     39  C3A       29.3540   69.8830   39.9160 C.3   901  PC1901      0.0000
     40  C3B       28.1080   69.5430   40.7610 C.3   901  PC1901      0.0000
     41  C3C       28.1940   68.1480   41.4430 C.3   901  PC1901      0.0000
     42  C3D       26.8600   67.3920   41.4450 C.3   901  PC1901      0.0000
     43  C3E       26.9060   66.0180   42.1130 C.3   901  PC1901      0.0000
@<TRIPOS>BOND
     1    17    15    1
     2    17    18    1
     3    19    18    1
     4    19    20    1
     5    11    12    1
     6    11     2    1
     7    15    16    2
     8    15    14    1
     9    13    12    1
    10    13    27    1
    11    13    14    1
    12     5     4    1
    13     5     6    1
    14    28    27    1
    15    28    29    1
    16     3     2    2
    17    31    29    1
    18    31    32    1
    19     4     2    1
    20    33    32    1
    21    33    34    1
    22    35    36    1
    23    35    34    1
    24     2     1    1
    25    29    30    2
    26    10     7    1
    27    20    21    1
    28    37    36    1
    29    37    38    1
    30    21    22    1
    31    26    25    1
    32     6     7    1
    33    38    39    1
    34    23    22    1
    35    23    24    1
    36     7     8    1
    37     7     9    1
    38    39    40    1
    39    25    24    2
    40    40    41    1
    41    41    42    1
    42    42    43    1
