@<TRIPOS>MOLECULE
1m40_CB4_A_1.pdb
 22 22 0 0 0
SMALL
GASTEIGER

@<TRIPOS>ATOM
      1  B         10.3740    7.5400   36.2570 B     300  CB4300      0.0000
      2  OB1       11.3050    7.0470   35.2180 O.3   300  CB4300      0.0000
      3  OB2        9.3840    8.4620   35.6090 O.3   300  CB4300      0.0000
      4  C7        11.1500    8.2450   37.4900 C.3   300  CB4300      0.0000
      5  N10       12.1020    9.2790   37.0570 N.am  300  CB4300      0.0000
      6  C11       13.1250    9.8120   37.7070 C.2   300  CB4300      0.0000
      7  O12       13.2770    9.4680   38.8480 O.2   300  CB4300      0.0000
      8  C13       13.9360   10.7480   36.8380 C.2   300  CB4300      0.0000
      9  N16       13.5130   11.8790   36.3550 N.2   300  CB4300      0.0000
     10  O17       12.3140   12.3150   36.8570 O.2   300  CB4300      0.0000
     11  C18       12.0730   13.7590   36.7550 C.3   300  CB4300      0.0000
     12  C14       15.3670   10.4170   36.6720 C.2   300  CB4300      0.0000
     13  C15       15.8610    9.3410   37.3770 C.3   300  CB4300      0.0000
     14  S16       17.5230    9.2220   37.0490 S.3   300  CB4300      0.0000
     15  C17       17.3970   10.5440   35.9640 C.2   300  CB4300      0.0000
     16  N18       18.4380   11.0040   35.2480 N.pl3 300  CB4300      0.0000
     17  N19       16.2170   11.1130   35.8840 N.2   300  CB4300      0.0000
     18  C19       12.7530   14.3900   37.9730 C.3   300  CB4300      0.0000
     19  C20       10.5710   13.8640   37.0130 C.3   300  CB4300      0.0000
     20  C21       12.4520   14.2430   35.3870 C.2   300  CB4300      0.0000
     21  O2A       12.7570   15.4620   35.3330 O.co2 300  CB4300      0.0000
     22  O2B       12.4840   13.4380   34.4070 O.co2 300  CB4300      0.0000
@<TRIPOS>BOND
     1    22    20   ar
     2     2     1    1
     3    16    15    1
     4    21    20   ar
     5    20    11    1
     6     3     1    1
     7    17    15    2
     8    17    12    2
     9    15    14    1
    10     1     4    1
    11     9     8    2
    12     9    10    1
    13    12     8    1
    14    12    13    1
    15    11    10    1
    16    11    19    1
    17    11    18    1
    18     8     6    1
    19    14    13    1
    20     5     4    1
    21     5     6   am
    22     6     7    2
