@<TRIPOS>MOLECULE
1m43_III_C_1.pdb
 48 47 0 0 0
SMALL
GASTEIGER

@<TRIPOS>ATOM
      1  CA        58.5750   52.3790   28.3670 C.3   647  IVA647      0.0868
      2  CB        58.4640   52.7600   29.8310 C.3   647  IVA647      0.0091
      3  CG1       58.2050   51.5110   30.5920 C.3   647  IVA647      0.0005
      4  CG2       57.3420   53.7690   30.0460 C.3   647  IVA647      0.0005
      5  C         58.8570   53.5440   27.4560 C.2   647  IVA647      0.2418
      6  O         59.9960   54.0090   27.3390 O.2   647  IVA647     -0.2733
      7  N         57.8020   54.0230   26.8050 N.am  648  VAL648     -0.1978
      8  CA        57.8730   55.1520   25.8900 C.3   648  VAL648      0.1726
      9  C         56.6320   55.9430   26.2340 C.2   648  VAL648      0.2616
     10  O         55.5110   55.4050   26.2260 O.2   648  VAL648     -0.2715
     11  CB        57.9210   54.6520   24.3910 C.3   648  VAL648      0.0290
     12  CG1       57.4800   55.6900   23.3920 C.3   648  VAL648      0.0023
     13  CG2       59.3380   54.2360   24.0400 C.3   648  VAL648      0.0023
     14  N         56.8680   57.2220   26.5530 N.am  649  VAL649     -0.1963
     15  CA        55.8330   58.2030   26.8910 C.3   649  VAL649      0.1727
     16  C         55.9450   59.3370   25.8470 C.2   649  VAL649      0.2612
     17  O         56.9080   60.0900   25.8530 O.2   649  VAL649     -0.2715
     18  CB        56.0140   58.7480   28.3340 C.3   649  VAL649      0.0290
     19  CG1       54.9340   59.7560   28.6480 C.3   649  VAL649      0.0023
     20  CG2       55.9280   57.6290   29.3360 C.3   649  VAL649      0.0023
     21  N         54.9680   59.4380   24.9390 N.am  650  STA650     -0.2031
     22  CA        54.9740   60.4590   23.8710 C.3   650  STA650      0.1261
     23  CB        55.0450   59.7250   22.5260 C.3   650  STA650      0.0243
     24  CG        56.3210   59.5620   21.6960 C.3   650  STA650      0.0018
     25  CD1       57.5860   59.7670   22.5060 C.3   650  STA650      0.0001
     26  CD2       56.3020   58.2080   21.0560 C.3   650  STA650      0.0001
     27  CH        53.7170   61.3620   23.9190 C.3   650  STA650      0.1809
     28  OH        52.5480   60.5670   23.7670 O.3   650  STA650     -0.2208
     29  CM        53.6260   62.1190   25.2490 C.3   650  STA650      0.1214
     30  C         54.5030   63.3700   25.2760 C.2   650  STA650      0.2444
     31  O         55.5840   63.3920   25.9140 O.2   650  STA650     -0.2732
     32  N         54.0100   64.4110   24.5700 N.am  651  ALA651     -0.1977
     33  CA        54.6540   65.7290   24.4340 C.3   651  ALA651      0.1728
     34  C         54.7080   66.5130   25.7510 C.2   651  ALA651      0.2612
     35  O         53.9010   66.2870   26.6730 O.2   651  ALA651     -0.2715
     36  CB        53.9170   66.5170   23.3960 C.3   651  ALA651      0.0334
     37  N         55.6710   67.4370   25.8400 N.am  652  STA652     -0.2031
     38  CA        55.8760   68.2780   27.0350 C.3   652  STA652      0.1262
     39  CB        57.3190   68.1740   27.5150 C.3   652  STA652      0.0243
     40  CG        57.7050   66.9490   28.3250 C.3   652  STA652      0.0018
     41  CD1       59.1730   67.0780   28.6340 C.3   652  STA652      0.0001
     42  CD2       56.9000   66.8680   29.6120 C.3   652  STA652      0.0001
     43  CH        55.5430   69.7410   26.7780 C.3   652  STA652      0.1830
     44  OH        56.4370   70.3070   25.8100 O.3   652  STA652     -0.2207
     45  CM        54.0980   69.8680   26.3000 C.3   652  STA652      0.1486
     46  C         53.7800   71.2440   25.8690 C.2   652  STA652      0.3675
     47  O         53.6320   72.1130   26.7860 O.co2 652  STA652     -0.2456
     48  OXT       53.6940   71.4350   24.6200 O.co2 652  STA652     -0.2456
@<TRIPOS>BOND
     1    26    24    1
     2    24    25    1
     3    24    23    1
     4    23    22    1
     5    12    11    1
     6    36    33    1
     7    28    27    1
     8    22    27    1
     9    22    21    1
    10    27    29    1
    11    13    11    1
    12    11     8    1
    13    33    32    1
    14    33    34    1
    15    32    30   am
    16    48    46   ar
    17    21    16   am
    18    29    30    1
    19    30    31    2
    20    34    37   am
    21    34    35    2
    22    44    43    1
    23    37    38    1
    24    16    17    2
    25    16    15    1
    26    46    45    1
    27    46    47   ar
    28     8     9    1
    29     8     7    1
    30    10     9    2
    31     9    14   am
    32    45    43    1
    33    14    15    1
    34    43    38    1
    35     7     5   am
    36    15    18    1
    37    38    39    1
    38     6     5    2
    39     5     1    1
    40    39    40    1
    41    40    41    1
    42    40    42    1
    43    18    19    1
    44    18    20    1
    45     1     2    1
    46     2     4    1
    47     2     3    1
