@<TRIPOS>MOLECULE
1m48_FRG_A_1.pdb
 33 35 0 0 0
SMALL
GASTEIGER

@<TRIPOS>ATOM
      1  N33        2.5640   20.9650    0.1020 N.pl3 301  FRG301      0.1298
      2  C31        2.6030   20.1150   -0.9240 C.cat 301  FRG301      0.4954
      3  N32        3.6640   19.3090   -1.0060 N.pl3 301  FRG301      0.1298
      4  N29        1.4640   20.0100   -1.8160 N.pl3 301  FRG301     -0.1885
      5  C30        1.5440   18.8910   -2.7960 C.3   301  FRG301      0.1682
      6  C28        0.7770   21.2590   -2.2630 C.3   301  FRG301      0.1678
      7  C27        0.7920   21.5550   -3.7680 C.3   301  FRG301      0.0406
      8  C26        0.7650   20.3340   -4.6850 C.3   301  FRG301      0.0071
      9  C24        1.7800   19.2790   -4.2560 C.3   301  FRG301      0.0466
     10  C23        1.7010   18.0400   -5.1720 C.3   301  FRG301      0.0901
     11  C22        1.8640   18.4240   -6.6300 C.2   301  FRG301      0.2419
     12  O25        2.9290   18.8790   -7.0090 O.2   301  FRG301     -0.2733
     13  N21        0.8130   18.2520   -7.4550 N.am  301  FRG301     -0.1954
     14  C16        0.9170   18.4640   -8.9030 C.3   301  FRG301      0.1977
     15  C17        0.7970   19.9100   -9.3270 C.2   301  FRG301      0.3374
     16  O19        1.4720   20.3790  -10.2350 O.2   301  FRG301     -0.2482
     17  O18       -0.1090   20.8010   -8.6190 O.3   301  FRG301     -0.4432
     18  C20       -0.4400   22.0880   -9.1400 C.3   301  FRG301      0.2557
     19  C15       -0.0450   17.5560   -9.6420 C.3   301  FRG301      0.0594
     20  C12       -0.0430   16.0920   -9.4220 C.ar  301  FRG301     -0.0198
     21  C13       -1.0430   15.4670   -8.6800 C.ar  301  FRG301     -0.0036
     22  C14       -1.0440   14.0910   -8.5070 C.ar  301  FRG301      0.0079
     23  C11        0.9720   15.3360   -9.9940 C.ar  301  FRG301     -0.0036
     24  C10        0.9930   13.9710   -9.8210 C.ar  301  FRG301      0.0079
     25  C9        -0.0100   13.3710   -9.0720 C.ar  301  FRG301      0.0419
     26  C8         0.0450   11.9300   -8.9320 C.1   301  FRG301     -0.0597
     27  C7         0.1140   10.6380   -8.8620 C.1   301  FRG301     -0.0597
     28  C4         0.1600    9.1950   -8.8240 C.ar  301  FRG301      0.0420
     29  C5        -0.6990    8.5090   -9.6690 C.ar  301  FRG301      0.0082
     30  C6        -0.6930    7.1280   -9.6580 C.ar  301  FRG301      0.0006
     31  C3         1.0160    8.5670   -7.9560 C.ar  301  FRG301      0.0082
     32  C2         1.0230    7.1890   -7.9480 C.ar  301  FRG301      0.0006
     33  C1         0.1680    6.4790   -8.7830 C.ar  301  FRG301      0.0000
@<TRIPOS>BOND
     1    16    15    2
     2    23    24   ar
     3    23    20   ar
     4    24    25   ar
     5    29    30   ar
     6    29    28   ar
     7    30    33   ar
     8    19    20    1
     9    19    14    1
    10    20    21   ar
    11    15    14    1
    12    15    17    1
    13    18    17    1
    14    25    26    1
    15    25    22   ar
    16    26    27    3
    17    14    13    1
    18    27    28    1
    19    28    31   ar
    20    33    32   ar
    21    21    22   ar
    22    31    32   ar
    23    13    11   am
    24    12    11    2
    25    11    10    1
    26    10     9    1
    27     8     9    1
    28     8     7    1
    29     9     5    1
    30     7     6    1
    31     5     4    1
    32     6     4    1
    33     4     2    1
    34     3     2    2
    35     2     1    1
