@<TRIPOS>MOLECULE
1m49_CMM_A_1.pdb
 41 44 0 0 0
SMALL
GASTEIGER

@<TRIPOS>ATOM
      1  O13       -0.2930    3.8720  -12.8080 O.co2 201  CMM201     -0.2369
      2  C11       -1.2170    4.4270  -12.2280 C.2   201  CMM201      0.4261
      3  O12       -2.2720    4.6240  -12.8040 O.co2 201  CMM201     -0.2369
      4  C10       -1.0820    4.8380  -10.9730 C.2   201  CMM201      0.2761
      5  O14       -0.9690    4.0360  -10.0600 O.2   201  CMM201     -0.2794
      6  C7        -1.0400    6.2990  -10.7220 C.2   201  CMM201      0.0659
      7  C8        -1.5560    7.4080  -11.3740 C.2   201  CMM201      0.1019
      8  C3        -0.2650    6.7390   -9.5520 C.2   201  CMM201      0.0196
      9  C4        -0.4170    8.1950   -9.6220 C.2   201  CMM201      0.0750
     10  N9        -1.1690    8.5230  -10.6950 N.2   201  CMM201     -0.2467
     11  C2         0.4800    6.1580   -8.5370 C.2   201  CMM201      0.0011
     12  C1         1.0870    6.9660   -7.5730 C.2   201  CMM201     -0.0032
     13  C6         0.9800    8.3580   -7.5850 C.2   201  CMM201     -0.0076
     14  C5         0.2490    8.9890   -8.5800 C.3   201  CMM201      0.1262
     15  C15        0.0710   10.4400   -8.6750 C.1   201  CMM201     -0.0769
     16  C16       -0.1040   11.7400   -8.7810 C.1   201  CMM201     -0.0637
     17  C17       -0.2600   13.1870   -8.9210 C.ar  201  CMM201      0.0416
     18  C18       -1.2670   13.9220   -8.3100 C.ar  201  CMM201      0.0079
     19  C19       -1.3020   15.2920   -8.5240 C.ar  201  CMM201     -0.0036
     20  C22        0.6960   13.7990   -9.7170 C.ar  201  CMM201      0.0079
     21  C21        0.6630   15.1650   -9.9280 C.ar  201  CMM201     -0.0036
     22  C20       -0.3500   15.9000   -9.3300 C.ar  201  CMM201     -0.0198
     23  C23       -0.3870   17.3490   -9.5510 C.3   201  CMM201      0.0594
     24  C24        0.6660   18.1630   -8.8680 C.3   201  CMM201      0.1977
     25  C25        0.5390   19.5980   -9.2590 C.2   201  CMM201      0.3374
     26  O26       -0.3890   20.4140   -8.5160 O.3   201  CMM201     -0.4432
     27  C27       -0.4260   21.8280   -8.7150 C.3   201  CMM201      0.2557
     28  O28        1.1920   20.0920  -10.1730 O.2   201  CMM201     -0.2482
     29  N29        0.5120   17.9950   -7.4430 N.am  201  CMM201     -0.1954
     30  C30        1.5280   18.2250   -6.6290 C.2   201  CMM201      0.2419
     31  O38        2.6220   18.6160   -7.0200 O.2   201  CMM201     -0.2733
     32  C31        1.2510   17.9450   -5.1730 C.3   201  CMM201      0.0901
     33  C32        1.5680   19.1440   -4.2940 C.3   201  CMM201      0.0466
     34  C33        1.4270   18.6370   -2.8600 C.3   201  CMM201      0.1682
     35  C37        0.5780   20.2750   -4.5900 C.3   201  CMM201      0.0071
     36  C36        0.5380   21.3670   -3.5150 C.3   201  CMM201      0.0406
     37  C35        0.4590   20.8220   -2.0820 C.3   201  CMM201      0.1678
     38  N34        1.4600   19.7500   -1.9290 N.pl3 201  CMM201     -0.1885
     39  C39        2.4470   19.7740   -0.9110 C.cat 201  CMM201      0.4954
     40  N41        2.3470   20.6390    0.0980 N.pl3 201  CMM201      0.1298
     41  N40        3.4780   18.9250   -0.9630 N.pl3 201  CMM201      0.1298
@<TRIPOS>BOND
     1     1     2   ar
     2     3     2   ar
     3     2     4    1
     4     7     6    2
     5     7    10    1
     6     4     6    1
     7     4     5    2
     8     6     8    1
     9    10     9    2
    10    28    25    2
    11    21    20   ar
    12    21    22   ar
    13    20    17   ar
    14     9     8    1
    15     9    14    1
    16     8    11    2
    17    23    22    1
    18    23    24    1
    19    22    19   ar
    20    25    24    1
    21    25    26    1
    22    17    16    1
    23    17    18   ar
    24    24    29    1
    25    16    15    3
    26    27    26    1
    27    15    14    1
    28    14    13    1
    29    11    12    1
    30    19    18   ar
    31    13    12    2
    32    29    30   am
    33    31    30    2
    34    30    32    1
    35    32    33    1
    36    35    33    1
    37    35    36    1
    38    33    34    1
    39    36    37    1
    40    34    38    1
    41    37    38    1
    42    38    39    1
    43    41    39    2
    44    39    40    1
