@<TRIPOS>MOLECULE
1m4a_MPE_A_1.pdb
 18 19 0 0 0
SMALL
GASTEIGER

@<TRIPOS>ATOM
      1  O9        -9.9130   -1.7490  -11.6590 O.co2 201  MPE201     -0.2436
      2  C7       -10.7790   -1.9550  -10.8280 C.2   201  MPE201      0.3871
      3  O8       -11.9520   -1.9400  -11.1570 O.co2 201  MPE201     -0.2436
      4  C6       -10.3840   -2.2070   -9.4080 C.3   201  MPE201      0.2291
      5  N5        -9.2300   -1.3990   -9.1040 N.4   201  MPE201     -0.0689
      6  O4        -9.0980   -0.7820   -7.8220 O.3   201  MPE201     -0.2645
      7  C3        -9.4710    0.5800   -7.6640 C.3   201  MPE201      0.1808
      8  C2       -10.2060    0.7020   -6.3420 C.3   201  MPE201      0.1029
      9  S1        -9.2270    1.6070   -5.1320 S.3   201  MPE201     -0.0793
     10  C10      -10.0550   -3.6350   -9.1880 C.2   201  MPE201      0.0272
     11  C11      -10.3660   -4.6480  -10.0720 C.2   201  MPE201      0.0965
     12  N12       -9.9020   -5.8030   -9.5110 N.2   201  MPE201     -0.2441
     13  C13       -9.3080   -5.6010   -8.3100 C.2   201  MPE201      0.0805
     14  C15       -8.7070   -6.4460   -7.3910 C.2   201  MPE201      0.0148
     15  C14       -9.3590   -4.1570   -7.9990 C.2   201  MPE201      0.0132
     16  C18       -8.8210   -3.6620   -6.8220 C.2   201  MPE201     -0.0201
     17  C17       -8.2250   -4.5550   -5.9390 C.3   201  MPE201      0.0521
     18  C16       -8.1730   -5.9220   -6.2160 C.2   201  MPE201     -0.0199
@<TRIPOS>BOND
     1     1     2   ar
     2     3     2   ar
     3     2     4    1
     4    11    12    1
     5    11    10    2
     6    12    13    2
     7     4    10    1
     8     4     5    1
     9    10    15    1
    10     5     6    1
    11    13    15    1
    12    13    14    1
    13    15    16    2
    14     6     7    1
    15     7     8    1
    16    14    18    2
    17    16    17    1
    18     8     9    1
    19    18    17    1
