@<TRIPOS>MOLECULE
1m4b_NMP_A_1.pdb
 27 27 0 0 0
SMALL
GASTEIGER

@<TRIPOS>ATOM
      1  S27       23.5820  -10.9240   -1.6820 S.3   201  NMP201     -0.0821
      2  C26       22.3290   -9.7810   -2.3070 C.3   201  NMP201      0.0705
      3  C25       20.9170  -10.2180   -1.9450 C.3   201  NMP201      0.0359
      4  C24       19.8850   -9.4160   -2.7280 C.3   201  NMP201      0.1161
      5  N23       19.4810   -8.2190   -2.0180 N.am  201  NMP201     -0.2040
      6  C20       20.0090   -7.0300   -2.3010 C.2   201  NMP201      0.2612
      7  O21       20.8050   -6.8430   -3.2060 O.2   201  NMP201     -0.2715
      8  C19       19.5830   -5.8870   -1.4330 C.3   201  NMP201      0.1728
      9  C22       18.5130   -5.0820   -2.1560 C.3   201  NMP201      0.0334
     10  N18       20.7100   -5.0370   -1.1040 N.am  201  NMP201     -0.1963
     11  C16       21.7760   -5.5100   -0.4640 C.2   201  NMP201      0.2639
     12  O17       21.9200   -6.6860   -0.1710 O.2   201  NMP201     -0.2714
     13  C15       22.8400   -4.5040   -0.1010 C.3   201  NMP201      0.2015
     14  N14       24.1640   -5.0100   -0.3980 N.am  201  NMP201     -0.1925
     15  C6        24.8240   -4.5760   -1.4660 C.2   201  NMP201      0.2818
     16  O7        24.4820   -3.5930   -2.1070 O.2   201  NMP201     -0.2696
     17  C5        26.0280   -5.3680   -1.8640 C.3   201  NMP201      0.2576
     18  N4        27.2110   -4.5380   -1.9440 N.pl3 201  NMP201     -0.0806
     19  C2        27.9890   -4.3490   -0.8820 C.cat 201  NMP201      0.5349
     20  N3        27.6770   -4.9050    0.2890 N.pl3 201  NMP201      0.1354
     21  N1        29.0870   -3.6090   -0.9890 N.pl3 201  NMP201      0.1354
     22  C8        25.7650   -6.0070   -3.2170 C.3   201  NMP201      0.0491
     23  C9        26.7640   -7.1210   -3.4880 C.3   201  NMP201      0.0040
     24  C10       26.5500   -7.6770   -4.8870 C.3   201  NMP201      0.0001
     25  C11       25.1260   -8.1970   -5.0370 C.3   201  NMP201      0.0000
     26  C12       24.0930   -7.1280   -4.6950 C.3   201  NMP201      0.0001
     27  C13       24.3480   -6.5550   -3.3060 C.3   201  NMP201      0.0040
@<TRIPOS>BOND
     1    25    24    1
     2    25    26    1
     3    24    23    1
     4    26    27    1
     5    23    22    1
     6    27    22    1
     7    22    17    1
     8     7     6    2
     9     4     5    1
    10     4     3    1
    11     2     3    1
    12     2     1    1
    13     6     5   am
    14     6     8    1
    15     9     8    1
    16    16    15    2
    17    18    17    1
    18    18    19    2
    19    17    15    1
    20    15    14   am
    21     8    10    1
    22    10    11   am
    23    21    19    1
    24    19    20    1
    25    11    12    2
    26    11    13    1
    27    14    13    1
