@<TRIPOS>MOLECULE
1m4d_PAP_A_1.pdb
 31 33 0 0 0
SMALL
GASTEIGER

@<TRIPOS>ATOM
      1  PB        16.2790   65.1230    7.1160 P.3   602  PAP602      0.5373
      2  O1B       16.8420   65.7570    5.8630 O.2   602  PAP602     -0.2221
      3  O2B       14.8690   65.5920    7.3130 O.3   602  PAP602     -0.1143
      4  O3B       17.0440   65.6730    8.4540 O.3   602  PAP602     -0.1143
      5  PA        16.4050   62.4260    8.1990 P.3   602  PAP602      0.2231
      6  O1A       15.0550   62.0430    8.6070 O.2   602  PAP602     -0.5169
      7  O2A       17.3320   62.8260    9.2930 O.3   602  PAP602     -0.4370
      8  O3A       16.3350   63.5340    7.0340 O.3   602  PAP602     -0.2261
      9  O5'       17.1750   61.2590    7.3760 O.3   602  PAP602     -0.3111
     10  C5'       16.7380   60.9010    6.0510 C.3   602  PAP602      0.1812
     11  C4'       16.2430   59.4360    6.0350 C.3   602  PAP602      0.1795
     12  O4'       17.4030   58.6180    6.2170 O.3   602  PAP602     -0.3136
     13  C3'       15.2200   58.9420    7.1080 C.3   602  PAP602      0.1928
     14  O3'       14.4840   57.7550    6.7210 O.3   602  PAP602     -0.2673
     15  P         12.8650   57.8580    6.3700 P.3   602  PAP602      0.5327
     16  O1        12.7520   59.1010    5.4880 O.2   602  PAP602     -0.2224
     17  O2        12.1480   57.9120    7.6580 O.3   602  PAP602     -0.1145
     18  O3        12.5050   56.6000    5.5880 O.3   602  PAP602     -0.1145
     19  C2'       16.1990   58.6350    8.2520 C.3   602  PAP602      0.2543
     20  O2'       15.7120   57.6510    9.1470 O.3   602  PAP602     -0.2131
     21  C1'       17.3190   57.9850    7.4920 C.3   602  PAP602      0.3185
     22  N9        18.5710   57.8860    8.2370 N.pl3 602  PAP602     -0.1439
     23  C8        19.2430   58.9120    8.8560 C.3   602  PAP602      0.3377
     24  N7        20.3600   58.4370    9.4120 N.2   602  PAP602     -0.2095
     25  C5        20.3890   57.0820    9.0850 C.2   602  PAP602      0.2526
     26  C6        21.4750   56.1490    9.2650 C.2   602  PAP602      0.4393
     27  N6        22.5900   56.6150    9.9240 N.pl3 602  PAP602      0.2180
     28  N1        21.5140   55.0570    8.4560 N.2   602  PAP602      0.0021
     29  C2        20.3750   54.6960    7.7680 C.3   602  PAP602      0.5254
     30  N3        19.1790   55.5220    7.6220 N.2   602  PAP602     -0.0055
     31  C4        19.3050   56.7460    8.2050 C.2   602  PAP602      0.3518
@<TRIPOS>BOND
     1    16    15    2
     2    18    15    1
     3     2     1    2
     4    11    10    1
     5    11    12    1
     6    11    13    1
     7    10     9    1
     8    12    21    1
     9    15    14    1
    10    15    17    1
    11    14    13    1
    12     8     1    1
    13     8     5    1
    14    13    19    1
    15     1     3    1
    16     1     4    1
    17     9     5    1
    18    21    22    1
    19    21    19    1
    20    30    29    1
    21    30    31    2
    22    29    28    1
    23     5     6    2
    24     5     7    1
    25    31    22    1
    26    31    25    1
    27    22    23    1
    28    19    20    1
    29    28    26    2
    30    23    24    1
    31    25    26    1
    32    25    24    2
    33    26    27    1
