@<TRIPOS>MOLECULE
1m4d_COA_A_1.pdb
 48 50 0 0 0
SMALL
GASTEIGER

@<TRIPOS>ATOM
      1  N1A       25.6430   45.2180    6.6870 N.2   600  COA600      0.0021
      2  C2A       26.0070   44.0460    7.1630 C.3   600  COA600      0.5254
      3  N3A       27.0990   43.8350    8.0990 N.2   600  COA600     -0.0055
      4  C4A       27.7490   44.9490    8.4710 C.2   600  COA600      0.3518
      5  C5A       27.4030   46.1800    7.9930 C.2   600  COA600      0.2526
      6  C6A       26.2840   46.2900    7.0590 C.2   600  COA600      0.4393
      7  N6A       25.9340   47.5070    6.5900 N.pl3 600  COA600      0.2180
      8  N7A       28.2180   47.1580    8.5190 N.2   600  COA600     -0.2095
      9  C8A       29.0530   46.5200    9.3140 C.3   600  COA600      0.3377
     10  N9A       28.7660   45.2200    9.2810 N.pl3 600  COA600     -0.1439
     11  C1B       29.3900   44.1390   10.0190 C.3   600  COA600      0.3185
     12  C2B       30.7890   44.3420   10.5790 C.3   600  COA600      0.2543
     13  O2B       31.4630   43.0610   10.3260 O.3   600  COA600     -0.2131
     14  C3B       30.4910   44.5160   12.0800 C.3   600  COA600      0.1928
     15  O3B       31.5770   44.2040   12.8880 O.3   600  COA600     -0.2673
     16  P3B       32.4950   45.3740   13.5760 P.3   600  COA600      0.5327
     17  O7A       33.5100   44.5380   14.2640 O.3   600  COA600     -0.1145
     18  O8A       31.6420   46.2070   14.5340 O.3   600  COA600     -0.1145
     19  O9A       33.0370   46.1730   12.4400 O.2   600  COA600     -0.2224
     20  C4B       29.3290   43.5460   12.2770 C.3   600  COA600      0.1795
     21  O4B       28.5580   43.6030   11.0770 O.3   600  COA600     -0.3136
     22  C5B       28.3870   43.8090   13.4560 C.3   600  COA600      0.1812
     23  O5B       27.9860   45.1800   13.4330 O.3   600  COA600     -0.3112
     24  P1A       27.2780   45.8460   14.7350 P.3   600  COA600      0.2189
     25  O1A       27.9580   45.4650   16.0010 O.3   600  COA600     -0.4371
     26  O2A       27.1160   47.3040   14.4790 O.2   600  COA600     -0.5170
     27  O3A       25.9070   45.0270   14.7320 O.3   600  COA600     -0.2703
     28  P2A       24.5070   45.4160   14.1510 P.3   600  COA600      0.2188
     29  O4A       23.8480   46.4980   14.9360 O.3   600  COA600     -0.4371
     30  O5A       24.6140   45.7350   12.6930 O.2   600  COA600     -0.5170
     31  O6A       23.6450   44.1100   14.1540 O.3   600  COA600     -0.3138
     32  CBP       23.2210   41.7880   13.5660 C.3   600  COA600      0.0645
     33  CCP       24.2690   42.8070   14.0400 C.3   600  COA600      0.1519
     34  CDP       23.8360   40.3450   13.6500 C.3   600  COA600      0.0056
     35  CEP       21.9910   41.7780   14.5580 C.3   600  COA600      0.0056
     36  CAP       22.7780   42.1130   12.0940 C.3   600  COA600      0.2312
     37  OAP       23.8900   41.8930   11.1730 O.3   600  COA600     -0.2131
     38  C9P       21.5760   41.2870   11.5930 C.2   600  COA600      0.2719
     39  O9P       20.4490   41.6780   11.7610 O.2   600  COA600     -0.2706
     40  N8P       21.9040   40.1930   10.7180 N.am  600  COA600     -0.2028
     41  C7P       20.8690   39.3380   10.1640 C.3   600  COA600      0.1248
     42  C6P       20.0780   38.5380   11.2660 C.3   600  COA600      0.1102
     43  C5P       20.9750   37.6400   12.1130 C.2   600  COA600      0.2432
     44  O5P       21.8210   36.9040   11.6200 O.2   600  COA600     -0.2733
     45  N4P       20.8340   37.8020   13.4750 N.am  600  COA600     -0.2044
     46  C3P       21.7870   37.2150   14.4730 C.3   600  COA600      0.1276
     47  C2P       21.0580   36.3780   15.5070 C.3   600  COA600      0.0920
     48  S1P       22.1250   35.1740   16.4040 S.3   600  COA600     -0.0802
@<TRIPOS>BOND
     1     7     6    1
     2     1     6    2
     3     1     2    1
     4     6     5    1
     5     2     3    1
     6     5     4    1
     7     5     8    2
     8     3     4    2
     9     4    10    1
    10     8     9    1
    11    10     9    1
    12    10    11    1
    13    11    12    1
    14    11    21    1
    15    41    40    1
    16    41    42    1
    17    13    12    1
    18    12    14    1
    19    40    38   am
    20    21    20    1
    21    37    36    1
    22    42    43    1
    23    38    39    2
    24    38    36    1
    25    44    43    2
    26    14    20    1
    27    14    15    1
    28    36    32    1
    29    43    45   am
    30    20    22    1
    31    19    16    2
    32    30    28    2
    33    15    16    1
    34    23    22    1
    35    23    24    1
    36    45    46    1
    37    32    34    1
    38    32    33    1
    39    32    35    1
    40    16    17    1
    41    16    18    1
    42    33    31    1
    43    28    31    1
    44    28    27    1
    45    28    29    1
    46    46    47    1
    47    26    24    2
    48    27    24    1
    49    24    25    1
    50    47    48    1
