@<TRIPOS>MOLECULE
1m4g_COA_A_1.pdb
 48 50 0 0 0
SMALL
GASTEIGER

@<TRIPOS>ATOM
      1  N1A       25.7780   45.3280    6.9370 N.2   502  COA502      0.0021
      2  C2A       26.1400   44.1000    7.4150 C.3   502  COA502      0.5254
      3  N3A       27.1510   43.8560    8.2830 N.2   502  COA502     -0.0055
      4  C4A       27.8740   44.9650    8.6960 C.2   502  COA502      0.3518
      5  C5A       27.5680   46.2320    8.2530 C.2   502  COA502      0.2526
      6  C6A       26.4670   46.3990    7.3330 C.2   502  COA502      0.4393
      7  N6A       26.1910   47.6420    6.9320 N.pl3 502  COA502      0.2180
      8  N7A       28.4000   47.1720    8.7870 N.2   502  COA502     -0.2095
      9  C8A       29.2350   46.5160    9.5790 C.3   502  COA502      0.3377
     10  N9A       28.9310   45.2210    9.5360 N.pl3 502  COA502     -0.1439
     11  C1B       29.5810   44.1250   10.2990 C.3   502  COA502      0.3185
     12  C2B       30.9650   44.4390   10.9090 C.3   502  COA502      0.2543
     13  O2B       31.6970   43.2320   10.8370 O.3   502  COA502     -0.2131
     14  C3B       30.6240   44.6980   12.4020 C.3   502  COA502      0.1928
     15  O3B       31.7100   44.3720   13.2350 O.3   502  COA502     -0.2673
     16  P3B       32.7360   45.4990   13.7860 P.3   502  COA502      0.5327
     17  O7A       33.7660   44.6400   14.4390 O.3   502  COA502     -0.1145
     18  O8A       32.0300   46.4420   14.7330 O.3   502  COA502     -0.1145
     19  O9A       33.2620   46.2060   12.5750 O.2   502  COA502     -0.2224
     20  C4B       29.4970   43.6880   12.6010 C.3   502  COA502      0.1795
     21  O4B       28.7390   43.6990   11.4070 O.3   502  COA502     -0.3136
     22  C5B       28.5820   43.9400   13.7910 C.3   502  COA502      0.1812
     23  O5B       28.1760   45.3500   13.7400 O.3   502  COA502     -0.3112
     24  P1A       27.4610   46.0530   15.0030 P.3   502  COA502      0.2189
     25  O1A       28.2050   45.7320   16.2750 O.3   502  COA502     -0.4371
     26  O2A       27.2810   47.4820   14.7080 O.2   502  COA502     -0.5170
     27  O3A       26.1020   45.2520   15.0450 O.3   502  COA502     -0.2703
     28  P2A       24.6960   45.6190   14.3720 P.3   502  COA502      0.2188
     29  O4A       24.0640   46.6560   15.2220 O.3   502  COA502     -0.4371
     30  O5A       24.8590   45.9660   12.9230 O.2   502  COA502     -0.5170
     31  O6A       23.8440   44.3240   14.3810 O.3   502  COA502     -0.3138
     32  CBP       23.4460   41.9530   13.8730 C.3   502  COA502      0.0645
     33  CCP       24.4700   43.0070   14.3820 C.3   502  COA502      0.1519
     34  CDP       24.1010   40.5290   13.9460 C.3   502  COA502      0.0056
     35  CEP       22.1660   41.9380   14.8420 C.3   502  COA502      0.0056
     36  CAP       23.0550   42.2610   12.4020 C.3   502  COA502      0.2312
     37  OAP       24.2210   42.0800   11.5690 O.3   502  COA502     -0.2131
     38  C9P       21.9040   41.4400   11.8580 C.2   502  COA502      0.2719
     39  O9P       20.7220   41.7200   12.0730 O.2   502  COA502     -0.2706
     40  N8P       22.2830   40.3020   11.1020 N.am  502  COA502     -0.2028
     41  C7P       21.2930   39.4540   10.4660 C.3   502  COA502      0.1248
     42  C6P       20.4430   38.5560   11.4910 C.3   502  COA502      0.1102
     43  C5P       21.3010   37.7200   12.4610 C.2   502  COA502      0.2432
     44  O5P       22.2770   37.0880   12.0990 O.2   502  COA502     -0.2733
     45  N4P       21.1610   38.0820   13.7600 N.am  502  COA502     -0.2044
     46  C3P       21.7850   37.3340   14.8770 C.3   502  COA502      0.1276
     47  C2P       20.9930   36.1350   15.3320 C.3   502  COA502      0.0920
     48  S1P       21.8400   35.3550   16.7430 S.3   502  COA502     -0.0802
@<TRIPOS>BOND
     1     7     6    1
     2     1     6    2
     3     1     2    1
     4     6     5    1
     5     2     3    1
     6     5     4    1
     7     5     8    2
     8     3     4    2
     9     4    10    1
    10     8     9    1
    11    10     9    1
    12    10    11    1
    13    11    12    1
    14    11    21    1
    15    41    40    1
    16    41    42    1
    17    13    12    1
    18    12    14    1
    19    40    38   am
    20    21    20    1
    21    42    43    1
    22    37    36    1
    23    38    39    2
    24    38    36    1
    25    44    43    2
    26    14    20    1
    27    14    15    1
    28    36    32    1
    29    43    45   am
    30    19    16    2
    31    20    22    1
    32    30    28    2
    33    15    16    1
    34    23    22    1
    35    23    24    1
    36    45    46    1
    37    16    17    1
    38    16    18    1
    39    32    34    1
    40    32    33    1
    41    32    35    1
    42    28    31    1
    43    28    27    1
    44    28    29    1
    45    31    33    1
    46    26    24    2
    47    46    47    1
    48    24    27    1
    49    24    25    1
    50    47    48    1
