@<TRIPOS>MOLECULE
1m4g_RIO_A_1.pdb
 31 33 0 0 0
SMALL
GASTEIGER

@<TRIPOS>ATOM
      1  O1        24.1940   29.5450   11.2230 O.3   500  RIO500     -0.2176
      2  C1        23.6390   29.7330    9.9240 C.3   500  RIO500      0.2142
      3  C2        22.2700   30.3590   10.0780 C.3   500  RIO500      0.1836
      4  O2        21.5090   29.5850   11.0210 O.3   500  RIO500     -0.3256
      5  C3        20.7250   30.4740   11.8540 C.3   500  RIO500      0.2695
      6  O3        21.4030   30.5620   13.0960 O.3   500  RIO500     -0.3258
      7  C4        21.1140   29.5840   14.1010 C.3   500  RIO500      0.1779
      8  C5        21.5710   28.1790   13.6890 C.3   500  RIO500      0.1989
      9  O4        22.9870   28.2060   13.4170 O.3   500  RIO500     -0.2189
     10  C6        21.3030   27.0810   14.7640 C.3   500  RIO500      0.1261
     11  N1        21.6260   25.7630   14.1260 N.3   500  RIO500     -0.1301
     12  C7        19.8230   27.0490   15.1650 C.3   500  RIO500      0.0433
     13  C8        19.3570   28.4930   15.6310 C.3   500  RIO500      0.1230
     14  N2        17.8840   28.4640   15.9500 N.3   500  RIO500     -0.1302
     15  C9        19.6190   29.5870   14.5670 C.3   500  RIO500      0.1649
     16  O5        19.2420   30.7710   15.2240 O.3   500  RIO500     -0.3278
     17  C10       19.2760   32.0540   14.6100 C.3   500  RIO500      0.2561
     18  O6        18.4990   32.0050   13.3760 O.3   500  RIO500     -0.3276
     19  C11       17.0730   31.7610   13.4410 C.3   500  RIO500      0.1696
     20  C12       16.5090   32.0910   12.0510 C.3   500  RIO500      0.1415
     21  N3        17.1980   31.2380   11.0640 N.3   500  RIO500     -0.1286
     22  C13       16.3880   32.6280   14.5260 C.3   500  RIO500      0.2122
     23  O7        15.0720   32.1220   14.6870 O.3   500  RIO500     -0.2177
     24  C14       17.1800   32.5390   15.8490 C.3   500  RIO500      0.2070
     25  O8        16.5520   33.3980   16.8460 O.3   500  RIO500     -0.2186
     26  C15       18.6310   33.0110   15.6100 C.3   500  RIO500      0.1807
     27  N4        19.3770   32.9500   16.9130 N.3   500  RIO500     -0.1248
     28  C16       20.8460   31.8390   11.1900 C.3   500  RIO500      0.2404
     29  O9        19.8570   31.9900   10.2200 O.3   500  RIO500     -0.2149
     30  C17       22.2370   31.7880   10.5690 C.3   500  RIO500      0.2168
     31  O10       22.2330   32.7070    9.4460 O.3   500  RIO500     -0.2175
@<TRIPOS>BOND
     1    31    30    1
     2     2     3    1
     3     2     1    1
     4     3    30    1
     5     3     4    1
     6    29    28    1
     7    30    28    1
     8     4     5    1
     9    21    20    1
    10    28     5    1
    11     5     6    1
    12    20    19    1
    13     6     7    1
    14    18    19    1
    15    18    17    1
    16     9     8    1
    17    19    22    1
    18     8     7    1
    19     8    10    1
    20     7    15    1
    21    11    10    1
    22    22    23    1
    23    22    24    1
    24    15    16    1
    25    15    13    1
    26    17    16    1
    27    17    26    1
    28    10    12    1
    29    12    13    1
    30    26    24    1
    31    26    27    1
    32    13    14    1
    33    24    25    1
