@<TRIPOS>MOLECULE
1m4g_PAP_B_1.pdb
 31 33 0 0 0
SMALL
GASTEIGER

@<TRIPOS>ATOM
      1  PB       -12.4530   18.3770   46.9580 P.3   600  PAP600      0.5373
      2  O1B      -12.5240   19.3130   48.1230 O.3   600  PAP600     -0.1143
      3  O2B      -13.0630   17.0510   47.2710 O.3   600  PAP600     -0.1143
      4  O3B      -13.4170   18.9620   45.7450 O.2   600  PAP600     -0.2221
      5  PA        -9.6000   17.7160   46.7350 P.3   600  PAP600      0.2231
      6  O1A       -9.7510   16.2820   47.1160 O.3   600  PAP600     -0.4370
      7  O2A       -8.6650   17.9680   45.5430 O.2   600  PAP600     -0.5169
      8  O3A      -10.9950   18.3560   46.3210 O.3   600  PAP600     -0.2261
      9  O5'       -8.9770   18.6420   47.9030 O.3   600  PAP600     -0.3111
     10  C5'       -9.4540   18.5870   49.2130 C.3   600  PAP600      0.1812
     11  C4'       -9.4920   20.0160   49.7470 C.3   600  PAP600      0.1795
     12  O4'       -9.7940   19.9230   51.1280 O.3   600  PAP600     -0.3136
     13  C3'       -8.2000   20.8520   49.7010 C.3   600  PAP600      0.1928
     14  O3'       -8.4500   22.2210   49.9540 O.3   600  PAP600     -0.2673
     15  P         -7.5330   23.3950   49.1520 P.3   600  PAP600      0.5327
     16  O1        -7.0650   22.6820   47.9230 O.2   600  PAP600     -0.2224
     17  O2        -6.4680   23.7970   50.0950 O.3   600  PAP600     -0.1145
     18  O3        -8.4780   24.5450   48.9120 O.3   600  PAP600     -0.1145
     19  C2'       -7.4460   20.1810   50.8550 C.3   600  PAP600      0.2543
     20  O2'       -6.4650   21.0210   51.4520 O.3   600  PAP600     -0.2131
     21  C1'       -8.5630   19.9670   51.8670 C.3   600  PAP600      0.3185
     22  N9        -8.3820   18.7850   52.6980 N.pl3 600  PAP600     -0.1439
     23  C8        -8.0250   17.4980   52.2850 C.3   600  PAP600      0.3377
     24  N7        -8.0360   16.6820   53.3310 N.2   600  PAP600     -0.2095
     25  C5        -8.5430   17.4580   54.3710 C.2   600  PAP600      0.2526
     26  C6        -8.6750   17.1320   55.7780 C.2   600  PAP600      0.4393
     27  N6        -8.4400   15.8260   56.1830 N.pl3 600  PAP600      0.2180
     28  N1        -8.6970   18.1790   56.6440 N.2   600  PAP600      0.0021
     29  C2        -8.8450   19.4570   56.1440 C.3   600  PAP600      0.5254
     30  N3        -8.9570   19.8170   54.8680 N.2   600  PAP600     -0.0055
     31  C4        -8.6460   18.8370   53.9880 C.2   600  PAP600      0.3518
@<TRIPOS>BOND
     1     7     5    2
     2     4     1    2
     3     8     5    1
     4     8     1    1
     5     5     6    1
     6     5     9    1
     7     1     3    1
     8     1     2    1
     9     9    10    1
    10    16    15    2
    11    18    15    1
    12    15    14    1
    13    15    17    1
    14    10    11    1
    15    13    11    1
    16    13    14    1
    17    13    19    1
    18    11    12    1
    19    19    20    1
    20    19    21    1
    21    12    21    1
    22    21    22    1
    23    23    22    1
    24    23    24    1
    25    22    31    1
    26    24    25    2
    27    31    25    1
    28    31    30    2
    29    25    26    1
    30    30    29    1
    31    26    27    1
    32    26    28    2
    33    29    28    1
