@<TRIPOS>MOLECULE
1m4i_COA_A_1.pdb
 48 50 0 0 0
SMALL
GASTEIGER

@<TRIPOS>ATOM
      1  N1A       25.7690   44.7610    6.8270 N.2   600  COA600      0.0021
      2  C2A       26.3130   43.6860    7.3790 C.3   600  COA600      0.5254
      3  N3A       27.3460   43.7190    8.2160 N.2   600  COA600     -0.0055
      4  C4A       27.8780   44.9380    8.5020 C.2   600  COA600      0.3518
      5  C5A       27.4240   46.0850    8.0080 C.2   600  COA600      0.2526
      6  C6A       26.2850   45.9760    7.0970 C.2   600  COA600      0.4393
      7  N6A       25.8060   47.0590    6.5780 N.pl3 600  COA600      0.2180
      8  N7A       28.1240   47.1690    8.4590 N.2   600  COA600     -0.2095
      9  C8A       29.0490   46.6720    9.2820 C.3   600  COA600      0.3377
     10  N9A       28.8810   45.3660    9.3020 N.pl3 600  COA600     -0.1439
     11  C1B       29.5480   44.3290   10.0880 C.3   600  COA600      0.3185
     12  C2B       30.8560   44.6660   10.7040 C.3   600  COA600      0.2543
     13  O2B       31.6570   43.4470   10.4730 O.3   600  COA600     -0.2131
     14  C3B       30.5430   44.7040   12.2240 C.3   600  COA600      0.1928
     15  O3B       31.6730   44.3720   12.9830 O.3   600  COA600     -0.2673
     16  P3B       32.6540   45.5810   13.5560 P.3   600  COA600      0.5327
     17  O7A       33.6250   44.7660   14.3530 O.3   600  COA600     -0.1145
     18  O8A       31.8340   46.5690   14.3910 O.3   600  COA600     -0.1145
     19  O9A       33.2540   46.2350   12.3440 O.2   600  COA600     -0.2224
     20  C4B       29.3990   43.6770   12.3710 C.3   600  COA600      0.1795
     21  O4B       28.6500   43.8530   11.1490 O.3   600  COA600     -0.3136
     22  C5B       28.3980   43.9600   13.4960 C.3   600  COA600      0.1812
     23  O5B       28.1160   45.3710   13.5010 O.3   600  COA600     -0.3112
     24  P1A       27.3400   46.0110   14.7640 P.3   600  COA600      0.2189
     25  O1A       28.0150   45.6290   16.0860 O.3   600  COA600     -0.4371
     26  O2A       27.1400   47.4250   14.4800 O.2   600  COA600     -0.5170
     27  O3A       25.9690   45.2010   14.7320 O.3   600  COA600     -0.2703
     28  P2A       24.5470   45.6080   14.1200 P.3   600  COA600      0.2188
     29  O4A       23.8280   46.6220   14.9950 O.3   600  COA600     -0.4371
     30  O5A       24.7320   45.9580   12.6320 O.2   600  COA600     -0.5170
     31  O6A       23.7560   44.2560   14.1720 O.3   600  COA600     -0.3138
     32  CBP       23.3400   41.9390   13.5400 C.3   600  COA600      0.0645
     33  CCP       24.3750   42.9690   14.0380 C.3   600  COA600      0.1519
     34  CDP       23.9480   40.5210   13.6200 C.3   600  COA600      0.0056
     35  CEP       22.1300   41.9990   14.5250 C.3   600  COA600      0.0056
     36  CAP       22.8750   42.2640   12.1150 C.3   600  COA600      0.2312
     37  OAP       23.9990   42.0840   11.2180 O.3   600  COA600     -0.2131
     38  C9P       21.7100   41.4330   11.6120 C.2   600  COA600      0.2719
     39  O9P       20.5720   41.8230   11.8000 O.2   600  COA600     -0.2706
     40  N8P       22.0060   40.2860   10.8850 N.am  600  COA600     -0.2028
     41  C7P       20.9430   39.5120   10.3150 C.3   600  COA600      0.1248
     42  C6P       20.2130   38.5730   11.3350 C.3   600  COA600      0.1102
     43  C5P       21.0770   37.7320   12.1770 C.2   600  COA600      0.2432
     44  O5P       21.9280   37.0600   11.6710 O.2   600  COA600     -0.2733
     45  N4P       20.8760   37.8690   13.5430 N.am  600  COA600     -0.2044
     46  C3P       21.8350   37.4910   14.5830 C.3   600  COA600      0.1276
     47  C2P       21.6350   36.1070   14.9580 C.3   600  COA600      0.0920
     48  S1P       23.0060   35.5350   16.0440 S.3   600  COA600     -0.0802
@<TRIPOS>BOND
     1     7     6    1
     2     1     6    2
     3     1     2    1
     4     6     5    1
     5     2     3    1
     6     5     8    2
     7     5     4    1
     8     3     4    2
     9     8     9    1
    10     4    10    1
    11     9    10    1
    12    10    11    1
    13    11    12    1
    14    11    21    1
    15    41    40    1
    16    41    42    1
    17    13    12    1
    18    12    14    1
    19    40    38   am
    20    21    20    1
    21    37    36    1
    22    42    43    1
    23    38    39    2
    24    38    36    1
    25    44    43    2
    26    36    32    1
    27    43    45   am
    28    14    20    1
    29    14    15    1
    30    19    16    2
    31    20    22    1
    32    30    28    2
    33    15    16    1
    34    22    23    1
    35    23    24    1
    36    32    34    1
    37    32    33    1
    38    32    35    1
    39    45    46    1
    40    16    17    1
    41    16    18    1
    42    33    31    1
    43    28    31    1
    44    28    27    1
    45    28    29    1
    46    26    24    2
    47    46    47    1
    48    27    24    1
    49    24    25    1
    50    47    48    1
