@<TRIPOS>MOLECULE
1m4i_KAN_A_1.pdb
 33 35 0 0 0
SMALL
GASTEIGER

@<TRIPOS>ATOM
      1  C1        19.2250   31.9200   14.3960 C.3   500  KAN500      0.2695
      2  C2        18.6330   33.0010   15.2900 C.3   500  KAN500      0.2406
      3  C3        17.1940   32.5690   15.5650 C.3   500  KAN500      0.2198
      4  C4        16.4110   32.6190   14.2720 C.3   500  KAN500      0.2133
      5  C5        17.0530   31.6470   13.3240 C.3   500  KAN500      0.1696
      6  C6        16.3650   31.6750   11.9310 C.3   500  KAN500      0.1415
      7  C7        20.7070   26.8130   14.6000 C.3   500  KAN500      0.1231
      8  C8        21.1130   27.8240   13.5170 C.3   500  KAN500      0.1680
      9  C9        20.8550   29.2510   14.0520 C.3   500  KAN500      0.2088
     10  C10       19.3510   29.4140   14.3760 C.3   500  KAN500      0.1680
     11  C11       18.9640   28.3750   15.4730 C.3   500  KAN500      0.1231
     12  C12       19.2480   26.9420   14.9610 C.3   500  KAN500      0.0432
     13  C13       22.8480   27.3220   11.8220 C.3   500  KAN500      0.2684
     14  C14       24.1350   26.5080   11.8350 C.3   500  KAN500      0.2279
     15  C15       25.2970   27.4000   12.3200 C.3   500  KAN500      0.1599
     16  C16       25.4420   28.6380   11.3860 C.3   500  KAN500      0.2017
     17  C17       24.1400   29.3880   11.4670 C.3   500  KAN500      0.1824
     18  C18       24.0690   30.6730   10.6130 C.3   500  KAN500      0.2142
     19  N1        16.9030   30.5050   11.1480 N.3   500  KAN500     -0.1286
     20  N2        17.5270   28.5270   15.7610 N.3   500  KAN500     -0.1302
     21  N3        21.0440   25.4130   14.1020 N.3   500  KAN500     -0.1302
     22  N4        26.5600   26.6690   12.4730 N.3   500  KAN500     -0.1272
     23  O5        18.4740   31.7930   13.2260 O.3   500  KAN500     -0.3268
     24  O6        19.3790   33.0260   16.5360 O.3   500  KAN500     -0.2149
     25  O7        16.5480   33.4860   16.4910 O.3   500  KAN500     -0.2174
     26  O8        15.0920   32.1470   14.4740 O.3   500  KAN500     -0.2176
     27  O9        19.1530   30.6550   15.0810 O.3   500  KAN500     -0.3269
     28  O10       21.2410   30.2020   12.9790 O.3   500  KAN500     -0.2178
     29  O11       22.5130   27.6980   13.2020 O.3   500  KAN500     -0.3269
     30  O12       23.0900   28.4990   11.0610 O.3   500  KAN500     -0.3257
     31  O13       23.9870   25.4090   12.6890 O.3   500  KAN500     -0.2161
     32  O14       26.4830   29.4640   11.8500 O.3   500  KAN500     -0.2188
     33  O15       24.2950   30.3350    9.2140 O.3   500  KAN500     -0.2176
@<TRIPOS>BOND
     1    33    18    1
     2    18    17    1
     3    30    17    1
     4    30    13    1
     5    19     6    1
     6    16    17    1
     7    16    32    1
     8    16    15    1
     9    13    14    1
    10    13    29    1
    11    14    15    1
    12    14    31    1
    13     6     5    1
    14    15    22    1
    15    28     9    1
    16    29     8    1
    17    23     5    1
    18    23     1    1
    19     5     4    1
    20     8     9    1
    21     8     7    1
    22     9    10    1
    23    21     7    1
    24     4    26    1
    25     4     3    1
    26    10    27    1
    27    10    11    1
    28     1    27    1
    29     1     2    1
    30     7    12    1
    31    12    11    1
    32     2     3    1
    33     2    24    1
    34    11    20    1
    35     3    25    1
