@<TRIPOS>MOLECULE
1m4i_PAP_A_1.pdb
 31 33 0 0 0
SMALL
GASTEIGER

@<TRIPOS>ATOM
      1  PB        17.2110   65.4260    7.9320 P.3   602  PAP602      0.5373
      2  O1B       18.7290   65.4620    7.8050 O.3   602  PAP602     -0.1143
      3  O2B       16.5700   66.3850    6.9820 O.2   602  PAP602     -0.2221
      4  O3B       16.7600   66.0670    9.3980 O.3   602  PAP602     -0.1143
      5  PA        16.6080   62.5160    8.5140 P.3   602  PAP602      0.2231
      6  O1A       15.2360   62.1200    8.8800 O.2   602  PAP602     -0.5169
      7  O2A       17.5660   62.5400    9.6670 O.3   602  PAP602     -0.4370
      8  O3A       16.5870   63.9250    7.6480 O.3   602  PAP602     -0.2261
      9  O5'       17.2710   61.4310    7.4550 O.3   602  PAP602     -0.3111
     10  C5'       16.7200   61.1350    6.1430 C.3   602  PAP602      0.1812
     11  C4'       16.3350   59.6250    6.0540 C.3   602  PAP602      0.1795
     12  O4'       17.5360   58.8160    6.2170 O.3   602  PAP602     -0.3136
     13  C3'       15.3270   59.0660    7.0830 C.3   602  PAP602      0.1928
     14  O3'       14.6330   57.9100    6.6170 O.3   602  PAP602     -0.2673
     15  P         13.0270   57.9910    6.3150 P.3   602  PAP602      0.5327
     16  O1        12.8640   59.2120    5.4030 O.2   602  PAP602     -0.2224
     17  O2        12.3090   58.0560    7.6240 O.3   602  PAP602     -0.1145
     18  O3        12.7100   56.6970    5.5980 O.3   602  PAP602     -0.1145
     19  C2'       16.2730   58.7070    8.2090 C.3   602  PAP602      0.2543
     20  O2'       15.6950   57.7560    9.1100 O.3   602  PAP602     -0.2131
     21  C1'       17.3690   58.0140    7.4250 C.3   602  PAP602      0.3185
     22  N9        18.6260   57.8730    8.1800 N.pl3 602  PAP602     -0.1439
     23  C8        19.3280   58.9450    8.7520 C.3   602  PAP602      0.3377
     24  N7        20.4850   58.5180    9.2220 N.2   602  PAP602     -0.2095
     25  C5        20.5920   57.1690    8.7910 C.2   602  PAP602      0.2526
     26  C6        21.6960   56.2390    8.9260 C.2   602  PAP602      0.4393
     27  N6        22.8630   56.6650    9.5650 N.pl3 602  PAP602      0.2180
     28  N1        21.5920   55.0660    8.2760 N.2   602  PAP602      0.0021
     29  C2        20.4710   54.8080    7.5100 C.3   602  PAP602      0.5254
     30  N3        19.3220   55.5040    7.5290 N.2   602  PAP602     -0.0055
     31  C4        19.4380   56.7530    8.0680 C.2   602  PAP602      0.3518
@<TRIPOS>BOND
     1    16    15    2
     2    18    15    1
     3    11    10    1
     4    11    12    1
     5    11    13    1
     6    10     9    1
     7    12    21    1
     8    15    14    1
     9    15    17    1
    10    14    13    1
    11     3     1    2
    12    13    19    1
    13    21    22    1
    14    21    19    1
    15     9     5    1
    16    29    30    1
    17    29    28    1
    18    30    31    2
    19     8     1    1
    20     8     5    1
    21     2     1    1
    22     1     4    1
    23    31    22    1
    24    31    25    1
    25    22    23    1
    26    19    20    1
    27    28    26    2
    28     5     6    2
    29     5     7    1
    30    23    24    1
    31    25    26    1
    32    25    24    2
    33    26    27    1
