@<TRIPOS>MOLECULE
1m4n_AAD_A_1.pdb
 24 26 0 0 0
SMALL
GASTEIGER

@<TRIPOS>ATOM
      1  C4'       19.8060    2.5640   26.5100 C.3   502  AAD502      0.1622
      2  O4'       18.4700    2.1470   26.9640 O.3   502  AAD502     -0.3153
      3  C3'       20.1570    3.8020   27.3660 C.3   502  AAD502      0.2168
      4  O3'       19.9900    5.0200   26.6900 O.3   502  AAD502     -0.2175
      5  C2'       19.2770    3.6680   28.6440 C.3   502  AAD502      0.2569
      6  O2'       19.1050    4.7300   29.4870 O.3   502  AAD502     -0.2130
      7  C1'       18.0390    3.0500   28.0470 C.3   502  AAD502      0.3185
      8  N9        17.3140    2.1210   28.9230 N.pl3 502  AAD502     -0.1439
      9  C8        16.0120    2.3460   29.3120 C.3   502  AAD502      0.3377
     10  N7        15.6090    1.4500   30.1310 N.2   502  AAD502     -0.2095
     11  C5        16.6850    0.5860   30.2940 C.2   502  AAD502      0.2526
     12  C6        16.8180   -0.6170   31.1090 C.2   502  AAD502      0.4393
     13  N6        15.8200   -1.0460   31.8570 N.pl3 502  AAD502      0.2180
     14  N1        18.0220   -1.2080   31.0190 N.2   502  AAD502      0.0021
     15  C2        19.0620   -0.7690   30.2510 C.3   502  AAD502      0.5254
     16  N3        18.9810    0.3300   29.4920 N.2   502  AAD502     -0.0055
     17  C4        17.7730    0.9520   29.5610 C.2   502  AAD502      0.3518
     18  N2        20.4500   -0.2170   22.2190 N.3   502  AAD502      0.0419
     19  O2        19.3170   -1.0310   22.4970 O.3   502  AAD502     -0.2480
     20  CB        19.2120   -1.3190   23.9060 C.3   502  AAD502      0.1807
     21  CG        19.2470   -0.0500   24.8100 C.3   502  AAD502      0.0826
     22  SD        20.2980   -0.2590   26.3170 S.3   502  AAD502     -0.1736
     23  CE        21.7600   -1.1460   25.8210 C.3   502  AAD502      0.0591
     24  C5'       20.8200    1.4510   26.5320 C.3   502  AAD502      0.0806
@<TRIPOS>BOND
     1    18    19    1
     2    19    20    1
     3    20    21    1
     4    21    22    1
     5    23    22    1
     6    22    24    1
     7     1    24    1
     8     1     2    1
     9     1     3    1
    10     4     3    1
    11     2     7    1
    12     3     5    1
    13     7     5    1
    14     7     8    1
    15     5     6    1
    16     8     9    1
    17     8    17    1
    18     9    10    1
    19    16    17    2
    20    16    15    1
    21    17    11    1
    22    10    11    2
    23    15    14    1
    24    11    12    1
    25    14    12    2
    26    12    13    1
