@<TRIPOS>MOLECULE
1m4n_PLP_A_1.pdb
 15 15 0 0 0
SMALL
GASTEIGER

@<TRIPOS>ATOM
      1  N1        23.7910    1.8820   18.9100 N.ar  501  PLP501     -0.2452
      2  C2        22.5640    1.7990   18.2680 C.ar  501  PLP501      0.0978
      3  C2A       22.5150    2.4800   16.8970 C.3   501  PLP501      0.0555
      4  C3        21.5240    1.0900   18.9790 C.ar  501  PLP501      0.2049
      5  O3        20.3730    1.0450   18.3160 O.3   501  PLP501     -0.2857
      6  C4        21.7590    0.5320   20.2310 C.ar  501  PLP501      0.0182
      7  C4A       20.6870   -0.2050   20.9750 C.3   501  PLP501      0.0342
      8  C5        23.1390    0.6950   20.8140 C.ar  501  PLP501      0.0261
      9  C6        24.0760    1.3630   20.1160 C.ar  501  PLP501      0.0965
     10  C5A       23.4480    0.0930   22.1960 C.3   501  PLP501      0.1815
     11  O4P       23.9150   -1.2240   22.2110 O.3   501  PLP501     -0.2653
     12  P         24.8570   -1.8980   23.3160 P.3   501  PLP501      0.5329
     13  O1P       25.2040   -0.8450   24.3310 O.3   501  PLP501     -0.1145
     14  O2P       26.0990   -2.3720   22.6040 O.2   501  PLP501     -0.2224
     15  O3P       24.1410   -3.0380   23.8320 O.3   501  PLP501     -0.1145
@<TRIPOS>BOND
     1     3     2    1
     2     2     1   ar
     3     2     4   ar
     4     5     4    1
     5     1     9   ar
     6     4     6   ar
     7     9     8   ar
     8     6     8   ar
     9     6     7    1
    10     8    10    1
    11    10    11    1
    12    11    12    1
    13    14    12    2
    14    12    15    1
    15    12    13    1
