@<TRIPOS>MOLECULE
1m51_TSX_A_1.pdb
 29 31 0 0 0
SMALL
GASTEIGER

@<TRIPOS>ATOM
      1  O13       37.0340   39.3300   34.0690 O.2   1001  TSX1001    -0.2461
      2  C5        37.1400   40.4010   33.5010 C.ar  1001  TSX1001     0.3360
      3  N4        36.2240   40.7180   32.4980 N.ar  1001  TSX1001    -0.2422
      4  C31       35.2460   39.6580   32.1950 C.3   1001  TSX1001     0.1401
      5  C32       33.8140   39.8250   32.5280 C.2   1001  TSX1001    -0.0015
      6  C33       32.8080   39.1790   31.9170 C.2   1001  TSX1001    -0.0029
      7  N6        38.1410   41.2270   33.9000 N.ar  1001  TSX1001    -0.2534
      8  C41       39.0810   40.8890   34.9830 C.3   1001  TSX1001     0.1131
      9  C42       40.2060   39.9490   34.4560 C.3   1001  TSX1001     0.0247
     10  C43       41.2930   39.5840   35.5170 C.3   1001  TSX1001     0.0020
     11  C44       40.8800   38.4050   36.4370 C.3   1001  TSX1001     0.0001
     12  C7        38.2540   42.4850   33.2590 C.ar  1001  TSX1001     0.2462
     13  N12       39.1700   43.4230   33.5300 N.2   1001  TSX1001    -0.3226
     14  C8        37.3950   42.8590   32.2500 C.ar  1001  TSX1001     0.2464
     15  C3        36.2910   41.9140   31.8230 C.ar  1001  TSX1001     0.2993
     16  O12       35.5300   42.2790   30.9240 O.2   1001  TSX1001    -0.2638
     17  N9        37.7050   44.0890   31.8070 N.2   1001  TSX1001    -0.3341
     18  C11       38.8510   44.3900   32.6400 C.1   1001  TSX1001     0.1200
     19  C14       39.6100   45.6860   32.5210 C.3   1001  TSX1001     0.1511
     20  C21       38.8670   46.6470   33.4400 C.ar  1001  TSX1001    -0.0051
     21  C22       37.9330   47.5730   32.9620 C.ar  1001  TSX1001    -0.0018
     22  C23       37.3140   48.3970   33.9160 C.ar  1001  TSX1001     0.0163
     23  C24       37.6520   48.2720   35.2860 C.ar  1001  TSX1001     0.0733
     24  C25       38.5820   47.3420   35.7290 C.ar  1001  TSX1001     0.0163
     25  C26       39.1950   46.5180   34.7890 C.ar  1001  TSX1001    -0.0018
     26  N         37.0680   49.0560   36.3250 N.am  1001  TSX1001    -0.1792
     27  C         36.5170   50.2780   36.1330 C.2   1001  TSX1001     0.2461
     28  O         36.4540   50.8550   35.0450 O.2   1001  TSX1001    -0.2730
     29  C4        35.9530   50.9380   37.3690 C.3   1001  TSX1001     0.0968
@<TRIPOS>BOND
     1    16    15    2
     2    17    14    2
     3    17    18    2
     4    15    14   ar
     5    15     3   ar
     6     6     5    2
     7     4     3    1
     8     4     5    1
     9    14    12   ar
    10     3     2   ar
    11    19    18    1
    12    19    20    1
    13    18    13    2
    14    21    20   ar
    15    21    22   ar
    16    12    13    2
    17    12     7   ar
    18    20    25   ar
    19     2     7   ar
    20     2     1    2
    21     7     8    1
    22    22    23   ar
    23     9     8    1
    24     9    10    1
    25    25    24   ar
    26    28    27    2
    27    23    24   ar
    28    23    26    1
    29    10    11    1
    30    27    26   am
    31    27    29    1
