@<TRIPOS>MOLECULE
1m52_P17_A_1.pdb
 29 32 0 0 0
SMALL
GASTEIGER

@<TRIPOS>ATOM
      1  S2        40.6260   32.9450    1.8920 S.3   119  P17119     -0.1127
      2  C3        41.3150   33.3820    3.4710 C.ar  119  P17119      0.0266
      3  C8        40.7700   32.7960    4.6520 C.ar  119  P17119      0.0235
      4  C7        41.2970   33.1300    5.9280 C.ar  119  P17119      0.0831
      5  N9        40.7040   32.5230    7.0350 N.pl3 119  P17119     -0.1357
      6  C10       41.2290   32.5180    8.3100 C.1   119  P17119      0.1711
      7  N15       42.3940   33.1840    8.5720 N.2   119  P17119     -0.3179
      8  C14       42.9690   33.2100    9.8080 C.ar  119  P17119      0.2117
      9  N19       44.1550   33.8970   10.0240 N.ar  119  P17119     -0.2681
     10  C20       44.7440   34.5950    8.8660 C.3   119  P17119      0.1361
     11  C18       44.7430   33.9270   11.2250 C.ar  119  P17119      0.2627
     12  O21       45.7940   34.5260   11.4320 O.2   119  P17119     -0.2669
     13  C17       44.1310   33.2130   12.3940 C.ar  119  P17119      0.0580
     14  C22       44.7650   33.1950   13.7780 C.ar  119  P17119      0.0257
     15  C27       45.6940   32.1630   14.1680 C.ar  119  P17119      0.0586
     16 CL1        43.2670   35.5180   14.3730 Cl    119  P17119     -0.0822
     17  C26       46.2780   32.1920   15.4590 C.ar  119  P17119      0.0114
     18  C25       45.9590   33.2310   16.3700 C.ar  119  P17119      0.0017
     19  C24       45.0430   34.2550   16.0050 C.ar  119  P17119      0.0114
     20  C23       44.4310   34.2450   14.7210 C.ar  119  P17119      0.0586
     21 CL2        46.1340   30.8560   13.0740 Cl    119  P17119     -0.0822
     22  C16       42.9630   32.5270   12.2330 C.ar  119  P17119      0.0105
     23  C13       42.3200   32.5140   10.8570 C.ar  119  P17119      0.0676
     24  C12       41.1140   31.8330   10.5860 C.2   119  P17119      0.1158
     25  N11       40.5910   31.8480    9.3180 N.2   119  P17119     -0.1682
     26  C6        42.3920   34.0680    5.9980 C.ar  119  P17119      0.0174
     27  C5        42.9360   34.6490    4.8180 C.ar  119  P17119      0.0019
     28  C4        42.4020   34.3090    3.5580 C.ar  119  P17119      0.0062
     29  C1        40.1550   34.6050    1.2770 C.3   119  P17119      0.0742
@<TRIPOS>BOND
     1    29     1    1
     2     1     2    1
     3     2    28   ar
     4     2     3   ar
     5    28    27   ar
     6     3     4   ar
     7    27    26   ar
     8     4    26   ar
     9     4     5    1
    10     5     6    1
    11     6     7    2
    12     6    25    2
    13     7     8    2
    14    10     9    1
    15    25    24    1
    16     8     9   ar
    17     8    23   ar
    18     9    11   ar
    19    24    23    2
    20    23    22   ar
    21    11    12    2
    22    11    13   ar
    23    22    13   ar
    24    13    14    1
    25    21    15    1
    26    14    15   ar
    27    14    20   ar
    28    15    17   ar
    29    16    20    1
    30    20    19   ar
    31    17    18   ar
    32    19    18   ar
