@<TRIPOS>MOLECULE
1m59_HEM_A_1.pdb
 43 50 0 0 0
SMALL
GASTEIGER

@<TRIPOS>ATOM
      1 FE         11.7790    2.5080   -2.4360 Fe    201  HEM201      0.0000
      2  CHA       10.5510    3.1180   -5.5890 C.2   201  HEM201      0.0000
      3  CHB       14.5570    4.3920   -3.1490 C.2   201  HEM201      0.0000
      4  CHC       13.0850    1.7580    0.6390 C.2   201  HEM201      0.0000
      5  CHD        8.9010    0.7380   -1.6460 C.2   201  HEM201      0.0000
      6  NA        12.4200    3.5220   -4.0130 N.ar  201  HEM201      0.0000
      7  C1A       11.8300    3.5990   -5.2740 C.ar  201  HEM201      0.0000
      8  C2A       12.7100    4.2950   -6.1960 C.ar  201  HEM201      0.0000
      9  C3A       13.7570    4.7600   -5.4910 C.ar  201  HEM201      0.0000
     10  C4A       13.5910    4.2630   -4.1380 C.ar  201  HEM201      0.0000
     11  CMA       14.8810    5.6430   -6.0190 C.3   201  HEM201      0.0000
     12  CAA       12.5160    4.4270   -7.7040 C.3   201  HEM201      0.0000
     13  CBA       12.6630    3.1030   -8.4350 C.3   201  HEM201      0.0000
     14  CGA       14.0440    2.5170   -8.2730 C.2   201  HEM201      0.0000
     15  O1A       15.0220    3.2620   -8.4830 O.co2 201  HEM201      0.0000
     16  O2A       14.1550    1.3180   -7.9440 O.co2 201  HEM201      0.0000
     17  NB        13.4570    2.9680   -1.4610 N.2   201  HEM201      0.0000
     18  C1B       14.5030    3.7710   -1.9020 C.2   201  HEM201      0.0000
     19  C2B       15.5390    3.9020   -0.8900 C.2   201  HEM201      0.0000
     20  C3B       15.1400    3.1990    0.1810 C.2   201  HEM201      0.0000
     21  C4B       13.8460    2.5880   -0.1800 C.2   201  HEM201      0.0000
     22  CMB       16.8180    4.7470   -0.9910 C.3   201  HEM201      0.0000
     23  CAB       15.8120    3.2420    1.4070 C.3   201  HEM201      0.0000
     24  CBB       16.0340    2.1360    2.2400 C.3   201  HEM201      0.0000
     25  NC        11.1260    1.4830   -0.8530 N.ar  201  HEM201      0.0000
     26  C1C       11.8390    1.2210    0.3170 C.ar  201  HEM201      0.0000
     27  C2C       11.1160    0.3000    1.1840 C.ar  201  HEM201      0.0000
     28  C3C        9.9320    0.0120    0.5710 C.ar  201  HEM201      0.0000
     29  C4C        9.9270    0.7730   -0.6860 C.ar  201  HEM201      0.0000
     30  CMC       11.5970   -0.1690    2.5530 C.3   201  HEM201      0.0000
     31  CAC        8.9040   -0.8330    0.9890 C.3   201  HEM201      0.0000
     32  CBC        8.5690   -1.1340    2.3080 C.3   201  HEM201      0.0000
     33  ND        10.0850    2.0650   -3.3780 N.2   201  HEM201      0.0000
     34  C1D        8.9840    1.3510   -2.9000 C.2   201  HEM201      0.0000
     35  C2D        7.9230    1.3300   -3.8940 C.2   201  HEM201      0.0000
     36  C3D        8.3790    1.9720   -5.0040 C.2   201  HEM201      0.0000
     37  C4D        9.7310    2.4160   -4.6950 C.2   201  HEM201      0.0000
     38  CMD        6.5320    0.7590   -3.6720 C.3   201  HEM201      0.0000
     39  CAD        7.6070    2.2540   -6.2990 C.3   201  HEM201      0.0000
     40  CBD        7.5120    1.0360   -7.2050 C.3   201  HEM201      0.0000
     41  CGD        6.7040    1.3020   -8.4650 C.2   201  HEM201      0.0000
     42  O1D        6.4600    0.3450   -9.2260 O.co2 201  HEM201      0.0000
     43  O2D        6.3150    2.4670   -8.6950 O.co2 201  HEM201      0.0000
@<TRIPOS>BOND
     1    42    41   ar
     2    43    41   ar
     3    15    14   ar
     4    41    40    1
     5    13    14    1
     6    13    12    1
     7    14    16   ar
     8    12     8    1
     9    40    39    1
    10    39    36    1
    11     8     9   ar
    12     8     7   ar
    13    11     9    1
    14     2     7    2
    15     2    37    1
    16     9    10   ar
    17     7     6   ar
    18    36    37    1
    19    36    35    2
    20    37    33    2
    21    10     6   ar
    22    10     3    2
    23     6     1    1
    24    35    38    1
    25    35    34    1
    26    33    34    1
    27    33     1    1
    28     3    18    1
    29    34     5    2
    30     1    17    1
    31     1    25    1
    32    18    17    2
    33    18    19    1
    34     5    29    1
    35    17    21    1
    36    22    19    1
    37    19    20    2
    38    25    29   ar
    39    25    26   ar
    40    29    28   ar
    41    21    20    1
    42    21     4    2
    43    20    23    1
    44    26     4    1
    45    26    27   ar
    46    28    31    1
    47    28    27   ar
    48    31    32    1
    49    27    30    1
    50    23    24    1
