@<TRIPOS>MOLECULE
1m5b_BN1_A_1.pdb
 18 19 0 0 0
SMALL
GASTEIGER

@<TRIPOS>ATOM
      1  O1        76.0980   26.8560   45.4000 O.co2 2100  BN12100    -0.2440
      2  C1        76.8500   26.2100   44.6050 C.2   2100  BN12100     0.3822
      3  O2        77.7060   25.3710   44.9280 O.co2 2100  BN12100    -0.2440
      4  C2        76.6920   26.5000   43.0780 C.3   2100  BN12100     0.1995
      5  N1        75.7490   27.7040   42.9610 N.3   2100  BN12100    -0.1204
      6  C3        78.0440   26.7530   42.3960 C.3   2100  BN12100     0.0729
      7  C4        78.0720   26.2780   41.0010 C.2   2100  BN12100     0.1126
      8  C5        77.8140   26.8410   39.7900 C.2   2100  BN12100     0.2473
      9  O3        77.9840   25.9660   38.7480 O.2   2100  BN12100    -0.3334
     10  N2        78.4070   24.6650   39.3750 N.2   2100  BN12100     0.0002
     11  C6        78.4510   24.8880   40.7210 C.1   2100  BN12100     0.1890
     12  O4        78.7670   24.0140   41.5670 O.2   2100  BN12100    -0.2193
     13  C7        77.4040   28.1690   39.4580 C.1   2100  BN12100     0.1119
     14  N3        77.1610   29.2360   40.2960 N.2   2100  BN12100    -0.1031
     15  N4        76.7990   30.2840   39.5470 N.pl3 2100  BN12100    -0.1130
     16  N5        76.8070   29.9290   38.3250 N.pl3 2100  BN12100    -0.0180
     17  N6        77.1670   28.6540   38.2090 N.2   2100  BN12100    -0.0833
     18  C8        76.4770   31.5590   40.1790 C.3   2100  BN12100     0.1630
@<TRIPOS>BOND
     1    17    16    1
     2    17    13    2
     3    16    15    1
     4     9    10    1
     5     9     8    1
     6    10    11    2
     7    13     8    1
     8    13    14    2
     9    15    18    1
    10    15    14    1
    11     8     7    2
    12    11     7    1
    13    11    12    2
    14     7     6    1
    15     6     4    1
    16     5     4    1
    17     4     2    1
    18     2     3   ar
    19     2     1   ar
