@<TRIPOS>MOLECULE
1m5c_BRH_A_1.pdb
 13 13 0 0 0
SMALL
GASTEIGER

@<TRIPOS>ATOM
      1  O1        43.5150   15.7520   18.9240 O.co2 611  BRH611     -0.2440
      2  C1        42.7280   14.7930   18.6030 C.2   611  BRH611      0.3823
      3  O2        42.1870   13.9780   19.4040 O.co2 611  BRH611     -0.2440
      4  C2        42.4210   14.6000   17.0720 C.3   611  BRH611      0.2019
      5  N1        41.4380   13.5120   16.8750 N.3   611  BRH611     -0.1203
      6  C3        41.9060   15.9490   16.5660 C.3   611  BRH611      0.0992
      7  C4        42.2670   16.2440   15.1720 C.2   611  BRH611      0.1729
      8  C5        41.5630   16.6960   14.0670 C.2   611  BRH611      0.1529
      9 BR1        39.7860   17.1200   13.9400 Br    611  BRH611     -0.0334
     10  C6        42.5980   16.7580   12.9860 C.1   611  BRH611      0.1982
     11  O3        42.4120   17.1220   11.7780 O.2   611  BRH611     -0.2185
     12  N2        43.7990   16.3510   13.5190 N.2   611  BRH611      0.0001
     13  O4        43.6040   16.0490   14.8060 O.2   611  BRH611     -0.3473
@<TRIPOS>BOND
     1    11    10    2
     2    10    12    2
     3    10     8    1
     4    12    13    1
     5     9     8    1
     6     8     7    2
     7    13     7    1
     8     7     6    1
     9     6     4    1
    10     5     4    1
    11     4     2    1
    12     2     1   ar
    13     2     3   ar
