@<TRIPOS>MOLECULE
1m5d_BRH_A_1.pdb
 13 13 0 0 0
SMALL
GASTEIGER

@<TRIPOS>ATOM
      1  O1        43.3010   15.8890   18.9860 O.co2 611  BRH611     -0.2440
      2  C1        42.5030   14.9650   18.6150 C.2   611  BRH611      0.3823
      3  O2        41.8800   14.1750   19.3880 O.co2 611  BRH611     -0.2440
      4  C2        42.2900   14.7860   17.0670 C.3   611  BRH611      0.2019
      5  N1        41.3180   13.6690   16.8220 N.3   611  BRH611     -0.1203
      6  C3        41.8340   16.1210   16.5010 C.3   611  BRH611      0.0992
      7  C4        42.0400   16.2280   15.0500 C.2   611  BRH611      0.1729
      8  C5        41.1810   16.4000   14.0010 C.2   611  BRH611      0.1529
      9 BR1        39.3880   16.5720   14.0780 Br    611  BRH611     -0.0334
     10  C6        42.0610   16.4150   12.7880 C.1   611  BRH611      0.1982
     11  O3        41.6860   16.5490   11.5880 O.2   611  BRH611     -0.2185
     12  N2        43.3530   16.2550   13.2030 N.2   611  BRH611      0.0001
     13  O4        43.3430   16.1430   14.5470 O.2   611  BRH611     -0.3473
@<TRIPOS>BOND
     1    11    10    2
     2    10    12    2
     3    10     8    1
     4    12    13    1
     5     8     9    1
     6     8     7    2
     7    13     7    1
     8     7     6    1
     9     6     4    1
    10     5     4    1
    11     4     2    1
    12     2     1   ar
    13     2     3   ar
