@<TRIPOS>MOLECULE
1m5e_AM1_A_1.pdb
 15 15 0 0 0
SMALL
GASTEIGER

@<TRIPOS>ATOM
      1  O1        77.7270   24.5350   38.3730 O.co2 1700  AM11700    -0.2387
      2  C1        77.7000   25.1890   39.4530 C.2   1700  AM11700     0.4081
      3  O2        77.9240   24.6760   40.6170 O.co2 1700  AM11700    -0.2387
      4  C2        77.3690   26.6660   39.3920 C.ar  1700  AM11700     0.1979
      5  N1        77.1010   27.3070   38.2390 N.ar  1700  AM11700    -0.0709
      6  O3        76.8430   28.6200   38.5750 O.2   1700  AM11700    -0.3579
      7  C3        76.9500   28.7850   39.9160 C.ar  1700  AM11700     0.1510
      8  C4        77.2850   27.5860   40.5130 C.ar  1700  AM11700     0.0401
      9  C5        77.4970   27.3260   41.9770 C.3   1700  AM11700     0.0616
     10  C6        76.2700   26.7670   42.7030 C.3   1700  AM11700     0.1988
     11  N2        75.1100   27.7140   42.5760 N.3   1700  AM11700    -0.1205
     12  C7        76.5800   26.4710   44.1990 C.2   1700  AM11700     0.3822
     13  O4        75.8020   27.0650   44.9980 O.co2 1700  AM11700    -0.2440
     14  O5        77.5300   25.6930   44.4260 O.co2 1700  AM11700    -0.2440
     15  C8        76.6920   30.1500   40.4220 C.3   1700  AM11700     0.0750
@<TRIPOS>BOND
     1     5     6   ar
     2     5     4   ar
     3     1     2   ar
     4     6     7   ar
     5     4     2    1
     6     4     8   ar
     7     2     3   ar
     8     7    15    1
     9     7     8   ar
    10     8     9    1
    11     9    10    1
    12    11    10    1
    13    10    12    1
    14    12    14   ar
    15    12    13   ar
