@<TRIPOS>MOLECULE
1m5f_AM1_A_1.pdb
 15 15 0 0 0
SMALL
GASTEIGER

@<TRIPOS>ATOM
      1  O1        77.8350   24.6840   38.7480 O.co2 1200  AM11200    -0.2387
      2  C1        77.7610   25.3280   39.8290 C.2   1200  AM11200     0.4081
      3  O2        77.9570   24.8100   40.9930 O.co2 1200  AM11200    -0.2387
      4  C2        77.4240   26.8030   39.7720 C.ar  1200  AM11200     0.1979
      5  N1        77.2130   27.4640   38.6180 N.ar  1200  AM11200    -0.0709
      6  O3        76.9300   28.7730   38.9600 O.2   1200  AM11200    -0.3579
      7  C3        76.9660   28.9130   40.3090 C.ar  1200  AM11200     0.1510
      8  C4        77.2790   27.6990   40.9020 C.ar  1200  AM11200     0.0401
      9  C5        77.4180   27.4160   42.3670 C.3   1200  AM11200     0.0616
     10  C6        76.1720   26.8330   43.0430 C.3   1200  AM11200     0.1988
     11  N2        74.9980   27.7480   42.8570 N.3   1200  AM11200    -0.1205
     12  C7        76.4410   26.5510   44.5560 C.2   1200  AM11200     0.3822
     13  O4        75.6140   27.1410   45.3220 O.co2 1200  AM11200    -0.2440
     14  O5        77.4040   25.7930   44.8210 O.co2 1200  AM11200    -0.2440
     15  C8        76.6750   30.2680   40.8230 C.3   1200  AM11200     0.0750
@<TRIPOS>BOND
     1     5     6   ar
     2     5     4   ar
     3     1     2   ar
     4     6     7   ar
     5     4     2    1
     6     4     8   ar
     7     2     3   ar
     8     7    15    1
     9     7     8   ar
    10     8     9    1
    11     9    10    1
    12    11    10    1
    13    10    12    1
    14    12    14   ar
    15    12    13   ar
