@<TRIPOS>MOLECULE
1m5r_UDP_A_1.pdb
 25 26 0 0 0
SMALL
GASTEIGER

@<TRIPOS>ATOM
      1  N1         1.6190   37.7240   16.2790 N.am  400  UDP400     -0.1766
      2  C2         2.9730   38.0230   16.2150 C.1   400  UDP400      0.2845
      3  N3         3.6740   37.3360   15.2560 N.2   400  UDP400     -0.2452
      4  C4         3.1720   36.4010   14.3670 C.1   400  UDP400      0.2182
      5  C5         1.7640   36.1640   14.4810 C.2   400  UDP400      0.1242
      6  C6         1.0520   36.8160   15.4130 C.2   400  UDP400      0.0929
      7  O2         3.5130   38.8360   16.9560 O.2   400  UDP400     -0.1918
      8  O4         3.9490   35.8050   13.6180 O.2   400  UDP400     -0.2085
      9  C1'        0.8200   38.4090   17.3090 C.3   400  UDP400      0.2401
     10  C2'        0.0420   39.6260   16.7980 C.3   400  UDP400      0.2319
     11  O2'        0.1310   40.6560   17.7610 O.3   400  UDP400     -0.2157
     12  C3'       -1.3710   39.0640   16.6590 C.3   400  UDP400      0.2158
     13  C4'       -1.4430   38.1030   17.8230 C.3   400  UDP400      0.1799
     14  O4'       -0.1250   37.4950   17.8450 O.3   400  UDP400     -0.3320
     15  O3'       -2.3700   40.0690   16.8160 O.3   400  UDP400     -0.2175
     16  C5'       -2.5190   37.0490   17.7240 C.3   400  UDP400      0.1813
     17  O5'       -2.4990   36.2110   18.8740 O.3   400  UDP400     -0.3111
     18  PA        -3.3870   34.8920   18.9250 P.3   400  UDP400      0.2231
     19  O1A       -2.7810   33.9200   17.9710 O.2   400  UDP400     -0.5169
     20  O2A       -3.5740   34.5010   20.3460 O.3   400  UDP400     -0.4370
     21  O3A       -4.8120   35.3560   18.2820 O.3   400  UDP400     -0.2261
     22  PB        -5.9350   36.4100   18.8270 P.3   400  UDP400      0.5373
     23  O1B       -5.1750   37.5940   19.3900 O.3   400  UDP400     -0.1143
     24  O2B       -6.7240   35.6400   19.8690 O.3   400  UDP400     -0.1143
     25  O3B       -6.7600   36.7500   17.5940 O.2   400  UDP400     -0.2221
@<TRIPOS>BOND
     1     8     4    2
     2     4     5    1
     3     4     3    2
     4     5     6    2
     5     3     2    2
     6     6     1    1
     7     2     1   am
     8     2     7    2
     9     1     9    1
    10    12    10    1
    11    12    15    1
    12    12    13    1
    13    10     9    1
    14    10    11    1
    15     9    14    1
    16    25    22    2
    17    16    13    1
    18    16    17    1
    19    13    14    1
    20    19    18    2
    21    21    22    1
    22    21    18    1
    23    22    23    1
    24    22    24    1
    25    17    18    1
    26    18    20    1
