@<TRIPOS>MOLECULE
1m5w_DXP_A_1.pdb
 13 12 0 0 0
SMALL
GASTEIGER

@<TRIPOS>ATOM
      1  C1        28.4280    0.8800   36.3340 C.3   1001  DXP1001     0.0751
      2  C2        29.3490    0.8640   35.0910 C.2   1001  DXP1001     0.1838
      3  C3        30.1260    2.0340   34.9090 C.3   1001  DXP1001     0.2412
      4  C4        30.7120    2.9560   35.7270 C.3   1001  DXP1001     0.2193
      5  C5        32.1430    2.5180   35.8320 C.3   1001  DXP1001     0.1896
      6  O2        29.3820   -0.0770   34.3100 O.2   1001  DXP1001    -0.2933
      7  O3        29.4470    2.7240   34.0760 O.3   1001  DXP1001    -0.2123
      8  O4        30.8490    4.3520   35.3480 O.3   1001  DXP1001    -0.2172
      9  O5        33.1620    3.4640   36.1130 O.3   1001  DXP1001    -0.2674
     10  P         34.6060    3.1980   36.2560 P.3   1001  DXP1001     0.5327
     11  O2P       35.2570    4.5790   36.5730 O.3   1001  DXP1001    -0.1145
     12  O1P       35.0110    2.5260   34.8630 O.2   1001  DXP1001    -0.2224
     13  O3P       34.6210    2.1850   37.5150 O.3   1001  DXP1001    -0.1145
@<TRIPOS>BOND
     1     7     3    1
     2     6     2    2
     3    12    10    2
     4     3     2    1
     5     3     4    1
     6     2     1    1
     7     8     4    1
     8     4     5    1
     9     5     9    1
    10     9    10    1
    11    10    11    1
    12    10    13    1
