@<TRIPOS>MOLECULE
1m64_HEM_A_1.pdb
 43 50 0 0 0
SMALL
GASTEIGER

@<TRIPOS>ATOM
      1 FE         33.9130   24.5020   10.0870 Fe    801  HEM801      0.0000
      2  CHA       33.6860   21.7960    8.0370 C.2   801  HEM801      0.0000
      3  CHB       36.9260   25.3430    8.7510 C.2   801  HEM801      0.0000
      4  CHC       33.8070   27.4400   11.8190 C.2   801  HEM801      0.0000
      5  CHD       31.3960   23.2530   12.0420 C.2   801  HEM801      0.0000
      6  NA        35.0960   23.7180    8.6720 N.ar  801  HEM801      0.0000
      7  C1A       34.8070   22.6050    7.8820 C.ar  801  HEM801      0.0000
      8  C2A       35.8520   22.4520    6.8880 C.ar  801  HEM801      0.0000
      9  C3A       36.7490   23.4220    7.0860 C.ar  801  HEM801      0.0000
     10  C4A       36.2950   24.2340    8.1950 C.ar  801  HEM801      0.0000
     11  CMA       38.0490   23.6890    6.2860 C.3   801  HEM801      0.0000
     12  CAA       35.9120   21.3300    5.8150 C.3   801  HEM801      0.0000
     13  CBA       36.9380   20.2330    6.1350 C.3   801  HEM801      0.0000
     14  CGA       37.0900   19.0940    5.1620 C.2   801  HEM801      0.0000
     15  O1A       37.8680   18.1570    5.4610 O.co2 801  HEM801      0.0000
     16  O2A       36.4680   19.1430    4.0740 O.co2 801  HEM801      0.0000
     17  NB        35.1670   26.0770   10.2910 N.2   801  HEM801      0.0000
     18  C1B       36.3230   26.2860    9.5760 C.2   801  HEM801      0.0000
     19  C2B       36.7800   27.6390    9.8390 C.2   801  HEM801      0.0000
     20  C3B       35.9140   28.2150   10.6660 C.2   801  HEM801      0.0000
     21  C4B       34.8730   27.2350   10.9730 C.2   801  HEM801      0.0000
     22  CMB       38.0570   28.2150    9.1910 C.3   801  HEM801      0.0000
     23  CAB       35.7850   29.6450   11.2510 C.2   801  HEM801      0.0000
     24  CBB       36.0890   30.7200   10.4880 C.2   801  HEM801      0.0000
     25  NC        32.8560   25.1850   11.6580 N.ar  801  HEM801      0.0000
     26  C1C       32.8780   26.4730   12.1630 C.ar  801  HEM801      0.0000
     27  C2C       31.7780   26.6630   13.0930 C.ar  801  HEM801      0.0000
     28  C3C       31.1070   25.5090   13.1460 C.ar  801  HEM801      0.0000
     29  C4C       31.7700   24.5720   12.2640 C.ar  801  HEM801      0.0000
     30  CMC       31.4940   27.9880   13.8360 C.3   801  HEM801      0.0000
     31  CAC       29.8090   25.1420   13.8920 C.2   801  HEM801      0.0000
     32  CBC       28.8460   26.0260   14.2340 C.2   801  HEM801      0.0000
     33  ND        32.7900   22.8230   10.0540 N.2   801  HEM801      0.0000
     34  C1D       31.7660   22.5200   10.9510 C.2   801  HEM801      0.0000
     35  C2D       31.1170   21.2970   10.5170 C.2   801  HEM801      0.0000
     36  C3D       31.7510   20.8830    9.4170 C.2   801  HEM801      0.0000
     37  C4D       32.7970   21.8280    9.0910 C.2   801  HEM801      0.0000
     38  CMD       29.9210   20.6680   11.2910 C.3   801  HEM801      0.0000
     39  CAD       31.4180   19.6480    8.5360 C.3   801  HEM801      0.0000
     40  CBD       30.7320   20.1140    7.2250 C.3   801  HEM801      0.0000
     41  CGD       29.5840   21.0790    7.3680 C.2   801  HEM801      0.0000
     42  O1D       29.6000   22.1500    6.6940 O.co2 801  HEM801      0.0000
     43  O2D       28.6450   20.7860    8.1630 O.co2 801  HEM801      0.0000
@<TRIPOS>BOND
     1    16    14   ar
     2    14    15   ar
     3    14    13    1
     4    12    13    1
     5    12     8    1
     6    11     9    1
     7    42    41   ar
     8     8     9   ar
     9     8     7   ar
    10     9    10   ar
    11    40    41    1
    12    40    39    1
    13    41    43   ar
    14     7     2    2
    15     7     6   ar
    16     2    37    1
    17    10     6   ar
    18    10     3    2
    19    39    36    1
    20     6     1    1
    21     3    18    1
    22    37    36    1
    23    37    33    2
    24    22    19    1
    25    36    35    2
    26    18    19    1
    27    18    17    2
    28    19    20    2
    29    33     1    1
    30    33    34    1
    31     1    17    1
    32     1    25    1
    33    17    21    1
    34    24    23    2
    35    35    34    1
    36    35    38    1
    37    20    21    1
    38    20    23    1
    39    34     5    2
    40    21     4    2
    41    25    26   ar
    42    25    29   ar
    43     4    26    1
    44     5    29    1
    45    26    27   ar
    46    29    28   ar
    47    27    28   ar
    48    27    30    1
    49    28    31    1
    50    31    32    2
