@<TRIPOS>MOLECULE
1m66_BCP_A_1.pdb
 11 12 0 0 0
SMALL
GASTEIGER

@<TRIPOS>ATOM
      1 CL         33.1770   56.1590   31.6480 Cl    401  BCP401     -0.0449
      2  C6        34.2310   54.9420   30.8540 C.2   401  BCP401      0.2295
      3  N1        35.5230   54.9530   31.1370 N.2   401  BCP401     -0.3201
      4  C2        36.3800   54.0890   30.5850 C.1   401  BCP401      0.1856
      5 BR         38.1330   54.2950   31.1280 Br    401  BCP401      0.0631
      6  C5        33.8300   53.8960   29.8830 C.2   401  BCP401      0.1940
      7  C4        34.8460   53.0010   29.3430 C.1   401  BCP401      0.1190
      8  N3        36.1090   53.1170   29.7030 N.2   401  BCP401     -0.2788
      9  N7        32.6650   53.5410   29.3410 N.2   401  BCP401     -0.2293
     10  C8        32.9380   52.4870   28.5070 C.3   401  BCP401      0.2627
     11  N9        34.2640   52.1560   28.5030 N.2   401  BCP401     -0.1807
@<TRIPOS>BOND
     1    11    10    1
     2    11     7    2
     3    10     9    1
     4     9     6    2
     5     7     8    2
     6     7     6    1
     7     8     4    2
     8     6     2    1
     9     4     5    1
    10     4     3    2
    11     2     3    2
    12     2     1    1
