@<TRIPOS>MOLECULE
1m67_BOA_A_1.pdb
 11 12 0 0 0
SMALL
GASTEIGER

@<TRIPOS>ATOM
      1  O6        33.2130   56.8540   31.4240 O.2   402  BOA402     -0.2063
      2  C6        33.8920   55.9380   30.9070 C.1   402  BOA402      0.2435
      3  N1        35.2010   55.8360   31.1340 N.2   402  BOA402     -0.2573
      4  C2        35.9390   54.8620   30.5870 C.1   402  BOA402      0.1956
      5 BR         37.7700   54.8530   30.9930 Br    402  BOA402      0.0638
      6  C5        33.2790   54.9240   30.0230 C.2   402  BOA402      0.2481
      7  C4        34.1570   53.8870   29.4630 C.1   402  BOA402      0.1281
      8  N3        35.4530   53.9120   29.7750 N.2   402  BOA402     -0.2775
      9  N7        32.0520   54.6780   29.5620 N.2   402  BOA402     -0.2212
     10  C8        32.1100   53.5760   28.7690 C.3   402  BOA402      0.2633
     11  N9        33.3800   53.0990   28.7080 N.2   402  BOA402     -0.1802
@<TRIPOS>BOND
     1    11    10    1
     2    11     7    2
     3    10     9    1
     4     7     8    2
     5     7     6    1
     6     9     6    2
     7     8     4    2
     8     6     2    1
     9     4     5    1
    10     4     3    2
    11     2     3    2
    12     2     1    2
