@<TRIPOS>MOLECULE
1m6c_HEM_A_1.pdb
 43 50 0 0 0
SMALL
GASTEIGER

@<TRIPOS>ATOM
      1 FE         42.3400   25.9480   49.3720 Fe    154  HEM154      0.0000
      2  CHA       40.8740   23.1980   50.8930 C.2   154  HEM154      0.0000
      3  CHB       43.9780   23.8210   47.1990 C.2   154  HEM154      0.0000
      4  CHC       43.7050   28.6320   47.8400 C.2   154  HEM154      0.0000
      5  CHD       40.7770   28.0110   51.6690 C.2   154  HEM154      0.0000
      6  NA        42.4210   23.9430   49.1140 N.ar  154  HEM154      0.0000
      7  C1A       41.7140   22.9370   49.8090 C.ar  154  HEM154      0.0000
      8  C2A       42.0070   21.6460   49.2540 C.ar  154  HEM154      0.0000
      9  C3A       42.8860   21.8070   48.2450 C.ar  154  HEM154      0.0000
     10  C4A       43.1330   23.2330   48.1440 C.ar  154  HEM154      0.0000
     11  CMA       43.5120   20.7280   47.3220 C.3   154  HEM154      0.0000
     12  CAA       41.3810   20.2920   49.7200 C.3   154  HEM154      0.0000
     13  CBA       40.3250   19.8170   48.6600 C.3   154  HEM154      0.0000
     14  CGA       39.2510   20.8690   48.3890 C.2   154  HEM154      0.0000
     15  O1A       38.4660   21.1950   49.2960 O.co2 154  HEM154      0.0000
     16  O2A       39.2310   21.4490   47.2920 O.co2 154  HEM154      0.0000
     17  NB        43.5560   26.1800   47.8040 N.2   154  HEM154      0.0000
     18  C1B       44.1270   25.1700   47.0470 C.2   154  HEM154      0.0000
     19  C2B       44.9740   25.8100   46.0590 C.2   154  HEM154      0.0000
     20  C3B       44.8840   27.1200   46.2080 C.2   154  HEM154      0.0000
     21  C4B       43.9960   27.3700   47.3290 C.2   154  HEM154      0.0000
     22  CMB       45.7340   24.9930   44.9720 C.3   154  HEM154      0.0000
     23  CAB       45.5780   28.2470   45.3930 C.2   154  HEM154      0.0000
     24  CBB       46.8750   28.0970   44.9540 C.2   154  HEM154      0.0000
     25  NC        42.2280   27.9000   49.6750 N.ar  154  HEM154      0.0000
     26  C1C       42.9150   28.8740   48.9430 C.ar  154  HEM154      0.0000
     27  C2C       42.7480   30.1550   49.5730 C.ar  154  HEM154      0.0000
     28  C3C       41.9510   29.9780   50.6360 C.ar  154  HEM154      0.0000
     29  C4C       41.6030   28.6030   50.7170 C.ar  154  HEM154      0.0000
     30  CMC       43.3780   31.4670   49.0190 C.3   154  HEM154      0.0000
     31  CAC       41.4750   31.0560   51.6210 C.2   154  HEM154      0.0000
     32  CBC       42.2500   32.0590   51.9990 C.2   154  HEM154      0.0000
     33  ND        41.0600   25.6430   50.9470 N.2   154  HEM154      0.0000
     34  C1D       40.5880   26.6510   51.7710 C.2   154  HEM154      0.0000
     35  C2D       39.7860   26.0190   52.8270 C.2   154  HEM154      0.0000
     36  C3D       39.7860   24.7160   52.5870 C.2   154  HEM154      0.0000
     37  C4D       40.6190   24.4490   51.4250 C.2   154  HEM154      0.0000
     38  CMD       39.0780   26.8440   53.9270 C.3   154  HEM154      0.0000
     39  CAD       39.1370   23.6230   53.4640 C.3   154  HEM154      0.0000
     40  CBD       40.1160   23.2270   54.5990 C.3   154  HEM154      0.0000
     41  CGD       39.3650   22.5310   55.7440 C.2   154  HEM154      0.0000
     42  O1D       39.7680   22.7340   56.9070 O.co2 154  HEM154      0.0000
     43  O2D       38.3890   21.8190   55.4280 O.co2 154  HEM154      0.0000
@<TRIPOS>BOND
     1    24    23    2
     2    22    19    1
     3    23    20    1
     4    19    20    2
     5    19    18    1
     6    20    21    1
     7    18     3    1
     8    18    17    2
     9     3    10    2
    10    16    14   ar
    11    11     9    1
    12    21    17    1
    13    21     4    2
    14    17     1    1
    15     4    26    1
    16    10     9   ar
    17    10     6   ar
    18     9     8   ar
    19    14    13    1
    20    14    15   ar
    21    13    12    1
    22    26    27   ar
    23    26    25   ar
    24    30    27    1
    25     6     1    1
    26     6     7   ar
    27     8    12    1
    28     8     7   ar
    29     1    25    1
    30     1    33    1
    31    27    28   ar
    32    25    29   ar
    33     7     2    2
    34    28    29   ar
    35    28    31    1
    36    29     5    1
    37     2    37    1
    38    33    37    2
    39    33    34    1
    40    37    36    1
    41    31    32    2
    42     5    34    2
    43    34    35    1
    44    36    35    2
    45    36    39    1
    46    35    38    1
    47    39    40    1
    48    40    41    1
    49    43    41   ar
    50    41    42   ar
