@<TRIPOS>MOLECULE
1m6d_MYP_A_1.pdb
 40 41 0 0 0
SMALL
GASTEIGER

@<TRIPOS>ATOM
      1  N3        -0.4230    7.8380   -2.1520 N.am  1280  MYP1280    -0.2628
      2  C23       -0.5580    6.1290   -4.5450 C.3   1280  MYP1280     0.0611
      3  C21        0.4480    8.1200   -3.3440 C.3   1280  MYP1280     0.0964
      4  C22        0.7290    6.8680   -4.1530 C.3   1280  MYP1280     0.0376
      5  C25       -1.7000    7.1410   -2.5200 C.3   1280  MYP1280     0.0964
      6  C24       -1.4350    5.8790   -3.3130 C.3   1280  MYP1280     0.0376
      7  C20        0.1100    7.6750   -0.9370 C.2   1280  MYP1280     0.3236
      8  O4        -0.5860    7.2600   -0.0050 O.2   1280  MYP1280    -0.2508
      9  N4        -0.2470    4.8110   -5.2590 N.3   1280  MYP1280    -0.2696
     10  C29        0.7030    3.9340   -4.4440 C.3   1280  MYP1280     0.1046
     11  C28        1.0730    2.6620   -5.1950 C.3   1280  MYP1280     0.1595
     12  C26        0.4050    5.0610   -6.6150 C.3   1280  MYP1280     0.1046
     13  C27        0.7800    3.7670   -7.3110 C.3   1280  MYP1280     0.1595
     14  O5         1.6350    2.9000   -6.5310 O.3   1280  MYP1280    -0.3508
     15  N2         1.3760    8.0250   -0.7440 N.am  1280  MYP1280    -0.1804
     16  C12        2.0150    7.8640    0.5530 C.3   1280  MYP1280     0.1803
     17  C13        3.5360    7.7720    0.3990 C.3   1280  MYP1280     0.0575
     18  C14        3.9800    6.7880   -0.6390 C.ar  1280  MYP1280    -0.0200
     19  C15        3.2960    5.5850   -0.8150 C.ar  1280  MYP1280    -0.0042
     20  C19        5.0840    7.0570   -1.4390 C.ar  1280  MYP1280    -0.0042
     21  C16        3.7070    4.6670   -1.7740 C.ar  1280  MYP1280    -0.0003
     22  C18        5.5030    6.1440   -2.4000 C.ar  1280  MYP1280    -0.0003
     23  C17        4.8130    4.9490   -2.5670 C.ar  1280  MYP1280    -0.0000
     24  C11        1.6680    9.0300    1.4540 C.2   1280  MYP1280     0.2810
     25  O3         1.5720   10.1720    1.0010 O.2   1280  MYP1280    -0.2698
     26  N1         1.3050    8.7100    2.6870 N.am  1280  MYP1280    -0.0863
     27  C8        -0.4800    9.3520    4.2230 C.3   1280  MYP1280     0.0000
     28  C10       -2.9990    9.2290    3.7970 C.3   1280  MYP1280     0.0000
     29  C9        -1.6180    9.4380    3.2100 C.3   1280  MYP1280     0.0000
     30  CM         1.9170    8.6910    5.6340 C.3   1280  MYP1280     0.1560
     31  CT         1.9210    9.9120    4.7130 C.3   1280  MYP1280     0.0276
     32  C4         0.8300    7.6720    8.1230 C.ar  1280  MYP1280     0.1057
     33  C1        -0.1520    5.0940    8.6910 C.ar  1280  MYP1280     0.0001
     34  C2        -1.0050    6.0710    8.2090 C.ar  1280  MYP1280     0.0013
     35  C3        -0.5200    7.3350    7.9190 C.ar  1280  MYP1280     0.0183
     36  C5         1.6850    6.6670    8.6150 C.ar  1280  MYP1280     0.0183
     37  C6         1.1940    5.3860    8.8980 C.ar  1280  MYP1280     0.0013
     38  S1         1.5150    9.1020    7.3630 S.O2  1280  MYP1280     0.0087
     39  O1         2.7450    9.4490    8.2920 O.2   1280  MYP1280    -0.1686
     40  O2         0.5420   10.2850    7.7270 O.2   1280  MYP1280    -0.1686
@<TRIPOS>BOND
     1    13    12    1
     2    13    14    1
     3    12     9    1
     4    14    11    1
     5     9     2    1
     6     9    10    1
     7    11    10    1
     8     2     4    1
     9     2     6    1
    10     4     3    1
    11     3     1    1
    12     6     5    1
    13    23    22   ar
    14    23    21   ar
    15     5     1    1
    16    22    20   ar
    17     1     7   am
    18    21    19   ar
    19    20    18   ar
    20     7    15   am
    21     7     8    2
    22    19    18   ar
    23    15    16    1
    24    18    17    1
    25    17    16    1
    26    16    24    1
    27    25    24    2
    28    24    26   am
    29    29    28    1
    30    29    27    1
    31    31    30    1
    32    30    38    1
    33    38    40    2
    34    38    32    1
    35    38    39    2
    36    35    32   ar
    37    35    34   ar
    38    32    36   ar
    39    34    33   ar
    40    36    37   ar
    41    33    37   ar
