@<TRIPOS>MOLECULE
1m6e_SAH_X_1.pdb
 26 28 0 0 0
SMALL
GASTEIGER

@<TRIPOS>ATOM
      1  N         49.3180   26.6930   31.8480 N.3   2814  SAH2814    -0.1159
      2  CA        50.4400   27.4570   31.1300 C.3   2814  SAH2814     0.2168
      3  CB        51.3160   28.3120   32.0660 C.2   2814  SAH2814     0.0105
      4  CG        50.9460   28.3210   33.4890 C.2   2814  SAH2814     0.0284
      5  SD        51.9730   29.2830   34.6540 S.3   2814  SAH2814    -0.1108
      6  C         51.4490   26.5570   30.4180 C.2   2814  SAH2814     0.3860
      7  O         51.3250   25.2970   30.4710 O.co2 2814  SAH2814    -0.2437
      8  OXT       52.3860   27.2130   29.7970 O.co2 2814  SAH2814    -0.2437
      9  C5'       50.9700   28.9640   36.0660 C.3   2814  SAH2814     0.0945
     10  C4'       49.7430   29.9400   36.3490 C.3   2814  SAH2814     0.1634
     11  O4'       49.1730   29.3190   37.5450 O.3   2814  SAH2814    -0.3152
     12  C3'       50.1810   31.3590   36.8750 C.3   2814  SAH2814     0.2168
     13  O3'       49.7360   32.4670   35.9000 O.3   2814  SAH2814    -0.2175
     14  C2'       49.4670   31.5410   38.1390 C.3   2814  SAH2814     0.2569
     15  O2'       48.9100   32.7630   38.4890 O.3   2814  SAH2814    -0.2130
     16  C1'       48.5190   30.2460   38.1560 C.3   2814  SAH2814     0.3185
     17  N9        48.1530   29.8920   39.5090 N.pl3 2814  SAH2814    -0.1439
     18  C8        48.9250   29.6870   40.6320 C.3   2814  SAH2814     0.3377
     19  N7        48.2400   29.4070   41.7020 N.2   2814  SAH2814    -0.2095
     20  C5        46.9430   29.4280   41.2460 C.2   2814  SAH2814     0.2526
     21  C6        45.7020   29.2170   41.8890 C.2   2814  SAH2814     0.4393
     22  N6        45.6530   28.9400   43.1920 N.pl3 2814  SAH2814     0.2180
     23  N1        44.5160   29.2960   41.1700 N.2   2814  SAH2814     0.0021
     24  C2        44.5880   29.5870   39.8310 C.3   2814  SAH2814     0.5254
     25  N3        45.7290   29.8140   39.1220 N.2   2814  SAH2814    -0.0055
     26  C4        46.8750   29.7190   39.8950 C.2   2814  SAH2814     0.3518
@<TRIPOS>BOND
     1     8     6   ar
     2     6     7   ar
     3     6     2    1
     4     2     1    1
     5     2     3    1
     6     3     4    2
     7     4     5    1
     8     5     9    1
     9    13    12    1
    10     9    10    1
    11    10    12    1
    12    10    11    1
    13    12    14    1
    14    11    16    1
    15    14    16    1
    16    14    15    1
    17    16    17    1
    18    25    24    1
    19    25    26    2
    20    17    26    1
    21    17    18    1
    22    24    23    1
    23    26    20    1
    24    18    19    1
    25    23    21    2
    26    20    19    2
    27    20    21    1
    28    21    22    1
