@<TRIPOS>MOLECULE
1m6e_SAL_X_1.pdb
 10 10 0 0 0
SMALL
GASTEIGER

@<TRIPOS>ATOM
      1  C1'       56.3480   27.7170   36.5940 C.2   2000  SAL2000     0.3909
      2  O1'       55.9890   27.7950   35.4080 O.co2 2000  SAL2000    -0.2404
      3  O2'       55.4730   28.1360   37.5270 O.co2 2000  SAL2000    -0.2404
      4  C1        57.7280   27.1700   36.9090 C.ar  2000  SAL2000     0.1186
      5  C2        58.2730   27.0380   38.2670 C.ar  2000  SAL2000     0.2020
      6  C3        59.5750   26.5110   38.4260 C.ar  2000  SAL2000     0.0422
      7  C4        60.3960   26.1020   37.3450 C.ar  2000  SAL2000     0.0033
      8  C5        59.9270   26.2060   36.0240 C.ar  2000  SAL2000     0.0004
      9  C6        58.5300   26.7660   35.7950 C.ar  2000  SAL2000     0.0098
     10  O2        57.6190   27.3840   39.4180 O.3   2000  SAL2000    -0.2863
@<TRIPOS>BOND
     1     2     1   ar
     2     9     8   ar
     3     9     4   ar
     4     8     7   ar
     5     1     4    1
     6     1     3   ar
     7     4     5   ar
     8     7     6   ar
     9     5     6   ar
    10     5    10    1
