@<TRIPOS>MOLECULE
1m6m_HEM_A_1.pdb
 43 50 0 0 0
SMALL
GASTEIGER

@<TRIPOS>ATOM
      1 FE         42.2090   25.6310   49.3960 Fe    154  HEM154      0.0000
      2  CHA       40.7740   22.9430   51.0140 C.2   154  HEM154      0.0000
      3  CHB       43.8460   23.5470   47.3210 C.2   154  HEM154      0.0000
      4  CHC       43.5950   28.3740   47.7780 C.2   154  HEM154      0.0000
      5  CHD       40.9640   27.7150   51.8290 C.2   154  HEM154      0.0000
      6  NA        42.3060   23.6600   49.2130 N.ar  154  HEM154      0.0000
      7  C1A       41.6380   22.6710   49.9470 C.ar  154  HEM154      0.0000
      8  C2A       41.9910   21.3600   49.4590 C.ar  154  HEM154      0.0000
      9  C3A       42.8280   21.5160   48.4290 C.ar  154  HEM154      0.0000
     10  C4A       43.0480   22.9360   48.2770 C.ar  154  HEM154      0.0000
     11  CMA       43.4670   20.4310   47.5510 C.3   154  HEM154      0.0000
     12  CAA       41.4050   20.0310   50.0000 C.3   154  HEM154      0.0000
     13  CBA       40.3310   19.5160   49.0200 C.3   154  HEM154      0.0000
     14  CGA       39.2160   20.5250   48.7690 C.2   154  HEM154      0.0000
     15  O1A       38.5270   20.7680   49.7650 O.co2 154  HEM154      0.0000
     16  O2A       39.1200   21.0830   47.6490 O.co2 154  HEM154      0.0000
     17  NB        43.4580   25.9070   47.8390 N.2   154  HEM154      0.0000
     18  C1B       44.0210   24.8860   47.1280 C.2   154  HEM154      0.0000
     19  C2B       44.8790   25.4870   46.1000 C.2   154  HEM154      0.0000
     20  C3B       44.7990   26.8150   46.2380 C.2   154  HEM154      0.0000
     21  C4B       43.8940   27.1010   47.3350 C.2   154  HEM154      0.0000
     22  CMB       45.7090   24.6400   45.1140 C.3   154  HEM154      0.0000
     23  CAB       45.5320   27.9210   45.4390 C.2   154  HEM154      0.0000
     24  CBB       46.7790   27.7540   45.0060 C.2   154  HEM154      0.0000
     25  NC        42.2540   27.5970   49.7150 N.ar  154  HEM154      0.0000
     26  C1C       42.9050   28.5910   48.9600 C.ar  154  HEM154      0.0000
     27  C2C       42.7640   29.8650   49.5980 C.ar  154  HEM154      0.0000
     28  C3C       42.0500   29.6770   50.7200 C.ar  154  HEM154      0.0000
     29  C4C       41.7400   28.2770   50.8090 C.ar  154  HEM154      0.0000
     30  CMC       43.3460   31.1940   49.0500 C.3   154  HEM154      0.0000
     31  CAC       41.6050   30.7080   51.7690 C.2   154  HEM154      0.0000
     32  CBC       42.0120   31.9730   51.7440 C.2   154  HEM154      0.0000
     33  ND        41.0440   25.3920   51.0580 N.2   154  HEM154      0.0000
     34  C1D       40.7050   26.3720   51.9600 C.2   154  HEM154      0.0000
     35  C2D       40.0060   25.7580   53.0930 C.2   154  HEM154      0.0000
     36  C3D       39.9540   24.4580   52.8470 C.2   154  HEM154      0.0000
     37  C4D       40.6190   24.1880   51.5630 C.2   154  HEM154      0.0000
     38  CMD       39.4790   26.5700   54.2860 C.3   154  HEM154      0.0000
     39  CAD       39.3850   23.3230   53.7600 C.3   154  HEM154      0.0000
     40  CBD       40.3580   23.0570   54.9000 C.3   154  HEM154      0.0000
     41  CGD       40.0520   22.2540   56.1200 C.2   154  HEM154      0.0000
     42  O1D       39.7380   22.8700   57.1740 O.co2 154  HEM154      0.0000
     43  O2D       40.1540   21.0130   56.1340 O.co2 154  HEM154      0.0000
@<TRIPOS>BOND
     1    24    23    2
     2    22    19    1
     3    23    20    1
     4    19    20    2
     5    19    18    1
     6    20    21    1
     7    18     3    1
     8    18    17    2
     9     3    10    2
    10    21     4    2
    11    21    17    1
    12    11     9    1
    13    16    14   ar
    14     4    26    1
    15    17     1    1
    16    10     9   ar
    17    10     6   ar
    18     9     8   ar
    19    14    13    1
    20    14    15   ar
    21    26    27   ar
    22    26    25   ar
    23    13    12    1
    24    30    27    1
    25     6     1    1
    26     6     7   ar
    27     1    25    1
    28     1    33    1
    29     8     7   ar
    30     8    12    1
    31    27    28   ar
    32    25    29   ar
    33     7     2    2
    34    28    29   ar
    35    28    31    1
    36    29     5    1
    37     2    37    1
    38    33    37    2
    39    33    34    1
    40    37    36    1
    41    32    31    2
    42     5    34    2
    43    34    35    1
    44    36    35    2
    45    36    39    1
    46    35    38    1
    47    39    40    1
    48    40    41    1
    49    41    43   ar
    50    41    42   ar
