@<TRIPOS>MOLECULE
1m6p_M6P_A_1.pdb
 16 16 0 0 0
SMALL
GASTEIGER

@<TRIPOS>ATOM
      1  C1        43.8370   40.2820   18.2260 C.3   200  M6P200      0.3024
      2  C2        43.2570   38.8530   18.0900 C.3   200  M6P200      0.2434
      3  C3        41.8730   38.8680   17.3910 C.3   200  M6P200      0.2199
      4  C4        40.9070   39.7590   18.1350 C.3   200  M6P200      0.2143
      5  C5        41.5450   41.1750   18.1250 C.3   200  M6P200      0.1808
      6  C6        40.9650   42.0600   19.5210 C.3   200  M6P200      0.1859
      7  O1        44.3220   40.7840   16.9750 O.3   200  M6P200     -0.1869
      8  O2        43.1120   38.2700   19.3780 O.3   200  M6P200     -0.2148
      9  O3        41.3590   37.5470   17.3230 O.3   200  M6P200     -0.2174
     10  O4        39.6420   39.7260   17.5060 O.3   200  M6P200     -0.2176
     11  O5        42.8430   41.1460   18.7970 O.3   200  M6P200     -0.3237
     12  O6        39.9010   42.6990   20.1610 O.3   200  M6P200     -0.2675
     13  P         40.1700   43.9170   20.9980 P.3   200  M6P200      0.5327
     14  O1P       40.8790   44.8470   20.1760 O.2   200  M6P200     -0.2224
     15  O2P       38.8830   44.2850   21.5100 O.3   200  M6P200     -0.1145
     16  O3P       41.1130   43.4740   22.2080 O.3   200  M6P200     -0.1145
@<TRIPOS>BOND
     1     7     1    1
     2     9     3    1
     3     3     2    1
     4     3     4    1
     5    10     4    1
     6     2     1    1
     7     2     8    1
     8     5     4    1
     9     5    11    1
    10     5     6    1
    11     1    11    1
    12     6    12    1
    13    12    13    1
    14    14    13    2
    15    13    15    1
    16    13    16    1
