@<TRIPOS>MOLECULE
1m6v_ADP_A_1.pdb
 27 29 0 0 0
SMALL
GASTEIGER

@<TRIPOS>ATOM
      1  PB        17.9600   29.2750   70.5500 P.3   4001  ADP4001     0.5373
      2  O1B       19.0140   30.3120   70.7530 O.3   4001  ADP4001    -0.1143
      3  O2B       18.1810   28.5150   69.3180 O.2   4001  ADP4001    -0.2221
      4  O3B       17.8200   28.3440   71.7210 O.3   4001  ADP4001    -0.1143
      5  PA        15.9870   31.2840   71.1090 P.3   4001  ADP4001     0.2231
      6  O1A       16.9930   32.0360   71.9020 O.3   4001  ADP4001    -0.4370
      7  O2A       14.7350   30.9920   71.8570 O.2   4001  ADP4001    -0.5169
      8  O3A       16.5570   30.0540   70.3610 O.3   4001  ADP4001    -0.2261
      9  O5'       15.5350   32.1470   69.8650 O.3   4001  ADP4001    -0.3111
     10  C5'       16.5210   32.6680   68.9600 C.3   4001  ADP4001     0.1813
     11  C4'       16.2920   34.1400   68.6370 C.3   4001  ADP4001     0.1821
     12  O4'       15.0840   34.3800   67.8540 O.3   4001  ADP4001    -0.3135
     13  C3'       16.3570   35.2000   69.7450 C.3   4001  ADP4001     0.2184
     14  O3'       17.7530   35.4620   70.1530 O.3   4001  ADP4001    -0.2174
     15  C2'       15.6440   36.3460   69.0400 C.3   4001  ADP4001     0.2570
     16  O2'       16.4920   37.2430   68.2110 O.3   4001  ADP4001    -0.2130
     17  C1'       14.5990   35.6450   68.1520 C.3   4001  ADP4001     0.3186
     18  N9        13.2560   35.4850   68.7200 N.pl3 4001  ADP4001    -0.1439
     19  C8        12.8150   34.5660   69.6230 C.3   4001  ADP4001     0.3377
     20  N7        11.4850   34.6150   69.8270 N.2   4001  ADP4001    -0.2095
     21  C5        11.0440   35.6710   69.0390 C.2   4001  ADP4001     0.2526
     22  C6         9.7490   36.2610   68.8210 C.2   4001  ADP4001     0.4393
     23  N6         8.5290   35.9500   69.3350 N.pl3 4001  ADP4001     0.2180
     24  N1         9.7220   37.2530   67.9290 N.2   4001  ADP4001     0.0021
     25  C2        10.8760   37.6900   67.3290 C.3   4001  ADP4001     0.5254
     26  N3        12.0770   37.2210   67.4320 N.2   4001  ADP4001    -0.0055
     27  C4        12.1290   36.2220   68.3490 C.2   4001  ADP4001     0.3518
@<TRIPOS>BOND
     1    25    26    1
     2    25    24    1
     3    26    27    2
     4    12    17    1
     5    12    11    1
     6    24    22    2
     7    17    18    1
     8    17    15    1
     9    16    15    1
    10    27    18    1
    11    27    21    1
    12    11    10    1
    13    11    13    1
    14    18    19    1
    15    22    21    1
    16    22    23    1
    17    10     9    1
    18    21    20    2
    19    15    13    1
    20     3     1    2
    21    19    20    1
    22    13    14    1
    23     9     5    1
    24     8     1    1
    25     8     5    1
    26     1     2    1
    27     1     4    1
    28     5     7    2
    29     5     6    1
