@<TRIPOS>MOLECULE
1m6w_12H_A_1.pdb
 15 14 0 0 0
SMALL
GASTEIGER

@<TRIPOS>ATOM
      1  C1        57.2000   20.0490   -1.0690 C.3   4378  12H4378     0.1821
      2  C2        56.3790   19.9260    0.1980 C.3   4378  12H4378     0.0355
      3  C3        54.8960   20.2160   -0.0560 C.3   4378  12H4378     0.0027
      4  C4        54.5220   21.6790    0.1410 C.3   4378  12H4378     0.0001
      5  C5        54.7750   22.1350    1.5750 C.3   4378  12H4378     0.0000
      6  C6        55.3940   23.5300    1.6150 C.3   4378  12H4378     0.0000
      7  C7        54.7410   24.4010    2.6720 C.3   4378  12H4378     0.0000
      8  C8        53.6090   25.2510    2.1300 C.3   4378  12H4378     0.0000
      9  C9        53.6460   26.6860    2.6490 C.3   4378  12H4378     0.0006
     10  C10       53.7520   27.6080    1.4520 C.3   4378  12H4378     0.0118
     11  C11       54.1100   29.0720    1.6690 C.3   4378  12H4378     0.1141
     12  C12       52.8160   29.8770    1.7150 C.2   4378  12H4378     0.3649
     13  O13       56.6860   19.2110   -2.0680 O.3   4378  12H4378    -0.2204
     14  O14       53.0830   31.1790    1.8420 O.co2 4378  12H4378    -0.2457
     15  O15       51.5640   29.3540    1.6230 O.co2 4378  12H4378    -0.2457
@<TRIPOS>BOND
     1    13     1    1
     2     1     2    1
     3     3     4    1
     4     3     2    1
     5     4     5    1
     6    10    11    1
     7    10     9    1
     8     5     6    1
     9     6     7    1
    10    15    12   ar
    11    11    12    1
    12    12    14   ar
    13     8     9    1
    14     8     7    1
