@<TRIPOS>MOLECULE
1m6y_SAH_A_1.pdb
 26 28 0 0 0
SMALL
GASTEIGER

@<TRIPOS>ATOM
      1  N        -43.6910  -13.5760   -1.9630 N.3   401  SAH401     -0.1208
      2  CA       -42.9250  -12.7930   -1.0100 C.3   401  SAH401      0.1952
      3  CB       -42.3250  -11.5510   -1.6930 C.3   401  SAH401      0.0422
      4  CG       -41.3180  -11.8680   -2.7820 C.3   401  SAH401      0.0597
      5  SD       -40.4110  -10.3830   -3.3320 S.3   401  SAH401     -0.1375
      6  C        -43.8300  -12.3630    0.1350 C.2   401  SAH401      0.3819
      7  O        -43.2910  -11.9220    1.1640 O.co2 401  SAH401     -0.2441
      8  OXT      -45.0620  -12.5510    0.0170 O.co2 401  SAH401     -0.2441
      9  C5'      -39.2000  -11.1170   -4.4720 C.3   401  SAH401      0.0899
     10  C4'      -38.1410  -11.8220   -3.6590 C.3   401  SAH401      0.1630
     11  O4'      -37.3190  -12.6520   -4.5370 O.3   401  SAH401     -0.3153
     12  C3'      -37.1540  -10.9020   -2.9280 C.3   401  SAH401      0.2168
     13  O3'      -37.1100  -11.2110   -1.5370 O.3   401  SAH401     -0.2175
     14  C2'      -35.8120  -11.2190   -3.6050 C.3   401  SAH401      0.2569
     15  O2'      -34.6950  -11.0860   -2.7550 O.3   401  SAH401     -0.2130
     16  C1'      -36.0120  -12.6760   -4.0160 C.3   401  SAH401      0.3185
     17  N9       -35.1120  -13.1910   -5.0480 N.pl3 401  SAH401     -0.1439
     18  C8       -34.5800  -12.5220   -6.1340 C.3   401  SAH401      0.3377
     19  N7       -33.8120  -13.2770   -6.8930 N.2   401  SAH401     -0.2095
     20  C5       -33.8430  -14.5190   -6.2720 C.2   401  SAH401      0.2526
     21  C6       -33.2390  -15.7490   -6.5910 C.2   401  SAH401      0.4393
     22  N6       -32.4270  -15.9220   -7.6450 N.pl3 401  SAH401      0.2180
     23  N1       -33.4890  -16.8040   -5.7810 N.2   401  SAH401      0.0021
     24  C2       -34.2770  -16.6180   -4.7080 C.3   401  SAH401      0.5254
     25  N3       -34.8890  -15.5020   -4.2960 N.2   401  SAH401     -0.0055
     26  C4       -34.6350  -14.4830   -5.1340 C.2   401  SAH401      0.3518
@<TRIPOS>BOND
     1    22    21    1
     2    19    20    2
     3    19    18    1
     4    21    20    1
     5    21    23    2
     6    20    26    1
     7    18    17    1
     8    23    24    1
     9    26    17    1
    10    26    25    2
    11    17    16    1
    12    24    25    1
    13    11    16    1
    14    11    10    1
    15     9    10    1
    16     9     5    1
    17    16    14    1
    18    10    12    1
    19    14    12    1
    20    14    15    1
    21     5     4    1
    22    12    13    1
    23     4     3    1
    24     1     2    1
    25     3     2    1
    26     2     6    1
    27     8     6   ar
    28     6     7   ar
