@<TRIPOS>MOLECULE
1m6z_HEC_A_1.pdb
 43 50 0 0 0
SMALL
GASTEIGER

@<TRIPOS>ATOM
      1 FE         -0.7670    2.2250   21.5430 Fe    199  HEC199      0.0000
      2  CHA       -0.8600    2.7630   18.1420 C.2   199  HEC199      0.0000
      3  CHB        2.3260    0.8360   21.2280 C.2   199  HEC199      0.0000
      4  CHC       -0.5320    1.9840   24.8830 C.2   199  HEC199      0.0000
      5  CHD       -4.0350    3.1530   21.7870 C.2   199  HEC199      0.0000
      6  NA         0.4610    1.8140   20.0120 N.ar  199  HEC199      0.0000
      7  C1A        0.2170    2.1100   18.6570 C.ar  199  HEC199      0.0000
      8  C2A        1.3810    1.6640   17.8890 C.ar  199  HEC199      0.0000
      9  C3A        2.2830    1.1120   18.7440 C.ar  199  HEC199      0.0000
     10  C4A        1.7130    1.2610   20.0730 C.ar  199  HEC199      0.0000
     11  CMA        3.6190    0.5100   18.4870 C.3   199  HEC199      0.0000
     12  CAA        1.4850    1.7580   16.3500 C.3   199  HEC199      0.0000
     13  CBA        1.1840    0.3890   15.7180 C.3   199  HEC199      0.0000
     14  CGA        1.3080    0.3430   14.1550 C.2   199  HEC199      0.0000
     15  O1A        0.8150   -0.6630   13.6320 O.co2 199  HEC199      0.0000
     16  O2A        1.8710    1.2610   13.5940 O.co2 199  HEC199      0.0000
     17  NB         0.5690    1.5890   22.8390 N.2   199  HEC199      0.0000
     18  C1B        1.8190    1.0190   22.5220 C.2   199  HEC199      0.0000
     19  C2B        2.5040    0.6690   23.7070 C.2   199  HEC199      0.0000
     20  C3B        1.7810    1.1260   24.7570 C.2   199  HEC199      0.0000
     21  C4B        0.6080    1.6140   24.2040 C.2   199  HEC199      0.0000
     22  CMB        3.9440   -0.0050   23.7290 C.3   199  HEC199      0.0000
     23  CAB        2.0420    1.0200   26.2420 C.3   199  HEC199      0.0000
     24  CBB        3.3880    1.8110   26.6010 C.3   199  HEC199      0.0000
     25  NC        -2.0240    2.5760   23.0520 N.ar  199  HEC199      0.0000
     26  C1C       -1.7370    2.4240   24.3910 C.ar  199  HEC199      0.0000
     27  C2C       -2.9730    2.5660   25.1350 C.ar  199  HEC199      0.0000
     28  C3C       -3.9650    2.7910   24.2770 C.ar  199  HEC199      0.0000
     29  C4C       -3.3700    2.8160   22.9240 C.ar  199  HEC199      0.0000
     30  CMC       -3.0390    2.3830   26.6460 C.3   199  HEC199      0.0000
     31  CAC       -5.4640    2.9050   24.5150 C.3   199  HEC199      0.0000
     32  CBC       -5.8100    4.1760   25.3400 C.3   199  HEC199      0.0000
     33  ND        -2.1230    2.8360   20.2600 N.2   199  HEC199      0.0000
     34  C1D       -3.3850    3.2490   20.5400 C.2   199  HEC199      0.0000
     35  C2D       -4.0930    3.7310   19.3500 C.2   199  HEC199      0.0000
     36  C3D       -3.2230    3.6120   18.3350 C.2   199  HEC199      0.0000
     37  C4D       -2.0400    3.1230   18.8780 C.2   199  HEC199      0.0000
     38  CMD       -5.4970    4.2790   19.2800 C.3   199  HEC199      0.0000
     39  CAD       -3.5530    3.9250   16.9030 C.3   199  HEC199      0.0000
     40  CBD       -3.5460    5.4330   16.6620 C.3   199  HEC199      0.0000
     41  CGD       -3.8970    5.6820   15.1590 C.2   199  HEC199      0.0000
     42  O1D       -5.0540    5.4080   14.7200 O.co2 199  HEC199      0.0000
     43  O2D       -3.1210    5.8450   14.3820 O.co2 199  HEC199      0.0000
@<TRIPOS>BOND
     1    16    14   ar
     2    15    14   ar
     3    14    13    1
     4    43    41   ar
     5    42    41   ar
     6    41    40    1
     7    13    12    1
     8    12     8    1
     9    40    39    1
    10    39    36    1
    11     8     7   ar
    12     8     9   ar
    13     2     7    2
    14     2    37    1
    15    36    37    1
    16    36    35    2
    17    11     9    1
    18     7     6   ar
    19     9    10   ar
    20    37    33    2
    21    38    35    1
    22    35    34    1
    23     6    10   ar
    24     6     1    1
    25    10     3    2
    26    33    34    1
    27    33     1    1
    28    34     5    2
    29     3    18    1
    30     1    17    1
    31     1    25    1
    32     5    29    1
    33    18    17    2
    34    18    19    1
    35    17    21    1
    36    29    25   ar
    37    29    28   ar
    38    25    26   ar
    39    19    22    1
    40    19    20    2
    41    21    20    1
    42    21     4    2
    43    28    31    1
    44    28    27   ar
    45    26     4    1
    46    26    27   ar
    47    31    32    1
    48    20    23    1
    49    27    30    1
    50    23    24    1
