@<TRIPOS>MOLECULE
1m70_HEC_A_1.pdb
 43 50 0 0 0
SMALL
GASTEIGER

@<TRIPOS>ATOM
      1 FE         -0.8900    2.1190   21.5570 Fe    199  HEC199      0.0000
      2  CHA       -0.9390    2.7020   18.1710 C.2   199  HEC199      0.0000
      3  CHB        2.2140    0.7980   21.2960 C.2   199  HEC199      0.0000
      4  CHC       -0.6790    2.0250   24.9100 C.2   199  HEC199      0.0000
      5  CHD       -4.1600    3.0550   21.7660 C.2   199  HEC199      0.0000
      6  NA         0.3610    1.7660   20.0560 N.ar  199  HEC199      0.0000
      7  C1A        0.1830    2.0440   18.7170 C.ar  199  HEC199      0.0000
      8  C2A        1.3100    1.5990   17.9140 C.ar  199  HEC199      0.0000
      9  C3A        2.2100    1.0590   18.8220 C.ar  199  HEC199      0.0000
     10  C4A        1.5950    1.1700   20.1340 C.ar  199  HEC199      0.0000
     11  CMA        3.5720    0.4820   18.5550 C.3   199  HEC199      0.0000
     12  CAA        1.4620    1.6530   16.4330 C.3   199  HEC199      0.0000
     13  CBA        1.1600    0.3460   15.7490 C.3   199  HEC199      0.0000
     14  CGA        1.3140    0.3210   14.2410 C.2   199  HEC199      0.0000
     15  O1A        0.7960   -0.7110   13.6680 O.co2 199  HEC199      0.0000
     16  O2A        1.8950    1.2130   13.6510 O.co2 199  HEC199      0.0000
     17  NB         0.4540    1.5610   22.8560 N.2   199  HEC199      0.0000
     18  C1B        1.6630    0.9330   22.5700 C.2   199  HEC199      0.0000
     19  C2B        2.4180    0.6660   23.8170 C.2   199  HEC199      0.0000
     20  C3B        1.6170    1.1120   24.8240 C.2   199  HEC199      0.0000
     21  C4B        0.4200    1.6400   24.2390 C.2   199  HEC199      0.0000
     22  CMB        3.7310   -0.0100   23.8430 C.3   199  HEC199      0.0000
     23  CAB        1.9140    1.0940   26.3090 C.3   199  HEC199      0.0000
     24  CBB        3.2020    1.9030   26.6480 C.3   199  HEC199      0.0000
     25  NC        -2.1550    2.4920   23.0380 N.ar  199  HEC199      0.0000
     26  C1C       -1.8900    2.3800   24.4030 C.ar  199  HEC199      0.0000
     27  C2C       -3.1130    2.5810   25.1440 C.ar  199  HEC199      0.0000
     28  C3C       -4.1560    2.7570   24.2640 C.ar  199  HEC199      0.0000
     29  C4C       -3.4920    2.7640   22.9560 C.ar  199  HEC199      0.0000
     30  CMC       -3.2130    2.5340   26.6630 C.3   199  HEC199      0.0000
     31  CAC       -5.6010    2.8570   24.5080 C.3   199  HEC199      0.0000
     32  CBC       -6.0550    4.1470   25.2480 C.3   199  HEC199      0.0000
     33  ND        -2.2500    2.7720   20.2550 N.2   199  HEC199      0.0000
     34  C1D       -3.5770    3.0980   20.5220 C.2   199  HEC199      0.0000
     35  C2D       -4.1850    3.6700   19.3220 C.2   199  HEC199      0.0000
     36  C3D       -3.2660    3.5580   18.3250 C.2   199  HEC199      0.0000
     37  C4D       -2.1160    2.9860   18.8400 C.2   199  HEC199      0.0000
     38  CMD       -5.6260    4.0930   19.1780 C.3   199  HEC199      0.0000
     39  CAD       -3.5450    3.9180   16.8850 C.3   199  HEC199      0.0000
     40  CBD       -3.5800    5.3490   16.6000 C.3   199  HEC199      0.0000
     41  CGD       -3.9660    5.5620   15.0920 C.2   199  HEC199      0.0000
     42  O1D       -5.1600    5.5390   14.7060 O.co2 199  HEC199      0.0000
     43  O2D       -3.1580    5.6610   14.3480 O.co2 199  HEC199      0.0000
@<TRIPOS>BOND
     1    16    14   ar
     2    15    14   ar
     3    14    13    1
     4    43    41   ar
     5    42    41   ar
     6    41    40    1
     7    13    12    1
     8    12     8    1
     9    40    39    1
    10    39    36    1
    11     8     7   ar
    12     8     9   ar
    13     2     7    2
    14     2    37    1
    15    36    37    1
    16    36    35    2
    17    11     9    1
    18     7     6   ar
    19     9    10   ar
    20    37    33    2
    21    38    35    1
    22    35    34    1
    23     6    10   ar
    24     6     1    1
    25    10     3    2
    26    33    34    1
    27    33     1    1
    28    34     5    2
    29     3    18    1
    30     1    17    1
    31     1    25    1
    32     5    29    1
    33    18    17    2
    34    18    19    1
    35    17    21    1
    36    29    25   ar
    37    29    28   ar
    38    25    26   ar
    39    19    22    1
    40    19    20    2
    41    21    20    1
    42    21     4    2
    43    28    31    1
    44    28    27   ar
    45    26     4    1
    46    26    27   ar
    47    31    32    1
    48    20    23    1
    49    27    30    1
    50    23    24    1
