@<TRIPOS>MOLECULE
1m72_III_D_1.pdb
 36 35 0 0 0
SMALL
GASTEIGER

@<TRIPOS>ATOM
      1  C         15.2300   94.9670   67.0240 C.2   500  ACE500      0.2423
      2  O         14.9560   95.9140   66.2930 O.2   500  ACE500     -0.2733
      3  CH3       15.2660   95.0790   68.2640 C.3   500  ACE500      0.0964
      4  N         15.5360   93.5940   66.3920 N.am  501  ASP501     -0.1972
      5  CA        15.4570   93.5570   64.9300 C.3   501  ASP501      0.1839
      6  C         14.0420   93.1390   64.4840 C.2   501  ASP501      0.2622
      7  O         13.4720   92.1710   65.0000 O.2   501  ASP501     -0.2715
      8  CB        16.4930   92.5720   64.3920 C.3   501  ASP501      0.1450
      9  CG        17.9350   93.0760   64.5510 C.2   501  ASP501      0.3671
     10  OD1       18.1880   94.3060   64.4900 O.co2 501  ASP501     -0.2456
     11  OD2       18.8300   92.2260   64.7230 O.co2 501  ASP501     -0.2456
     12  N         13.4880   93.8550   63.5150 N.am  502  GLU502     -0.1963
     13  CA        12.1670   93.5460   62.9730 C.3   502  GLU502      0.1733
     14  C         12.2130   93.6690   61.4420 C.2   502  GLU502      0.2616
     15  O         13.1470   94.2730   60.8870 O.2   502  GLU502     -0.2715
     16  CB        11.1200   94.4960   63.5690 C.3   502  GLU502      0.0429
     17  CG        11.1180   94.4950   65.0960 C.3   502  GLU502      0.1163
     18  CD        10.1230   95.4610   65.7170 C.2   502  GLU502      0.3649
     19  OE1        9.5720   96.3480   64.9960 O.co2 502  GLU502     -0.2457
     20  OE2        9.8960   95.3280   66.9550 O.co2 502  GLU502     -0.2457
     21  N         11.2270   93.0730   60.7630 N.am  503  VAL503     -0.1963
     22  CA        11.1500   93.0660   59.2910 C.3   503  VAL503      0.1727
     23  C         10.0330   94.0420   58.8400 C.2   503  VAL503      0.2616
     24  O          9.0870   94.3200   59.6080 O.2   503  VAL503     -0.2715
     25  CB        10.8740   91.6050   58.7330 C.3   503  VAL503      0.0290
     26  CG1       12.1010   90.6750   58.9340 C.3   503  VAL503      0.0023
     27  CG2        9.6650   90.9930   59.4160 C.3   503  VAL503      0.0023
     28  N         10.1560   94.5700   57.6170 N.am  504  ASP504     -0.1976
     29  CA         9.2000   95.5420   57.0420 C.3   504  ASP504      0.1635
     30  C          8.3130   95.0000   55.9150 C.2   504  ASP504      0.1713
     31  O          7.7340   95.7300   55.1060 O.2   504  ASP504     -0.2942
     32  CB         9.9670   96.7350   56.4950 C.3   504  ASP504      0.1432
     33  CG        10.3200   97.7080   57.5590 C.2   504  ASP504      0.3671
     34  OD1        9.6420   97.6780   58.6170 O.co2 504  ASP504     -0.2456
     35  OD2       11.2700   98.4880   57.3260 O.co2 504  ASP504     -0.2456
     36  C1         8.2780   93.5430   55.7840 C.3   505  0QE505      0.0741
@<TRIPOS>BOND
     1    31    30    2
     2    36    30    1
     3    30    29    1
     4    32    29    1
     5    32    33    1
     6    29    28    1
     7    35    33   ar
     8    33    34   ar
     9    28    23   am
    10    25    26    1
    11    25    22    1
    12    25    27    1
    13    23    22    1
    14    23    24    2
    15    22    21    1
    16    21    14   am
    17    15    14    2
    18    14    13    1
    19    13    12    1
    20    13    16    1
    21    12     6   am
    22    16    17    1
    23     8     9    1
    24     8     5    1
    25     6     5    1
    26     6     7    2
    27    10     9   ar
    28     9    11   ar
    29     5     4    1
    30    19    18   ar
    31    17    18    1
    32    18    20   ar
    33     2     1    2
    34     4     1   am
    35     1     3    1
