@<TRIPOS>MOLECULE
1m74_ADP_A_1.pdb
 27 29 0 0 0
SMALL
GASTEIGER

@<TRIPOS>ATOM
      1  PB        38.4390   88.5820   48.7110 P.3   901  ADP901      0.5373
      2  O1B       38.5850   87.4220   49.6490 O.3   901  ADP901     -0.1143
      3  O2B       39.8780   89.2740   48.3780 O.3   901  ADP901     -0.1143
      4  O3B       37.7740   88.1150   47.4650 O.2   901  ADP901     -0.2221
      5  PA        37.8050   90.9050   50.2870 P.3   901  ADP901      0.2231
      6  O1A       39.2310   91.0010   50.6860 O.2   901  ADP901     -0.5169
      7  O2A       36.8960   90.8110   51.4230 O.3   901  ADP901     -0.4370
      8  O3A       37.5610   89.6870   49.3490 O.3   901  ADP901     -0.2261
      9  O5'       37.3620   92.0630   49.3550 O.3   901  ADP901     -0.3111
     10  C5'       38.0730   92.4010   48.1910 C.3   901  ADP901      0.1813
     11  C4'       38.2100   93.9310   48.2550 C.3   901  ADP901      0.1821
     12  O4'       37.2740   94.5590   47.3570 O.3   901  ADP901     -0.3135
     13  C3'       37.9570   94.5390   49.6520 C.3   901  ADP901      0.2184
     14  O3'       39.1220   95.1630   50.1970 O.3   901  ADP901     -0.2174
     15  C2'       36.8350   95.5630   49.5290 C.3   901  ADP901      0.2570
     16  O2'       37.2240   96.8600   50.0410 O.3   901  ADP901     -0.2130
     17  C1'       36.4730   95.5530   48.0500 C.3   901  ADP901      0.3186
     18  N9        34.9960   95.3340   47.7930 N.pl3 901  ADP901     -0.1439
     19  C8        34.2810   94.2390   48.1550 C.3   901  ADP901      0.3377
     20  N7        33.0030   94.4120   47.7680 N.2   901  ADP901     -0.2095
     21  C5        32.8630   95.6100   47.1980 C.2   901  ADP901      0.2526
     22  C6        31.8090   96.3480   46.6150 C.2   901  ADP901      0.4393
     23  N6        30.5490   95.8580   46.5540 N.pl3 901  ADP901      0.2180
     24  N1        32.0660   97.6010   46.0970 N.2   901  ADP901      0.0021
     25  C2        33.3070   98.1370   46.1310 C.3   901  ADP901      0.5254
     26  N3        34.3250   97.4400   46.6800 N.2   901  ADP901     -0.0055
     27  C4        34.1580   96.1970   47.2290 C.2   901  ADP901      0.3518
@<TRIPOS>BOND
     1    24    25    1
     2    24    22    2
     3    25    26    1
     4    23    22    1
     5    22    21    1
     6    26    27    2
     7    21    27    1
     8    21    20    2
     9    27    18    1
    10    12    17    1
    11    12    11    1
    12     4     1    2
    13    20    19    1
    14    18    17    1
    15    18    19    1
    16    17    15    1
    17    10    11    1
    18    10     9    1
    19    11    13    1
    20     3     1    1
    21     1     8    1
    22     1     2    1
    23     8     5    1
    24     9     5    1
    25    15    13    1
    26    15    16    1
    27    13    14    1
    28     5     6    2
    29     5     7    1
