@<TRIPOS>MOLECULE
1m75_NAD_A_1.pdb
 44 48 0 0 0
SMALL
GASTEIGER

@<TRIPOS>ATOM
      1  PA         5.9030  -10.2250   -9.8420 P.3   350  NAD350      0.2189
      2  O1A        5.5730  -11.6680   -9.7930 O.3   350  NAD350     -0.4371
      3  O2A        7.3240   -9.8380  -10.0380 O.2   350  NAD350     -0.5170
      4  O5B        5.3710   -9.4080   -8.5640 O.3   350  NAD350     -0.3112
      5  C5B        4.1910   -9.7590   -7.7970 C.3   350  NAD350      0.1813
      6  C4B        4.3750   -9.7300   -6.3880 C.3   350  NAD350      0.1821
      7  O4B        3.0690  -10.0250   -5.8510 O.3   350  NAD350     -0.3135
      8  C3B        5.2590  -10.8170   -5.7540 C.3   350  NAD350      0.2184
      9  O3B        6.3590  -10.2690   -5.0070 O.3   350  NAD350     -0.2174
     10  C2B        4.2740  -11.6680   -4.9350 C.3   350  NAD350      0.2570
     11  O2B        4.9490  -12.2710   -3.8170 O.3   350  NAD350     -0.2130
     12  C1B        3.2430  -10.6060   -4.6020 C.3   350  NAD350      0.3186
     13  N9A        1.9000  -10.9790   -4.1660 N.pl3 350  NAD350     -0.1439
     14  C8A        1.0480  -11.9190   -4.6630 C.3   350  NAD350      0.3377
     15  N7A       -0.1290  -11.9950   -4.0360 N.2   350  NAD350     -0.2095
     16  C5A       -0.0180  -11.0270   -3.0620 C.2   350  NAD350      0.2526
     17  C6A       -0.8940  -10.5690   -2.0560 C.2   350  NAD350      0.4393
     18  N6A       -2.1110  -11.0290   -1.8370 N.pl3 350  NAD350      0.2180
     19  N1A       -0.4900   -9.5590   -1.2220 N.2   350  NAD350      0.0021
     20  C2A        0.7660   -9.0200   -1.3950 C.3   350  NAD350      0.5254
     21  N3A        1.6490   -9.3810   -2.3060 N.2   350  NAD350     -0.0055
     22  C4A        1.2160  -10.3850   -3.1130 C.2   350  NAD350      0.3518
     23  O3         5.0590   -9.6280  -10.9760 O.3   350  NAD350     -0.2703
     24  PN         4.9960   -8.1100  -11.5900 P.3   350  NAD350      0.2189
     25  O1N        5.8330   -8.2050  -12.8010 O.2   350  NAD350     -0.5170
     26  O2N        5.6610   -7.2040  -10.6140 O.3   350  NAD350     -0.4371
     27  O5D        3.4840   -7.9360  -11.9970 O.3   350  NAD350     -0.3112
     28  C5D        2.6640   -6.9970  -11.3170 C.3   350  NAD350      0.1813
     29  C4D        1.3030   -6.8840  -11.9400 C.3   350  NAD350      0.1799
     30  O4D        1.6060   -5.8340  -12.8700 O.3   350  NAD350     -0.3327
     31  C3D        0.6640   -7.9850  -12.7800 C.3   350  NAD350      0.2158
     32  O3D       -0.7460   -7.8080  -12.6540 O.3   350  NAD350     -0.2175
     33  C2D        1.1000   -7.6650  -14.2160 C.3   350  NAD350      0.2309
     34  O2D        0.1570   -7.9840  -15.2540 O.3   350  NAD350     -0.2158
     35  C1D        1.3080   -6.1780  -14.1840 C.3   350  NAD350      0.2263
     36  N1N        2.4170   -5.6770  -14.9610 N.pl3 350  NAD350     -0.2787
     37  C2N        3.5650   -6.4200  -15.3060 C.3   350  NAD350      0.1244
     38  C3N        4.6930   -5.7750  -16.0330 C.2   350  NAD350      0.0544
     39  C7N        5.9420   -6.5200  -16.2930 C.2   350  NAD350      0.2818
     40  O7N        6.8630   -5.9460  -16.9100 O.2   350  NAD350     -0.2670
     41  N7N        6.1450   -7.7870  -15.8870 N.am  350  NAD350     -0.0839
     42  C4N        4.4950   -4.3230  -16.3680 C.2   350  NAD350      0.0033
     43  C5N        3.2070   -3.6640  -16.0010 C.2   350  NAD350      0.0157
     44  C6N        2.2650   -4.3000  -15.3320 C.2   350  NAD350      0.0633
@<TRIPOS>BOND
     1    40    39    2
     2    42    38    2
     3    42    43    1
     4    39    38    1
     5    39    41   am
     6    38    37    1
     7    43    44    2
     8    44    36    1
     9    37    36    1
    10    34    33    1
    11    36    35    1
    12    33    35    1
    13    33    31    1
    14    35    30    1
    15    30    29    1
    16    25    24    2
    17    31    32    1
    18    31    29    1
    19    27    24    1
    20    27    28    1
    21    29    28    1
    22    24    23    1
    23    24    26    1
    24    23     1    1
    25     3     1    2
    26     1     2    1
    27     1     4    1
    28     4     5    1
    29     5     6    1
    30     6     7    1
    31     6     8    1
    32     7    12    1
    33     8     9    1
    34     8    10    1
    35    10    12    1
    36    10    11    1
    37    14    13    1
    38    14    15    1
    39    12    13    1
    40    13    22    1
    41    15    16    2
    42    22    16    1
    43    22    21    2
    44    16    17    1
    45    21    20    1
    46    17    18    1
    47    17    19    2
    48    20    19    1
