@<TRIPOS>MOLECULE
1m76_NAD_A_1.pdb
 44 48 0 0 0
SMALL
GASTEIGER

@<TRIPOS>ATOM
      1  PA         5.7430  -10.2980   -9.8590 P.3   350  NAD350      0.2189
      2  O1A        5.3650  -11.7230   -9.9370 O.3   350  NAD350     -0.4371
      3  O2A        7.1790  -10.0110  -10.0840 O.2   350  NAD350     -0.5170
      4  O5B        5.3330   -9.6460   -8.4550 O.3   350  NAD350     -0.3112
      5  C5B        4.0750   -9.8480   -7.7740 C.3   350  NAD350      0.1813
      6  C4B        4.2580   -9.7670   -6.3690 C.3   350  NAD350      0.1821
      7  O4B        2.9260   -9.9050   -5.8310 O.3   350  NAD350     -0.3135
      8  C3B        5.0480  -10.9160   -5.7150 C.3   350  NAD350      0.2184
      9  O3B        6.1810  -10.4170   -4.9890 O.3   350  NAD350     -0.2174
     10  C2B        4.0150  -11.6600   -4.8540 C.3   350  NAD350      0.2570
     11  O2B        4.5750  -12.1900   -3.6320 O.3   350  NAD350     -0.2130
     12  C1B        3.0170  -10.5530   -4.6070 C.3   350  NAD350      0.3186
     13  N9A        1.6610  -10.9090   -4.2090 N.pl3 350  NAD350     -0.1439
     14  C8A        0.7880  -11.8160   -4.7370 C.3   350  NAD350      0.3377
     15  N7A       -0.3880  -11.8640   -4.1110 N.2   350  NAD350     -0.2095
     16  C5A       -0.2470  -10.9220   -3.1120 C.2   350  NAD350      0.2526
     17  C6A       -1.1020  -10.4580   -2.0900 C.2   350  NAD350      0.4393
     18  N6A       -2.3310  -10.8880   -1.8820 N.pl3 350  NAD350      0.2180
     19  N1A       -0.6550   -9.4850   -1.2330 N.2   350  NAD350      0.0021
     20  C2A        0.6150   -8.9810   -1.3900 C.3   350  NAD350      0.5254
     21  N3A        1.4790   -9.3460   -2.3160 N.2   350  NAD350     -0.0055
     22  C4A        1.0040  -10.3140   -3.1430 C.2   350  NAD350      0.3518
     23  O3         4.8970   -9.6340  -10.9720 O.3   350  NAD350     -0.2703
     24  PN         4.7690   -8.1330  -11.6140 P.3   350  NAD350      0.2189
     25  O1N        5.6340   -8.1930  -12.8010 O.2   350  NAD350     -0.5170
     26  O2N        5.3280   -7.1950  -10.5980 O.3   350  NAD350     -0.4371
     27  O5D        3.2550   -8.0120  -12.0370 O.3   350  NAD350     -0.3112
     28  C5D        2.4080   -7.1900  -11.2380 C.3   350  NAD350      0.1813
     29  C4D        1.0680   -6.9410  -11.8640 C.3   350  NAD350      0.1799
     30  O4D        1.4480   -5.8310  -12.7040 O.3   350  NAD350     -0.3327
     31  C3D        0.3540   -7.9140  -12.7930 C.3   350  NAD350      0.2158
     32  O3D       -1.0310   -7.5760  -12.6500 O.3   350  NAD350     -0.2175
     33  C2D        0.8740   -7.5290  -14.1890 C.3   350  NAD350      0.2309
     34  O2D       -0.0450   -7.7610  -15.2630 O.3   350  NAD350     -0.2158
     35  C1D        1.1340   -6.0480  -14.0400 C.3   350  NAD350      0.2263
     36  N1N        2.2420   -5.5180  -14.8070 N.pl3 350  NAD350     -0.2787
     37  C2N        3.4070   -6.2390  -15.1040 C.3   350  NAD350      0.1244
     38  C3N        4.4190   -5.6670  -16.0170 C.2   350  NAD350      0.0544
     39  C7N        5.6560   -6.4090  -16.2750 C.2   350  NAD350      0.2818
     40  O7N        6.4420   -5.9250  -17.1090 O.2   350  NAD350     -0.2670
     41  N7N        5.9670   -7.5500  -15.6420 N.am  350  NAD350     -0.0839
     42  C4N        4.2320   -4.2320  -16.3960 C.2   350  NAD350      0.0033
     43  C5N        2.9740   -3.5630  -15.9700 C.2   350  NAD350      0.0157
     44  C6N        2.0650   -4.1660  -15.2330 C.2   350  NAD350      0.0633
@<TRIPOS>BOND
     1    40    39    2
     2    42    38    2
     3    42    43    1
     4    39    38    1
     5    39    41   am
     6    38    37    1
     7    43    44    2
     8    34    33    1
     9    44    36    1
    10    37    36    1
    11    36    35    1
    12    33    35    1
    13    33    31    1
    14    35    30    1
    15    25    24    2
    16    31    32    1
    17    31    29    1
    18    30    29    1
    19    27    24    1
    20    27    28    1
    21    29    28    1
    22    24    23    1
    23    24    26    1
    24    23     1    1
    25     3     1    2
    26     2     1    1
    27     1     4    1
    28     4     5    1
    29     5     6    1
    30     6     7    1
    31     6     8    1
    32     7    12    1
    33     8     9    1
    34     8    10    1
    35    10    12    1
    36    10    11    1
    37    14    13    1
    38    14    15    1
    39    12    13    1
    40    13    22    1
    41    15    16    2
    42    22    16    1
    43    22    21    2
    44    16    17    1
    45    21    20    1
    46    17    18    1
    47    17    19    2
    48    20    19    1
