@<TRIPOS>MOLECULE
1m78_CLZ_A_1.pdb
 14 15 0 0 0
SMALL
GASTEIGER

@<TRIPOS>ATOM
      1  C1        28.6430   -1.6470    2.0940 C.2   194  CLZ194      0.2214
      2  N2        27.6810   -0.9940    1.4200 N.2   194  CLZ194     -0.3111
      3  C3        27.5850   -1.0990    0.0340 C.1   194  CLZ194      0.2422
      4  N4        28.3810   -1.9940   -0.6800 N.2   194  CLZ194     -0.3294
      5  N5        28.6730   -1.4500    3.4610 N.pl3 194  CLZ194     -0.0961
      6  N6        26.6000   -0.4950   -0.6210 N.pl3 194  CLZ194     -0.0232
      7  C7        31.5330   -4.0840    1.2110 C.2   194  CLZ194      0.0965
      8  C8        30.6760   -3.2250    1.9360 C.2   194  CLZ194      0.0667
      9  C9        29.5960   -2.5390    1.3900 C.3   194  CLZ194      0.1581
     10  C10       29.4030   -2.6570   -0.0470 C.2   194  CLZ194      0.1355
     11  C11       30.2890   -3.4770   -0.7850 C.2   194  CLZ194      0.0308
     12  C12       31.2990   -4.1670   -0.2190 C.2   194  CLZ194      0.0209
     13  N13       32.5850   -4.7530    1.7430 N.pl3 194  CLZ194     -0.1275
     14 CL         31.1000   -3.1340    3.6320 Cl    194  CLZ194     -0.0846
@<TRIPOS>BOND
     1    11    12    2
     2    11    10    1
     3     4    10    2
     4     4     3    2
     5     6     3    1
     6    12     7    1
     7    10     9    1
     8     3     2    2
     9     7    13    1
    10     7     8    2
    11     9     8    1
    12     9     1    1
    13     2     1    2
    14     8    14    1
    15     1     5    1
