@<TRIPOS>MOLECULE
1m78_NDP_A_1.pdb
 48 52 0 0 0
SMALL
GASTEIGER

@<TRIPOS>ATOM
      1  PA        28.8930   -7.2690   12.6600 P.3   193  NDP193      0.2189
      2  O1A       29.9360   -6.7800   11.7260 O.2   193  NDP193     -0.5170
      3  O2A       27.7030   -6.4340   12.8060 O.3   193  NDP193     -0.4371
      4  O5B       29.6760   -7.4520   14.1010 O.3   193  NDP193     -0.3112
      5  C5B       28.8520   -7.8020   15.2520 C.3   193  NDP193      0.1813
      6  C4B       29.7630   -7.4330   16.4710 C.3   193  NDP193      0.1820
      7  O4B       29.8670   -6.0180   16.5860 O.3   193  NDP193     -0.3136
      8  C3B       29.1660   -7.9290   17.8180 C.3   193  NDP193      0.2157
      9  O3B       29.6130   -9.2880   17.9710 O.3   193  NDP193     -0.2175
     10  C2B       29.9360   -6.9210   18.7840 C.3   193  NDP193      0.2314
     11  O2B       31.3310   -7.2040   18.9440 O.3   193  NDP193     -0.2630
     12  C1B       29.9080   -5.6580   17.9450 C.3   193  NDP193      0.3158
     13  N9A       28.7530   -4.8810   18.1920 N.pl3 193  NDP193     -0.1439
     14  C8A       27.5130   -5.1290   17.6810 C.3   193  NDP193      0.3377
     15  N7A       26.6290   -4.2100   18.0480 N.2   193  NDP193     -0.2095
     16  C5A       27.3910   -3.3950   18.8680 C.2   193  NDP193      0.2526
     17  C6A       26.9940   -2.2380   19.5780 C.2   193  NDP193      0.4393
     18  N6A       25.7330   -1.8280   19.4970 N.pl3 193  NDP193      0.2180
     19  N1A       27.9670   -1.6450   20.2870 N.2   193  NDP193      0.0021
     20  C2A       29.2250   -2.1750   20.3220 C.3   193  NDP193      0.5254
     21  N3A       29.6910   -3.2330   19.7030 N.2   193  NDP193     -0.0055
     22  C4A       28.6650   -3.7930   18.9870 C.2   193  NDP193      0.3518
     23  O3        28.4710   -8.6910   12.3120 O.3   193  NDP193     -0.2703
     24  PN        27.2570   -9.6260   11.9060 P.3   193  NDP193      0.2189
     25  O1N       27.5910  -11.0540   11.9380 O.2   193  NDP193     -0.5170
     26  O2N       25.9780   -9.3280   12.5500 O.3   193  NDP193     -0.4371
     27  O5D       27.1040   -9.2230   10.3010 O.3   193  NDP193     -0.3112
     28  C5D       27.9610   -9.9290    9.3730 C.3   193  NDP193      0.1813
     29  C4D       27.1270  -10.1360    8.1070 C.3   193  NDP193      0.1799
     30  O4D       26.8290   -8.8080    7.5490 O.3   193  NDP193     -0.3327
     31  C3D       27.7450  -10.9540    6.9770 C.3   193  NDP193      0.2158
     32  O3D       26.7300  -11.8020    6.3780 O.3   193  NDP193     -0.2175
     33  C2D       28.1850   -9.8390    6.0100 C.3   193  NDP193      0.2309
     34  O2D       28.2500  -10.3770    4.6840 O.3   193  NDP193     -0.2158
     35  C1D       27.0650   -8.8270    6.1580 C.3   193  NDP193      0.2263
     36  N1N       27.3940   -7.4530    5.6640 N.pl3 193  NDP193     -0.2787
     37  C2N       26.6360   -7.0960    4.5060 C.3   193  NDP193      0.1244
     38  C3N       26.9410   -5.8740    3.9270 C.2   193  NDP193      0.0544
     39  C7N       26.0480   -5.4690    2.6810 C.2   193  NDP193      0.2818
     40  O7N       26.1800   -4.3420    2.2360 O.2   193  NDP193     -0.2670
     41  N7N       25.1700   -6.3830    2.2050 N.am  193  NDP193     -0.0839
     42  C4N       27.8980   -4.9390    4.3950 C.2   193  NDP193      0.0033
     43  C5N       28.6220   -5.4440    5.5450 C.2   193  NDP193      0.0157
     44  C6N       28.4180   -6.6520    6.1100 C.2   193  NDP193      0.0633
     45  P2B       31.7340   -8.1350   20.3020 P.3   193  NDP193      0.5328
     46  O1X       33.2490   -8.0960   20.1690 O.3   193  NDP193     -0.1145
     47  O2X       31.0850   -7.3720   21.3620 O.3   193  NDP193     -0.1145
     48  O3X       31.0960   -9.4240   19.9660 O.2   193  NDP193     -0.2224
@<TRIPOS>BOND
     1    41    39   am
     2    40    39    2
     3    39    38    1
     4    38    42    2
     5    38    37    1
     6    42    43    1
     7    37    36    1
     8    34    33    1
     9    43    44    2
    10    36    44    1
    11    36    35    1
    12    33    35    1
    13    33    31    1
    14    35    30    1
    15    32    31    1
    16    31    29    1
    17    30    29    1
    18    29    28    1
    19    28    27    1
    20    27    24    1
    21     2     1    2
    22    24    25    2
    23    24    23    1
    24    24    26    1
    25    23     1    1
    26     1     3    1
    27     1     4    1
    28     4     5    1
    29     5     6    1
    30     6     7    1
    31     6     8    1
    32     7    12    1
    33    14    15    1
    34    14    13    1
    35     8     9    1
    36     8    10    1
    37    12    13    1
    38    12    10    1
    39    15    16    2
    40    13    22    1
    41    10    11    1
    42    16    22    1
    43    16    17    1
    44    11    45    1
    45    22    21    2
    46    18    17    1
    47    17    19    2
    48    21    20    1
    49    48    45    2
    50    46    45    1
    51    19    20    1
    52    45    47    1
