@<TRIPOS>MOLECULE
1m79_NDP_A_1.pdb
 48 52 0 0 0
SMALL
GASTEIGER

@<TRIPOS>ATOM
      1  PA        28.5380   -7.4300   12.4910 P.3   193  NDP193      0.2189
      2  O1A       29.5790   -6.8660   11.5700 O.2   193  NDP193     -0.5170
      3  O2A       27.3300   -6.6180   12.5730 O.3   193  NDP193     -0.4371
      4  O5B       29.2320   -7.6370   13.9120 O.3   193  NDP193     -0.3112
      5  C5B       28.3660   -7.8970   15.0880 C.3   193  NDP193      0.1813
      6  C4B       29.3460   -7.5650   16.2700 C.3   193  NDP193      0.1820
      7  O4B       29.5020   -6.1490   16.3380 O.3   193  NDP193     -0.3136
      8  C3B       28.6560   -7.9360   17.6420 C.3   193  NDP193      0.2157
      9  O3B       28.9170   -9.3210   17.8610 O.3   193  NDP193     -0.2175
     10  C2B       29.4640   -6.9610   18.5680 C.3   193  NDP193      0.2314
     11  O2B       30.8580   -7.3020   18.8030 O.3   193  NDP193     -0.2630
     12  C1B       29.5090   -5.7380   17.7050 C.3   193  NDP193      0.3158
     13  N9A       28.3720   -4.9340   17.9190 N.pl3 193  NDP193     -0.1439
     14  C8A       27.1310   -5.1610   17.3310 C.3   193  NDP193      0.3377
     15  N7A       26.2540   -4.2570   17.6900 N.2   193  NDP193     -0.2095
     16  C5A       26.9510   -3.4110   18.5370 C.2   193  NDP193      0.2526
     17  C6A       26.5080   -2.2770   19.2500 C.2   193  NDP193      0.4393
     18  N6A       25.2630   -1.8210   19.1670 N.pl3 193  NDP193      0.2180
     19  N1A       27.4380   -1.6180   19.9970 N.2   193  NDP193      0.0021
     20  C2A       28.6750   -2.1850   20.0560 C.3   193  NDP193      0.5254
     21  N3A       29.1650   -3.2520   19.4850 N.2   193  NDP193     -0.0055
     22  C4A       28.2450   -3.8320   18.6940 C.2   193  NDP193      0.3518
     23  O3        28.2320   -8.8920   12.0770 O.3   193  NDP193     -0.2703
     24  PN        26.9480   -9.8020   11.6760 P.3   193  NDP193      0.2189
     25  O1N       27.3740  -11.2140   11.7810 O.2   193  NDP193     -0.5170
     26  O2N       25.7450   -9.3980   12.4170 O.3   193  NDP193     -0.4371
     27  O5D       26.7020   -9.5000   10.1110 O.3   193  NDP193     -0.3112
     28  C5D       27.4460  -10.2110    9.1130 C.3   193  NDP193      0.1813
     29  C4D       26.5870  -10.2680    7.8400 C.3   193  NDP193      0.1799
     30  O4D       26.3170   -8.9050    7.3660 O.3   193  NDP193     -0.3327
     31  C3D       27.2230  -11.0590    6.7120 C.3   193  NDP193      0.2158
     32  O3D       26.2740  -11.9540    6.1380 O.3   193  NDP193     -0.2175
     33  C2D       27.6460   -9.9440    5.7430 C.3   193  NDP193      0.2309
     34  O2D       27.7180  -10.4480    4.3820 O.3   193  NDP193     -0.2158
     35  C1D       26.5000   -8.9860    5.9160 C.3   193  NDP193      0.2263
     36  N1N       26.8440   -7.6360    5.3910 N.pl3 193  NDP193     -0.2787
     37  C2N       26.1000   -7.2560    4.2710 C.3   193  NDP193      0.1244
     38  C3N       26.4640   -6.0670    3.6830 C.2   193  NDP193      0.0544
     39  C7N       25.6020   -5.6110    2.4590 C.2   193  NDP193      0.2818
     40  O7N       25.7330   -4.4900    2.0450 O.2   193  NDP193     -0.2670
     41  N7N       24.6610   -6.4750    2.0180 N.am  193  NDP193     -0.0839
     42  C4N       27.4650   -5.1730    4.1800 C.2   193  NDP193      0.0033
     43  C5N       28.1900   -5.7170    5.2960 C.2   193  NDP193      0.0157
     44  C6N       27.9210   -6.9100    5.8660 C.2   193  NDP193      0.0633
     45  P2B       31.1840   -8.1900   20.1660 P.3   193  NDP193      0.5328
     46  O1X       32.7090   -8.2170   20.1150 O.3   193  NDP193     -0.1145
     47  O2X       30.5940   -7.4450   21.2580 O.3   193  NDP193     -0.1145
     48  O3X       30.6160   -9.5380   19.8400 O.2   193  NDP193     -0.2224
@<TRIPOS>BOND
     1    41    39   am
     2    40    39    2
     3    39    38    1
     4    38    42    2
     5    38    37    1
     6    42    43    1
     7    37    36    1
     8    34    33    1
     9    43    44    2
    10    36    44    1
    11    36    35    1
    12    33    35    1
    13    33    31    1
    14    35    30    1
    15    32    31    1
    16    31    29    1
    17    30    29    1
    18    29    28    1
    19    28    27    1
    20    27    24    1
    21     2     1    2
    22    24    25    2
    23    24    23    1
    24    24    26    1
    25    23     1    1
    26     1     3    1
    27     1     4    1
    28     4     5    1
    29     5     6    1
    30     6     7    1
    31     6     8    1
    32     7    12    1
    33    14    15    1
    34    14    13    1
    35     8     9    1
    36     8    10    1
    37    15    16    2
    38    12    13    1
    39    12    10    1
    40    13    22    1
    41    16    22    1
    42    16    17    1
    43    10    11    1
    44    22    21    2
    45    11    45    1
    46    18    17    1
    47    17    19    2
    48    21    20    1
    49    48    45    2
    50    19    20    1
    51    46    45    1
    52    45    47    1
