@<TRIPOS>MOLECULE
1m79_MQ1_A_1.pdb
 21 23 0 0 0
SMALL
GASTEIGER

@<TRIPOS>ATOM
      1  C1        29.0490   -2.8660   -0.4850 C.2   194  MQ1194      0.1513
      2  C2        29.2230   -2.8120    0.9140 C.2   194  MQ1194      0.1090
      3  C3        28.2740   -1.9530    1.6700 C.2   194  MQ1194      0.2379
      4  N4        27.3430   -1.2680    1.0840 N.2   194  MQ1194     -0.3071
      5  C5        27.2020   -1.2600   -0.2450 C.1   194  MQ1194      0.2427
      6  N6        28.0110   -2.0510   -1.0670 N.2   194  MQ1194     -0.3256
      7  N7        28.3360   -1.7870    3.0070 N.pl3 194  MQ1194     -0.0919
      8  C8        29.9380   -3.6380   -1.2920 C.2   194  MQ1194      0.0292
      9  C9        30.9550   -4.3400   -0.6840 C.2   194  MQ1194     -0.0155
     10  C12       31.1090   -4.3580    0.6910 C.3   194  MQ1194      0.0908
     11  C13       30.2310   -3.5800    1.4760 C.2   194  MQ1194      0.1334
     12  N14       26.2550   -0.5620   -0.8530 N.pl3 194  MQ1194     -0.0232
     13  O20       30.4340   -3.5660    2.8350 O.3   194  MQ1194     -0.4572
     14  C22       31.4130   -4.4100    3.3620 C.ar  194  MQ1194      0.1451
     15  C23       31.1610   -5.7610    3.5000 C.ar  194  MQ1194      0.0406
     16  C24       32.1250   -6.5670    4.0890 C.ar  194  MQ1194      0.0400
     17  C25       33.3320   -6.0360    4.5230 C.ar  194  MQ1194      0.1389
     18  C26       33.5870   -4.6640    4.4060 C.ar  194  MQ1194      0.0400
     19  C27       32.5900   -3.8440    3.8010 C.ar  194  MQ1194      0.0406
     20  O32       34.3370   -6.8310    5.0540 O.3   194  MQ1194     -0.4714
     21  C33       34.0550   -8.2080    5.1700 C.3   194  MQ1194      0.2525
@<TRIPOS>BOND
     1     8     9    2
     2     8     1    1
     3     6     1    2
     4     6     5    2
     5    12     5    1
     6     9    10    1
     7     1     2    1
     8     5     4    2
     9    10    11    1
    10     2    11    2
    11     2     3    1
    12     4     3    2
    13    11    13    1
    14     3     7    1
    15    13    14    1
    16    14    15   ar
    17    14    19   ar
    18    15    16   ar
    19    19    18   ar
    20    16    17   ar
    21    18    17   ar
    22    17    20    1
    23    20    21    1
