@<TRIPOS>MOLECULE
1m7a_NDP_A_1.pdb
 48 52 0 0 0
SMALL
GASTEIGER

@<TRIPOS>ATOM
      1  PA        28.9180   -7.3460   12.7180 P.3   193  NDP193      0.2189
      2  O1A       29.9090   -6.9070   11.6680 O.2   193  NDP193     -0.5170
      3  O2A       27.7170   -6.5110   12.8490 O.3   193  NDP193     -0.4371
      4  O5B       29.7040   -7.5020   14.1040 O.3   193  NDP193     -0.3112
      5  C5B       28.9330   -7.7510   15.3310 C.3   193  NDP193      0.1813
      6  C4B       29.8630   -7.4710   16.5250 C.3   193  NDP193      0.1820
      7  O4B       30.0140   -6.0210   16.6550 O.3   193  NDP193     -0.3136
      8  C3B       29.2710   -7.9800   17.8600 C.3   193  NDP193      0.2157
      9  O3B       29.7660   -9.3340   18.0710 O.3   193  NDP193     -0.2175
     10  C2B       29.9390   -6.9540   18.8550 C.3   193  NDP193      0.2314
     11  O2B       31.3410   -7.2220   19.0450 O.3   193  NDP193     -0.2630
     12  C1B       29.9140   -5.7040   17.9990 C.3   193  NDP193      0.3158
     13  N9A       28.7620   -4.9220   18.2360 N.pl3 193  NDP193     -0.1439
     14  C8A       27.5120   -5.1540   17.7310 C.3   193  NDP193      0.3377
     15  N7A       26.6620   -4.2330   18.1050 N.2   193  NDP193     -0.2095
     16  C5A       27.4110   -3.4050   18.9060 C.2   193  NDP193      0.2526
     17  C6A       27.0320   -2.2090   19.5750 C.2   193  NDP193      0.4393
     18  N6A       25.7700   -1.7770   19.5280 N.pl3 193  NDP193      0.2180
     19  N1A       28.0010   -1.6040   20.2890 N.2   193  NDP193      0.0021
     20  C2A       29.2670   -2.1540   20.3130 C.3   193  NDP193      0.5254
     21  N3A       29.7280   -3.2170   19.6910 N.2   193  NDP193     -0.0055
     22  C4A       28.7080   -3.7860   18.9710 C.2   193  NDP193      0.3518
     23  O3        28.4730   -8.7960   12.3930 O.3   193  NDP193     -0.2703
     24  PN        27.2170   -9.6750   11.8790 P.3   193  NDP193      0.2189
     25  O1N       27.6600  -11.0950   12.0070 O.2   193  NDP193     -0.5170
     26  O2N       25.9110   -9.3990   12.4840 O.3   193  NDP193     -0.4371
     27  O5D       27.2040   -9.3250   10.3210 O.3   193  NDP193     -0.3112
     28  C5D       28.1070   -9.9310    9.3470 C.3   193  NDP193      0.1813
     29  C4D       27.1180  -10.1880    8.1390 C.3   193  NDP193      0.1799
     30  O4D       26.8690   -8.8920    7.5690 O.3   193  NDP193     -0.3327
     31  C3D       27.7940  -11.0400    7.0320 C.3   193  NDP193      0.2158
     32  O3D       26.7990  -11.8260    6.3750 O.3   193  NDP193     -0.2175
     33  C2D       28.3580   -9.8900    6.1750 C.3   193  NDP193      0.2309
     34  O2D       28.7930  -10.3610    4.9090 O.3   193  NDP193     -0.2158
     35  C1D       27.2430   -8.8950    6.1960 C.3   193  NDP193      0.2263
     36  N1N       27.5240   -7.5290    5.7080 N.pl3 193  NDP193     -0.2787
     37  C2N       26.7260   -7.1560    4.5790 C.3   193  NDP193      0.1244
     38  C3N       26.9420   -5.9530    3.9900 C.2   193  NDP193      0.0544
     39  C7N       26.0660   -5.5290    2.7470 C.2   193  NDP193      0.2818
     40  O7N       26.1630   -4.3960    2.3350 O.2   193  NDP193     -0.2670
     41  N7N       25.2220   -6.4560    2.2420 N.am  193  NDP193     -0.0839
     42  C4N       27.9080   -4.9400    4.4440 C.2   193  NDP193      0.0033
     43  C5N       28.6290   -5.4740    5.5390 C.2   193  NDP193      0.0157
     44  C6N       28.4990   -6.6590    6.1640 C.2   193  NDP193      0.0633
     45  P2B       31.7980   -8.2360   20.2900 P.3   193  NDP193      0.5328
     46  O1X       33.3070   -8.1500   20.1240 O.3   193  NDP193     -0.1145
     47  O2X       31.2960   -7.4830   21.4700 O.3   193  NDP193     -0.1145
     48  O3X       31.1220   -9.5000   20.0670 O.2   193  NDP193     -0.2224
@<TRIPOS>BOND
     1    41    39   am
     2    40    39    2
     3    39    38    1
     4    38    42    2
     5    38    37    1
     6    42    43    1
     7    37    36    1
     8    34    33    1
     9    43    44    2
    10    36    44    1
    11    36    35    1
    12    33    35    1
    13    33    31    1
    14    35    30    1
    15    32    31    1
    16    31    29    1
    17    30    29    1
    18    29    28    1
    19    28    27    1
    20    27    24    1
    21     2     1    2
    22    24    25    2
    23    24    23    1
    24    24    26    1
    25    23     1    1
    26     1     3    1
    27     1     4    1
    28     4     5    1
    29     5     6    1
    30     6     7    1
    31     6     8    1
    32     7    12    1
    33    14    15    1
    34    14    13    1
    35     8     9    1
    36     8    10    1
    37    12    13    1
    38    12    10    1
    39    15    16    2
    40    13    22    1
    41    10    11    1
    42    16    22    1
    43    16    17    1
    44    22    21    2
    45    11    45    1
    46    18    17    1
    47    17    19    2
    48    21    20    1
    49    48    45    2
    50    46    45    1
    51    19    20    1
    52    45    47    1
