@<TRIPOS>MOLECULE
1m7a_MQU_A_1.pdb
 22 24 0 0 0
SMALL
GASTEIGER

@<TRIPOS>ATOM
      1  C1        33.3140   -5.8040    2.0260 C.3   194  MQU194      0.1442
      2  C2        34.7160   -5.3060    2.4070 C.3   194  MQU194      0.1672
      3  O8        34.9940   -4.3270    1.4710 O.3   194  MQU194     -0.3490
      4  C14       35.8550   -3.3130    1.8160 C.3   194  MQU194      0.1742
      5  C5        32.8420   -6.9860    2.8790 C.3   194  MQU194      0.1672
      6  O11       33.6620   -7.0320    4.0530 O.3   194  MQU194     -0.3490
      7  C18       34.3730   -8.2650    4.0930 C.3   194  MQU194      0.1742
      8  N22       28.4840   -2.0460   -0.5830 N.2   194  MQU194     -0.3339
      9  N23       27.7020   -1.0420    1.3770 N.2   194  MQU194     -0.3112
     10  N24       32.4450   -4.6830    2.2690 N.ar  194  MQU194     -0.3267
     11  N25       26.7430   -0.5390   -0.6860 N.pl3 194  MQU194     -0.0232
     12  N26       28.5760   -1.4970    3.4470 N.pl3 194  MQU194     -0.0962
     13  C27       29.5170   -2.7170    0.1140 C.2   194  MQU194      0.1126
     14  C28       27.6580   -1.2050    0.0570 C.1   194  MQU194      0.2419
     15  C29       28.6040   -1.6970    2.0960 C.2   194  MQU194      0.2201
     16  C30       29.5880   -2.5940    1.5280 C.3   194  MQU194      0.1432
     17  C31       30.6510   -3.2720    2.1760 C.ar  194  MQU194      0.0051
     18  C32       31.0610   -3.3910    3.6070 C.ar  194  MQU194      0.0163
     19  C33       32.1570   -4.2760    3.5290 C.ar  194  MQU194      0.0754
     20  C34       31.5130   -4.1220    1.4070 C.ar  194  MQU194      0.0344
     21  C35       31.3780   -4.2190    0.0280 C.3   194  MQU194      0.0506
     22  C36       30.2760   -3.6980   -0.5650 C.3   194  MQU194      0.0625
@<TRIPOS>BOND
     1    11    14    1
     2     8    14    2
     3     8    13    2
     4    22    21    1
     5    22    13    1
     6    21    20    1
     7    14     9    2
     8    13    16    1
     9     9    15    2
    10    20    17   ar
    11    20    10   ar
    12     3     4    1
    13     3     2    1
    14    16    15    1
    15    16    17    1
    16     1    10    1
    17     1     2    1
    18     1     5    1
    19    15    12    1
    20    17    18   ar
    21    10    19   ar
    22     5     6    1
    23    19    18   ar
    24     6     7    1
