@<TRIPOS>MOLECULE
1m7b_GTP_A_1.pdb
 32 34 0 0 0
SMALL
GASTEIGER

@<TRIPOS>ATOM
      1  PG        25.8430   31.3970    9.6120 P.3   538  GTP538      0.5373
      2  O1G       26.9030   32.4550    9.7550 O.3   538  GTP538     -0.1143
      3  O2G       25.6170   30.9340    8.2060 O.2   538  GTP538     -0.2221
      4  O3G       24.6230   31.8620   10.2660 O.3   538  GTP538     -0.1143
      5  O3B       26.5120   30.0530   10.5720 O.3   538  GTP538     -0.2258
      6  PB        25.9350   28.5240   10.8880 P.3   538  GTP538      0.2277
      7  O1B       24.9880   28.5930   12.0810 O.3   538  GTP538     -0.4368
      8  O2B       25.3330   27.9780    9.6950 O.2   538  GTP538     -0.5168
      9  O3A       27.2190   27.7210   11.2540 O.3   538  GTP538     -0.2700
     10  PA        27.9490   26.4510   10.5690 P.3   538  GTP538      0.2189
     11  O1A       27.1060   25.2810   10.4530 O.3   538  GTP538     -0.4371
     12  O2A       28.5540   26.9900    9.2610 O.2   538  GTP538     -0.5170
     13  O5'       29.1130   26.1110   11.7300 O.3   538  GTP538     -0.3112
     14  C5'       30.0310   27.2700   11.9570 C.3   538  GTP538      0.1813
     15  C4'       31.2970   26.4720   12.5480 C.3   538  GTP538      0.1799
     16  O4'       31.0000   25.5460   13.6280 O.3   538  GTP538     -0.3326
     17  C3'       32.0810   25.7120   11.5760 C.3   538  GTP538      0.2158
     18  O3'       33.4510   26.0330   11.6380 O.3   538  GTP538     -0.2175
     19  C2'       31.8020   24.1870   11.7690 C.3   538  GTP538      0.2310
     20  O2'       32.7970   23.3950   11.4170 O.3   538  GTP538     -0.2158
     21  C1'       31.5340   24.2300   13.4350 C.3   538  GTP538      0.2293
     22  N9        30.4710   23.2090   13.7980 N.pl3 538  GTP538     -0.2354
     23  C8        29.2470   23.0890   13.1300 C.3   538  GTP538      0.2246
     24  N7        28.7240   22.0600   13.8420 N.2   538  GTP538     -0.2322
     25  C5        29.5270   21.5640   14.8660 C.2   538  GTP538      0.2182
     26  C6        29.2870   20.6100   15.6850 C.1   538  GTP538      0.2372
     27  O6        28.3720   19.7730   15.9400 O.2   538  GTP538     -0.2069
     28  N1        30.4590   20.4010   16.6620 N.2   538  GTP538     -0.2485
     29  C2        31.4690   21.2060   16.4980 C.1   538  GTP538      0.2531
     30  N2        32.5980   20.9990   17.4520 N.pl3 538  GTP538     -0.0226
     31  N3        31.7160   22.2090   15.6310 N.2   538  GTP538     -0.3074
     32  C4        30.6260   22.3110   14.8180 C.2   538  GTP538      0.2300
@<TRIPOS>BOND
     1     3     1    2
     2    12    10    2
     3     1     2    1
     4     1     4    1
     5     1     5    1
     6     8     6    2
     7    11    10    1
     8    10     9    1
     9    10    13    1
    10     5     6    1
    11     6     9    1
    12     6     7    1
    13    20    19    1
    14    17    18    1
    15    17    19    1
    16    17    15    1
    17    13    14    1
    18    19    21    1
    19    14    15    1
    20    15    16    1
    21    23    22    1
    22    23    24    1
    23    21    16    1
    24    21    22    1
    25    22    32    1
    26    24    25    2
    27    32    25    1
    28    32    31    2
    29    25    26    1
    30    31    29    2
    31    26    27    2
    32    26    28    2
    33    29    28    2
    34    29    30    1
