@<TRIPOS>MOLECULE
1m7d_MAG_A_1.pdb
 16 16 0 0 0
SMALL
GASTEIGER

@<TRIPOS>ATOM
      1  C1        -5.9780   17.3600   33.6890 C.3   403  MAG403      0.2586
      2  C2        -6.7820   18.6400   33.4380 C.3   403  MAG403      0.1842
      3  C3        -5.8830   19.8580   33.6740 C.3   403  MAG403      0.2094
      4  C4        -5.1630   19.7990   35.0330 C.3   403  MAG403      0.2136
      5  C5        -4.4700   18.4510   35.1980 C.3   403  MAG403      0.1834
      6  C6        -3.7940   18.3190   36.5520 C.3   403  MAG403      0.2142
      7  C7        -8.4920   19.1230   31.7650 C.2   403  MAG403      0.2420
      8  C8        -8.8540   19.0840   30.2900 C.3   403  MAG403      0.0964
      9  N2        -7.2760   18.6610   32.0690 N.am  403  MAG403     -0.1992
     10  O1        -6.7820   16.2040   33.4690 O.3   403  MAG403     -0.3265
     11  O3        -6.6710   21.0510   33.5870 O.3   403  MAG403     -0.2183
     12  O4        -4.1950   20.8300   35.0950 O.3   403  MAG403     -0.2176
     13  O5        -5.4180   17.3910   35.0140 O.3   403  MAG403     -0.3262
     14  O6        -4.7510   18.4010   37.5930 O.3   403  MAG403     -0.2176
     15  O7        -9.2830   19.5510   32.6020 O.2   403  MAG403     -0.2733
     16  CM        -6.0730   14.9770   33.6260 C.3   403  MAG403      0.1769
@<TRIPOS>BOND
     1     8     7    1
     2     7     9   am
     3     7    15    2
     4     9     2    1
     5     2     3    1
     6     2     1    1
     7    10    16    1
     8    10     1    1
     9    11     3    1
    10     3     4    1
    11     1    13    1
    12    13     5    1
    13     4    12    1
    14     4     5    1
    15     5     6    1
    16     6    14    1
