@<TRIPOS>MOLECULE
1m7g_ADX_A_1.pdb
 27 29 0 0 0
SMALL
GASTEIGER

@<TRIPOS>ATOM
      1  SB        67.5320   45.5680   22.1060 S.3   1302  ADX1302     0.0049
      2  O1B       67.2540   44.1200   22.1050 O.2   1302  ADX1302    -0.3449
      3  O2B       66.5870   46.3660   22.8210 O.3   1302  ADX1302    -0.2679
      4  O3B       68.8960   45.8980   22.4470 O.2   1302  ADX1302    -0.3449
      5  PA        66.3510   45.6070   19.4950 P.3   1302  ADX1302     0.2383
      6  O1A       66.7260   44.3030   18.9400 O.2   1302  ADX1302    -0.5161
      7  O2A       65.0150   45.7430   20.0750 O.3   1302  ADX1302    -0.4361
      8  O3A       67.4820   46.0440   20.5990 O.3   1302  ADX1302    -0.1945
      9  O5'       66.6010   46.7510   18.4250 O.3   1302  ADX1302    -0.3102
     10  C5'       67.8610   46.7590   17.7470 C.3   1302  ADX1302     0.1814
     11  C4'       67.6600   47.4370   16.4020 C.3   1302  ADX1302     0.1821
     12  O4'       67.3290   48.8460   16.6300 O.3   1302  ADX1302    -0.3135
     13  C3'       68.9730   47.4440   15.5610 C.3   1302  ADX1302     0.2184
     14  O3'       68.9680   46.4210   14.6610 O.3   1302  ADX1302    -0.2174
     15  C2'       68.9970   48.8790   14.9800 C.3   1302  ADX1302     0.2570
     16  O2'       68.0980   48.8160   13.6910 O.3   1302  ADX1302    -0.2130
     17  C1'       68.1990   49.7390   15.8170 C.3   1302  ADX1302     0.3186
     18  N9        68.9240   50.5460   16.7910 N.pl3 1302  ADX1302    -0.1439
     19  C8        68.6720   51.8880   17.0280 C.3   1302  ADX1302     0.3377
     20  N7        69.4310   52.4070   17.9630 N.2   1302  ADX1302    -0.2095
     21  C5        70.2420   51.3940   18.4000 C.2   1302  ADX1302     0.2526
     22  C6        71.2730   51.3070   19.3930 C.2   1302  ADX1302     0.4393
     23  N6        71.6020   52.3600   20.1150 N.pl3 1302  ADX1302     0.2180
     24  N1        71.8600   50.0970   19.5370 N.2   1302  ADX1302     0.0021
     25  C2        71.5290   49.0110   18.8120 C.3   1302  ADX1302     0.5254
     26  N3        70.5630   48.9620   17.8370 N.2   1302  ADX1302    -0.0055
     27  C4        69.9760   50.2290   17.7100 C.2   1302  ADX1302     0.3518
@<TRIPOS>BOND
     1    16    15    1
     2    14    13    1
     3    15    13    1
     4    15    17    1
     5    13    11    1
     6    17    12    1
     7    17    18    1
     8    11    12    1
     9    11    10    1
    10    18    19    1
    11    18    27    1
    12    19    20    1
    13    27    26    2
    14    27    21    1
    15    10     9    1
    16    26    25    1
    17    20    21    2
    18    21    22    1
    19     9     5    1
    20    25    24    1
    21     6     5    2
    22    22    24    2
    23    22    23    1
    24     5     7    1
    25     5     8    1
    26     8     1    1
    27     2     1    2
    28     1     4    2
    29     1     3    1
