@<TRIPOS>MOLECULE
1m7g_ADP_B_1.pdb
 27 29 0 0 0
SMALL
GASTEIGER

@<TRIPOS>ATOM
      1  PB        34.7100   38.7690   35.3020 P.3   1304  ADP1304     0.5373
      2  O1B       33.8840   39.6610   34.4630 O.3   1304  ADP1304    -0.1143
      3  O2B       35.8090   38.0380   34.4560 O.2   1304  ADP1304    -0.2221
      4  O3B       35.3270   39.4800   36.4600 O.3   1304  ADP1304    -0.1143
      5  PA        33.9060   36.0250   36.1190 P.3   1304  ADP1304     0.2231
      6  O1A       33.8380   35.2800   34.8510 O.2   1304  ADP1304    -0.5169
      7  O2A       35.1490   35.7340   36.8990 O.3   1304  ADP1304    -0.4370
      8  O3A       33.7460   37.6350   35.8970 O.3   1304  ADP1304    -0.2261
      9  O5'       32.5670   35.6740   36.8410 O.3   1304  ADP1304    -0.3111
     10  C5'       32.3420   36.2870   38.1290 C.3   1304  ADP1304     0.1813
     11  C4'       31.4330   35.4160   38.9600 C.3   1304  ADP1304     0.1821
     12  O4'       30.1480   35.3250   38.3270 O.3   1304  ADP1304    -0.3135
     13  C3'       31.8720   33.9590   39.1460 C.3   1304  ADP1304     0.2184
     14  O3'       31.6260   33.4960   40.5010 O.3   1304  ADP1304    -0.2174
     15  C2'       31.0950   33.1870   38.1070 C.3   1304  ADP1304     0.2570
     16  O2'       31.0100   31.7730   38.3530 O.3   1304  ADP1304    -0.2130
     17  C1'       29.7760   33.9780   38.0500 C.3   1304  ADP1304     0.3186
     18  N9        29.2070   33.9190   36.7020 N.pl3 1304  ADP1304    -0.1439
     19  C8        29.7530   33.9440   35.4560 C.3   1304  ADP1304     0.3377
     20  N7        28.8120   33.8600   34.5520 N.2   1304  ADP1304    -0.2095
     21  C5        27.6370   33.7790   35.1720 C.2   1304  ADP1304     0.2526
     22  C6        26.2970   33.6650   34.7710 C.2   1304  ADP1304     0.4393
     23  N6        25.9770   33.6080   33.4630 N.pl3 1304  ADP1304     0.2180
     24  N1        25.3050   33.6050   35.7380 N.2   1304  ADP1304     0.0021
     25  C2        25.5610   33.6520   37.0720 C.3   1304  ADP1304     0.5254
     26  N3        26.8590   33.7590   37.4710 N.2   1304  ADP1304    -0.0055
     27  C4        27.8950   33.8220   36.5730 C.2   1304  ADP1304     0.3518
@<TRIPOS>BOND
     1    23    22    1
     2     3     1    2
     3     2     1    1
     4    20    21    2
     5    20    19    1
     6    22    21    1
     7    22    24    2
     8     6     5    2
     9    21    27    1
    10     1     8    1
    11     1     4    1
    12    19    18    1
    13    24    25    1
    14     8     5    1
    15     5     9    1
    16     5     7    1
    17    27    18    1
    18    27    26    2
    19    18    17    1
    20     9    10    1
    21    25    26    1
    22    17    15    1
    23    17    12    1
    24    15    16    1
    25    15    13    1
    26    10    11    1
    27    12    11    1
    28    11    13    1
    29    13    14    1
