@<TRIPOS>MOLECULE
1m7g_AV2_A_1.pdb
 30 33 0 0 0
SMALL
GASTEIGER

@<TRIPOS>ATOM
      1  PB        69.4070   41.2320   12.4330 P.3   1301  AV21301     0.0000
      2  O1B       70.3840   40.4410   13.2560 O.3   1301  AV21301     0.0000
      3  O2B       67.9360   40.7660   12.5210 O.2   1301  AV21301     0.0000
      4  O3B       69.5410   42.7310   12.6630 O.3   1301  AV21301     0.0000
      5  PA        69.1000   40.7910    9.5270 P.3   1301  AV21301     0.0000
      6  O1A       68.3190   39.5730    9.5090 O.3   1301  AV21301    -0.5000
      7  O2A       68.3920   42.0410    9.2510 O.2   1301  AV21301    -0.5000
      8  O3A       69.9030   40.9520   10.9230 O.3   1301  AV21301     0.0000
      9  O5'       70.2360   40.4790    8.5370 O.3   1301  AV21301     0.0000
     10  C5'       71.2410   41.4310    8.2020 C.3   1301  AV21301     0.0000
     11  C4'       71.8120   41.0650    6.8380 C.3   1301  AV21301     0.0000
     12  O4'       72.6550   39.8880    6.9000 O.3   1301  AV21301     0.0000
     13  C3'       70.8650   40.7720    5.7250 C.3   1301  AV21301     0.0000
     14  O3'       71.2110   41.5060    4.5240 O.3   1301  AV21301     0.0000
     15  C2'       70.9680   39.2980    5.4720 C.3   1301  AV21301     0.0000
     16  O2'       70.6110   39.0480    4.1050 O.3   1301  AV21301     0.0000
     17  C1'       72.3740   38.9810    5.8020 C.3   1301  AV21301     0.0000
     18  N9        72.5930   37.6460    6.2570 N.pl3 1301  AV21301     0.5000
     19  C8        71.9550   36.9420    7.2180 C.3   1301  AV21301     0.0000
     20  N7        72.4930   35.7380    7.3440 N.2   1301  AV21301     0.0000
     21  C5        73.4910   35.6470    6.4680 C.2   1301  AV21301     0.0000
     22  C6        74.4190   34.6630    6.1310 C.2   1301  AV21301     0.0000
     23  N6        74.4390   33.4670    6.7510 N.pl3 1301  AV21301     0.5000
     24  N1        75.3360   34.9270    5.1320 N.2   1301  AV21301     0.5000
     25  C2        75.3740   36.1260    4.4510 C.3   1301  AV21301     0.0000
     26  N3        74.5080   37.0820    4.7540 N.2   1301  AV21301     0.5000
     27  C4        73.5490   36.8880    5.7540 C.2   1301  AV21301     0.0000
     28  V         71.2310   40.4190    2.8510 V     1301  AV21301     0.0000
     29  O1V       72.7480   39.9910    2.4860 O.3   1301  AV21301     0.0000
     30  O2V       70.1850   40.0240    1.7140 O.3   1301  AV21301     0.0000
@<TRIPOS>BOND
     1    30    28    1
     2    29    28    1
     3    28    16    1
     4    28    14    1
     5    16    15    1
     6    25    26    1
     7    25    24    1
     8    14    13    1
     9    26    27    2
    10    24    22    2
    11    15    13    1
    12    15    17    1
    13    13    11    1
    14    27    18    1
    15    27    21    1
    16    17    18    1
    17    17    12    1
    18    22    21    1
    19    22    23    1
    20    18    19    1
    21    21    20    2
    22    11    12    1
    23    11    10    1
    24    19    20    1
    25    10     9    1
    26     9     5    1
    27     7     5    2
    28     6     5    1
    29     5     8    1
    30     8     1    1
    31     1     3    2
    32     1     4    1
    33     1     2    1
