@<TRIPOS>MOLECULE
1m7h_ADP_A_1.pdb
 27 29 0 0 0
SMALL
GASTEIGER

@<TRIPOS>ATOM
      1  PB        20.5180   50.6870   46.6960 P.3   1301  ADP1301     0.5373
      2  O1B       21.3690   51.4320   47.6370 O.3   1301  ADP1301    -0.1143
      3  O2B       20.7680   49.1210   46.7640 O.2   1301  ADP1301    -0.2221
      4  O3B       19.0580   51.0040   46.9190 O.3   1301  ADP1301    -0.1143
      5  PA        20.8890   50.3920   43.8510 P.3   1301  ADP1301     0.2231
      6  O1A       21.9650   49.3770   43.8130 O.3   1301  ADP1301    -0.4370
      7  O2A       19.5920   49.7860   43.5920 O.2   1301  ADP1301    -0.5169
      8  O3A       20.8970   51.1210   45.2390 O.3   1301  ADP1301    -0.2261
      9  O5'       21.3620   51.4970   42.9110 O.3   1301  ADP1301    -0.3111
     10  C5'       20.5190   52.6440   42.7000 C.3   1301  ADP1301     0.1813
     11  C4'       20.7560   53.1660   41.2850 C.3   1301  ADP1301     0.1821
     12  O4'       22.0130   53.7910   41.2130 O.3   1301  ADP1301    -0.3135
     13  C3'       20.8020   52.1450   40.1220 C.3   1301  ADP1301     0.2184
     14  O3'       20.1560   52.6890   38.9430 O.3   1301  ADP1301    -0.2174
     15  C2'       22.2870   51.8640   39.9110 C.3   1301  ADP1301     0.2570
     16  O2'       22.5850   51.2630   38.6550 O.3   1301  ADP1301    -0.2130
     17  C1'       22.8530   53.2520   40.1660 C.3   1301  ADP1301     0.3186
     18  N9        24.2490   53.2150   40.6420 N.pl3 1301  ADP1301    -0.1439
     19  C8        24.8590   52.5580   41.6520 C.3   1301  ADP1301     0.3377
     20  N7        26.1390   52.8800   41.6910 N.2   1301  ADP1301    -0.2095
     21  C5        26.3830   53.7250   40.7420 C.2   1301  ADP1301     0.2526
     22  C6        27.5130   54.4080   40.3000 C.2   1301  ADP1301     0.4393
     23  N6        28.6760   54.2310   40.9300 N.pl3 1301  ADP1301     0.2180
     24  N1        27.4250   55.2670   39.2130 N.2   1301  ADP1301     0.0021
     25  C2        26.2590   55.4820   38.5430 C.3   1301  ADP1301     0.5254
     26  N3        25.1450   54.8230   38.9690 N.2   1301  ADP1301    -0.0055
     27  C4        25.1580   53.9530   40.0390 C.2   1301  ADP1301     0.3518
@<TRIPOS>BOND
     1    25    26    1
     2    25    24    1
     3    16    15    1
     4    14    13    1
     5    26    27    2
     6    24    22    2
     7    15    13    1
     8    15    17    1
     9    27    18    1
    10    27    21    1
    11    13    11    1
    12    17    18    1
    13    17    12    1
    14    22    21    1
    15    22    23    1
    16    18    19    1
    17    21    20    2
    18    12    11    1
    19    11    10    1
    20    19    20    1
    21    10     9    1
    22     9     5    1
    23     7     5    2
    24     6     5    1
    25     5     8    1
    26     8     1    1
    27     1     3    2
    28     1     4    1
    29     1     2    1
