@<TRIPOS>MOLECULE
1m7h_ADX_B_1.pdb
 27 29 0 0 0
SMALL
GASTEIGER

@<TRIPOS>ATOM
      1  SB        14.7490   21.0610   68.7800 S.3   1303  ADX1303     0.0049
      2  O1B       15.2760   20.6670   67.4750 O.2   1303  ADX1303    -0.3449
      3  O2B       14.4310   22.4670   68.9320 O.2   1303  ADX1303    -0.3449
      4  O3B       13.6200   20.2540   69.1440 O.3   1303  ADX1303    -0.2679
      5  PA        17.3760   21.2190   69.9730 P.3   1303  ADX1303     0.2383
      6  O1A       18.2100   20.2110   69.3220 O.2   1303  ADX1303    -0.5161
      7  O2A       17.3720   22.5800   69.4230 O.3   1303  ADX1303    -0.4361
      8  O3A       15.8120   20.7100   69.9250 O.3   1303  ADX1303    -0.1945
      9  O5'       17.6420   21.2170   71.5520 O.3   1303  ADX1303    -0.3102
     10  C5'       17.6740   19.9340   72.2160 C.3   1303  ADX1303     0.1814
     11  C4'       18.7910   20.0140   73.2650 C.3   1303  ADX1303     0.1821
     12  O4'       18.3500   21.0370   74.3140 O.3   1303  ADX1303    -0.3135
     13  C3'       18.9510   18.6390   74.0610 C.3   1303  ADX1303     0.2184
     14  O3'       20.1000   17.9700   73.7380 O.3   1303  ADX1303    -0.2174
     15  C2'       18.9030   19.1330   75.5430 C.3   1303  ADX1303     0.2570
     16  O2'       20.4070   19.4900   75.9160 O.3   1303  ADX1303    -0.2130
     17  C1'       18.3470   20.4680   75.6780 C.3   1303  ADX1303     0.3186
     18  N9        16.9540   20.5360   76.1550 N.pl3 1303  ADX1303    -0.1439
     19  C8        16.4980   21.3410   77.1870 C.3   1303  ADX1303     0.3377
     20  N7        15.2090   21.2370   77.4370 N.2   1303  ADX1303    -0.2095
     21  C5        14.7340   20.3090   76.5330 C.2   1303  ADX1303     0.2526
     22  C6        13.4230   19.7410   76.2650 C.2   1303  ADX1303     0.4393
     23  N6        12.3700   20.1090   76.9690 N.pl3 1303  ADX1303     0.2180
     24  N1        13.3830   18.8130   75.2420 N.2   1303  ADX1303     0.0021
     25  C2        14.4410   18.4190   74.5070 C.3   1303  ADX1303     0.5254
     26  N3        15.7330   18.8920   74.6700 N.2   1303  ADX1303    -0.0055
     27  C4        15.7720   19.8410   75.7160 C.2   1303  ADX1303     0.3518
@<TRIPOS>BOND
     1     2     1    2
     2     1     3    2
     3     1     4    1
     4     1     8    1
     5     6     5    2
     6     7     5    1
     7     8     5    1
     8     5     9    1
     9     9    10    1
    10    10    11    1
    11    11    13    1
    12    11    12    1
    13    14    13    1
    14    13    15    1
    15    12    17    1
    16    25    26    1
    17    25    24    1
    18    26    27    2
    19    24    22    2
    20    15    17    1
    21    15    16    1
    22    17    18    1
    23    27    18    1
    24    27    21    1
    25    18    19    1
    26    22    21    1
    27    22    23    1
    28    21    20    2
    29    19    20    1
