@<TRIPOS>MOLECULE
1m7i_RAO_A_1.pdb
 12 12 0 0 0
SMALL
GASTEIGER

@<TRIPOS>ATOM
      1  C1        -6.2610   13.7550   34.4460 C.3   216  RAO216      0.2695
      2  O1        -5.7520   12.6740   33.6410 O.3   216  RAO216     -0.3259
      3  C7        -5.1210   11.6370   34.3910 C.3   216  RAO216      0.1769
      4  O2        -7.5110   15.9000   34.2660 O.3   216  RAO216     -0.2149
      5  C2        -7.1900   14.6560   33.6050 C.3   216  RAO216      0.2406
      6  C3        -8.4800   13.9110   33.2550 C.3   216  RAO216      0.2197
      7  O3        -9.3910   14.8100   32.6360 O.3   216  RAO216     -0.2174
      8  C4        -9.1350   13.3000   34.5090 C.3   216  RAO216      0.2118
      9  O4       -10.2390   12.4860   34.1330 O.3   216  RAO216     -0.2177
     10  C5        -8.1160   12.4750   35.3260 C.3   216  RAO216      0.1508
     11  O5        -6.9520   13.2820   35.6200 O.3   216  RAO216     -0.3284
     12  C6        -8.7080   11.9210   36.6200 C.3   216  RAO216      0.0350
@<TRIPOS>BOND
     1     7     6    1
     2     6     5    1
     3     6     8    1
     4     5     4    1
     5     5     1    1
     6     2     3    1
     7     2     1    1
     8     9     8    1
     9     1    11    1
    10     8    10    1
    11    10    11    1
    12    10    12    1
