@<TRIPOS>MOLECULE
1m7i_NAG_A_1.pdb
 14 14 0 0 0
SMALL
GASTEIGER

@<TRIPOS>ATOM
      1  C1        -6.3780   16.6640   34.7130 C.3   215  NAG215      0.1665
      2  C2        -6.6850   18.1640   34.6340 C.3   215  NAG215      0.1576
      3  C3        -5.4620   18.9640   35.1300 C.3   215  NAG215      0.2069
      4  C4        -5.0020   18.4860   36.5190 C.3   215  NAG215      0.2134
      5  C5        -4.8150   16.9580   36.5300 C.3   215  NAG215      0.1809
      6  C6        -4.4790   16.4250   37.9220 C.3   215  NAG215      0.2141
      7  C7        -8.1530   19.1010   32.9470 C.2   215  NAG215      0.2420
      8  C8        -8.3820   19.4050   31.4800 C.3   215  NAG215      0.0964
      9  N2        -6.9990   18.5080   33.2560 N.am  215  NAG215     -0.2019
     10  O3        -5.7400   20.3790   35.1590 O.3   215  NAG215     -0.2184
     11  O4        -3.7890   19.1340   36.8700 O.3   215  NAG215     -0.2176
     12  O5        -6.0070   16.3100   36.0500 O.3   215  NAG215     -0.3489
     13  O6        -4.6180   15.0100   37.9480 O.3   215  NAG215     -0.2176
     14  O7        -8.9910   19.4060   33.7920 O.2   215  NAG215     -0.2733
@<TRIPOS>BOND
     1     8     7    1
     2     7     9   am
     3     7    14    2
     4     9     2    1
     5     2     1    1
     6     2     3    1
     7     1    12    1
     8     3    10    1
     9     3     4    1
    10    12     5    1
    11     4     5    1
    12     4    11    1
    13     5     6    1
    14     6    13    1
