@<TRIPOS>MOLECULE
1m7i_RAM_A_1.pdb
 10 10 0 0 0
SMALL
GASTEIGER

@<TRIPOS>ATOM
      1  C1        -5.3990   21.0560   33.9300 C.3   214  RAM214      0.1776
      2  C2        -6.6270   21.7320   33.3170 C.3   214  RAM214      0.2141
      3  C3        -7.0500   22.9310   34.1590 C.3   214  RAM214      0.2172
      4  C4        -5.8660   23.8780   34.4160 C.3   214  RAM214      0.2116
      5  C5        -4.6560   23.1220   34.9620 C.3   214  RAM214      0.1483
      6  C6        -3.4630   24.0650   35.0560 C.3   214  RAM214      0.0349
      7  O2        -6.3570   22.1440   31.9870 O.3   214  RAM214     -0.2176
      8  O3        -8.1120   23.6510   33.4960 O.3   214  RAM214     -0.2175
      9  O4        -6.2500   24.8850   35.3310 O.3   214  RAM214     -0.2177
     10  O5        -4.3370   22.0220   34.0900 O.3   214  RAM214     -0.3508
@<TRIPOS>BOND
     1     7     2    1
     2     2     1    1
     3     2     3    1
     4     8     3    1
     5     1    10    1
     6    10     5    1
     7     3     4    1
     8     4     5    1
     9     4     9    1
    10     5     6    1
