@<TRIPOS>MOLECULE
1m7o_3PG_A_1.pdb
 11 10 0 0 0
SMALL
GASTEIGER

@<TRIPOS>ATOM
      1  C1         5.1460   14.8060   22.9850 C.2   5401  3PG5401     0.3972
      2  O1         5.6280   13.6090   23.3840 O.co2 5401  3PG5401    -0.2427
      3  O2         5.1380   15.7900   23.8870 O.co2 5401  3PG5401    -0.2427
      4  C2         4.6410   15.0510   21.6060 C.3   5401  3PG5401     0.2838
      5  O3         4.7880   13.8280   20.8720 O.3   5401  3PG5401    -0.2081
      6  C3         5.5160   16.1800   20.9470 C.3   5401  3PG5401     0.1983
      7  O1P        5.2570   17.4950   21.4380 O.3   5401  3PG5401    -0.2669
      8  P          6.2700   18.6010   20.6190 P.3   5401  3PG5401     0.5327
      9  O2P        5.9000   18.5050   18.9750 O.2   5401  3PG5401    -0.2224
     10  O3P        5.9830   20.1710   21.1600 O.3   5401  3PG5401    -0.1145
     11  O4P        7.9270   18.2770   20.8090 O.3   5401  3PG5401    -0.1145
@<TRIPOS>BOND
     1     9     8    2
     2     8    11    1
     3     8    10    1
     4     8     7    1
     5     5     4    1
     6     6     7    1
     7     6     4    1
     8     4     1    1
     9     1     2   ar
    10     1     3   ar
