@<TRIPOS>MOLECULE
1m7p_G3H_A_1.pdb
 10 9 0 0 0
SMALL
GASTEIGER

@<TRIPOS>ATOM
      1  O1         5.2980   14.0880   23.7920 O.2   5401  G3H5401    -0.2854
      2  C1         5.5680   14.5640   22.9740 C.2   5401  G3H5401     0.2426
      3  C2         5.2020   15.2270   21.7610 C.3   5401  G3H5401     0.2459
      4  O2         4.7680   14.7700   20.4550 O.3   5401  G3H5401    -0.2119
      5  C3         5.7240   16.7700   21.3440 C.3   5401  G3H5401     0.1946
      6  O1P        6.0160   17.4090   20.6180 O.3   5401  G3H5401    -0.2670
      7  O2P        6.6390   19.6130   19.5680 O.2   5401  G3H5401    -0.2224
      8  O3P        7.3730   19.0650   21.9580 O.3   5401  G3H5401    -0.1145
      9  O4P        8.3970   17.8500   20.0120 O.3   5401  G3H5401    -0.1145
     10  P          7.1740   18.5560   20.5350 P.3   5401  G3H5401     0.5327
@<TRIPOS>BOND
     1     7    10    2
     2     9    10    1
     3     4     3    1
     4    10     6    1
     5    10     8    1
     6     6     5    1
     7     5     3    1
     8     3     2    1
     9     2     1    2
