@<TRIPOS>MOLECULE
1m7q_DQO_A_1.pdb
 33 37 0 0 0
SMALL
GASTEIGER

@<TRIPOS>ATOM
      1  C1        43.9700   33.1090   31.4590 C.ar  501  DQO501      0.0178
      2  C2        43.1590   31.9130   31.3160 C.ar  501  DQO501      0.0026
      3  C3        43.8110   30.6620   31.0680 C.ar  501  DQO501      0.0144
      4  C4        45.2260   30.5790   30.9530 C.ar  501  DQO501      0.0492
      5  C5        46.0080   31.7440   31.0740 C.ar  501  DQO501      0.0301
      6  C6        45.4100   33.0490   31.3300 C.ar  501  DQO501      0.0658
      7  N9        45.9420   29.5640   30.7570 N.pl3 501  DQO501     -0.3045
      8  C10       41.6580   31.9160   31.4240 C.ar  501  DQO501      0.0275
      9  N11       46.1960   34.2930   31.4760 N.am  501  DQO501     -0.1927
     10  C12       45.5900   35.5440   31.7460 C.1   501  DQO501      0.2191
     11  N13       44.2620   35.5890   31.8680 N.2   501  DQO501     -0.1846
     12  C14       43.3460   34.4680   31.7410 C.3   501  DQO501      0.1667
     13  O18       46.2070   36.5930   31.8800 O.2   501  DQO501     -0.2057
     14  C19       47.3830   34.2240   31.3460 C.ar  501  DQO501      0.0876
     15  C20       41.0130   31.4150   32.5910 C.ar  501  DQO501      0.0045
     16  C21       39.5880   31.4310   32.7000 C.ar  501  DQO501      0.0298
     17  C22       38.8120   31.9600   31.6220 C.ar  501  DQO501      0.1424
     18  C23       39.4250   32.4610   30.4440 C.ar  501  DQO501      0.0592
     19  C24       40.8340   32.4370   30.3490 C.ar  501  DQO501      0.1423
     20  C28       48.3920   33.8600   32.3530 C.ar  501  DQO501      0.0731
     21  C29       49.7750   33.8300   32.0280 C.ar  501  DQO501      0.0127
     22  C30       50.2240   34.1480   30.7010 C.ar  501  DQO501      0.0018
     23  C31       49.2970   34.4980   29.6720 C.ar  501  DQO501      0.0127
     24  C32       47.9020   34.5410   29.9590 C.ar  501  DQO501      0.0731
     25  F36       41.3250   32.9390   29.1860 F     501  DQO501     -0.2041
     26  F37       37.4810   31.9890   31.7250 F     501  DQO501     -0.2041
     27 CL38       46.8400   34.9750   28.5960 Cl    501  DQO501     -0.0809
     28 CL39       47.9630   33.4370   33.9810 Cl    501  DQO501     -0.0809
     29  C40       46.1520   28.9520   29.4020 C.3   501  DQO501      0.1096
     30  C41       45.9120   27.4140   29.5260 C.3   501  DQO501      0.1101
     31  N42       46.6400   26.7970   30.6970 N.3   501  DQO501     -0.2144
     32  C43       46.3320   27.4280   32.0110 C.3   501  DQO501      0.1101
     33  C44       46.5970   28.9550   31.9860 C.3   501  DQO501      0.1096
@<TRIPOS>BOND
     1    27    24    1
     2    25    19    1
     3    29    30    1
     4    29     7    1
     5    30    31    1
     6    23    24   ar
     7    23    22   ar
     8    24    14   ar
     9    19    18   ar
    10    19     8   ar
    11    18    17   ar
    12    31    32    1
    13    22    21   ar
    14     7     4    1
    15     7    33    1
    16     4     3   ar
    17     4     5   ar
    18     3     2   ar
    19     5     6   ar
    20     2     8    1
    21     2     1   ar
    22     6     1   ar
    23     6     9    1
    24    14     9    1
    25    14    20   ar
    26     8    15   ar
    27     1    12    1
    28     9    10   am
    29    17    26    1
    30    17    16   ar
    31    12    11    1
    32    10    11    2
    33    10    13    2
    34    33    32    1
    35    21    20   ar
    36    20    28    1
    37    15    16   ar
