@<TRIPOS>MOLECULE
1m7s_HEM_A_1.pdb
 43 50 0 0 0
SMALL
GASTEIGER

@<TRIPOS>ATOM
      1 FE         19.4130  -13.7750   49.8570 Fe    600  HEM600      0.0000
      2  CHA       18.9170  -16.0050   47.2970 C.2   600  HEM600      0.0000
      3  CHB       17.0290  -15.3620   51.7070 C.2   600  HEM600      0.0000
      4  CHC       20.2700  -11.8830   52.5730 C.2   600  HEM600      0.0000
      5  CHD       21.4730  -11.8640   47.8620 C.2   600  HEM600      0.0000
      6  NA        18.2620  -15.4240   49.5910 N.2   600  HEM600      0.0000
      7  C1A       18.1430  -16.1280   48.4270 C.2   600  HEM600      0.0000
      8  C2A       17.0690  -17.1350   48.6010 C.2   600  HEM600      0.0000
      9  C3A       16.5510  -16.9570   49.8150 C.2   600  HEM600      0.0000
     10  C4A       17.2800  -15.8690   50.4450 C.2   600  HEM600      0.0000
     11  CMA       15.3930  -17.7040   50.4910 C.3   600  HEM600      0.0000
     12  CAA       16.7000  -18.1340   47.4910 C.3   600  HEM600      0.0000
     13  CBA       15.4180  -17.7550   46.6760 C.3   600  HEM600      0.0000
     14  CGA       15.0580  -18.9430   45.7440 C.2   600  HEM600      0.0000
     15  O1A       15.2190  -18.6750   44.5280 O.co2 600  HEM600      0.0000
     16  O2A       14.6240  -19.9320   46.3670 O.co2 600  HEM600      0.0000
     17  NB        18.8040  -13.6940   51.7830 N.ar  600  HEM600      0.0000
     18  C1B       17.7130  -14.3470   52.3200 C.ar  600  HEM600      0.0000
     19  C2B       17.3980  -13.7730   53.6220 C.ar  600  HEM600      0.0000
     20  C3B       18.3130  -12.8120   53.8680 C.ar  600  HEM600      0.0000
     21  C4B       19.1940  -12.7560   52.7340 C.ar  600  HEM600      0.0000
     22  CMB       16.2370  -14.2560   54.5020 C.3   600  HEM600      0.0000
     23  CAB       18.5070  -11.8980   55.0780 C.2   600  HEM600      0.0000
     24  CBB       17.5330  -11.5420   55.8930 C.2   600  HEM600      0.0000
     25  NC        20.7010  -12.2590   50.1950 N.2   600  HEM600      0.0000
     26  C1C       20.7810  -11.5180   51.3540 C.2   600  HEM600      0.0000
     27  C2C       21.5250  -10.3070   51.0950 C.2   600  HEM600      0.0000
     28  C3C       21.8350  -10.2850   49.7920 C.2   600  HEM600      0.0000
     29  C4C       21.3340  -11.5150   49.2160 C.2   600  HEM600      0.0000
     30  CMC       21.8370   -9.1910   52.1280 C.3   600  HEM600      0.0000
     31  CAC       22.5980   -9.2380   48.9570 C.2   600  HEM600      0.0000
     32  CBC       22.4720   -7.9100   49.1270 C.2   600  HEM600      0.0000
     33  ND        20.0540  -13.9120   47.9560 N.ar  600  HEM600      0.0000
     34  C1D       20.9280  -13.0420   47.3360 C.ar  600  HEM600      0.0000
     35  C2D       21.1260  -13.4940   45.9690 C.ar  600  HEM600      0.0000
     36  C3D       20.4310  -14.6220   45.8060 C.ar  600  HEM600      0.0000
     37  C4D       19.7770  -14.9130   47.0630 C.ar  600  HEM600      0.0000
     38  CMD       22.0190  -12.7300   44.9760 C.3   600  HEM600      0.0000
     39  CAD       20.2990  -15.4970   44.5260 C.3   600  HEM600      0.0000
     40  CBD       18.9750  -15.1050   43.7750 C.3   600  HEM600      0.0000
     41  CGD       18.8340  -15.7490   42.4080 C.2   600  HEM600      0.0000
     42  O1D       17.6370  -15.8660   41.9680 O.co2 600  HEM600      0.0000
     43  O2D       19.8200  -16.1180   41.7240 O.co2 600  HEM600      0.0000
@<TRIPOS>BOND
     1    43    41   ar
     2    42    41   ar
     3    41    40    1
     4    40    39    1
     5    39    36    1
     6    15    14   ar
     7    38    35    1
     8    14    16   ar
     9    14    13    1
    10    36    35   ar
    11    36    37   ar
    12    35    34   ar
    13    13    12    1
    14    37     2    2
    15    37    33   ar
    16     2     7    1
    17    34     5    2
    18    34    33   ar
    19    12     8    1
    20     5    29    1
    21    33     1    1
    22     7     8    1
    23     7     6    2
    24     8     9    2
    25    31    32    2
    26    31    28    1
    27    29    28    1
    28    29    25    2
    29     6     1    1
    30     6    10    1
    31    28    27    2
    32     9    10    1
    33     9    11    1
    34     1    25    1
    35     1    17    1
    36    25    26    1
    37    10     3    2
    38    27    26    1
    39    27    30    1
    40    26     4    2
    41     3    18    1
    42    17    18   ar
    43    17    21   ar
    44    18    19   ar
    45     4    21    1
    46    21    20   ar
    47    19    20   ar
    48    19    22    1
    49    20    23    1
    50    23    24    2
