@<TRIPOS>MOLECULE
1m7v_ARG_A_1.pdb
 12 11 0 0 0
SMALL
GASTEIGER

@<TRIPOS>ATOM
      1  N          6.5460   32.3420    4.9590 N.3   2000  ARG2000    -0.1208
      2  CA         7.2290   31.1870    4.9270 C.3   2000  ARG2000     0.1944
      3  C          7.8720   31.0250    3.5230 C.2   2000  ARG2000     0.3819
      4  O          8.5630   30.0040    3.2980 O.co2 2000  ARG2000    -0.2441
      5  CB         6.3160   29.9790    5.1980 C.3   2000  ARG2000     0.0343
      6  CG         5.5920   30.0150    6.5570 C.3   2000  ARG2000     0.0490
      7  CD         4.3930   29.0400    6.5770 C.3   2000  ARG2000     0.2205
      8  NE         3.5320   29.2400    5.5650 N.pl3 2000  ARG2000    -0.0865
      9  CZ         2.3130   28.4880    5.3090 C.cat 2000  ARG2000     0.5346
     10  NH1        1.9400   27.4940    6.1000 N.pl3 2000  ARG2000     0.1354
     11  NH2        1.5730   28.8060    4.2530 N.pl3 2000  ARG2000     0.1354
     12  OXT        7.6720   31.9400    2.6800 O.co2 2000  ARG2000    -0.2441
@<TRIPOS>BOND
     1    12     3   ar
     2     4     3   ar
     3     3     2    1
     4    11     9    1
     5     2     1    1
     6     2     5    1
     7     5     6    1
     8     9     8    2
     9     9    10    1
    10     8     7    1
    11     6     7    1
