@<TRIPOS>MOLECULE
1m7v_HEM_A_1.pdb
 43 50 0 0 0
SMALL
GASTEIGER

@<TRIPOS>ATOM
      1 FE         -0.3470   29.0470    8.8800 Fe    901  HEM901      0.0000
      2  CHA        1.7910   31.5590    9.6980 C.2   901  HEM901      0.0000
      3  CHB       -0.8900   30.5670    5.8440 C.2   901  HEM901      0.0000
      4  CHC       -1.3710   26.1630    7.5300 C.2   901  HEM901      0.0000
      5  CHD        0.5600   27.4150   11.6990 C.2   901  HEM901      0.0000
      6  NA         0.3300   30.7560    7.9470 N.ar  901  HEM901      0.0000
      7  C1A        1.2100   31.6750    8.4450 C.ar  901  HEM901      0.0000
      8  C2A        1.4070   32.7700    7.5090 C.ar  901  HEM901      0.0000
      9  C3A        0.5770   32.5150    6.4450 C.ar  901  HEM901      0.0000
     10  C4A       -0.0700   31.2510    6.7280 C.ar  901  HEM901      0.0000
     11  CMA        0.3440   33.4170    5.2220 C.3   901  HEM901      0.0000
     12  CAA        2.4410   33.9050    7.5860 C.3   901  HEM901      0.0000
     13  CBA        3.8030   33.3380    7.1590 C.3   901  HEM901      0.0000
     14  CGA        4.8970   34.3680    7.1350 C.2   901  HEM901      0.0000
     15  O1A        6.0670   34.0010    7.3600 O.co2 901  HEM901      0.0000
     16  O2A        4.5960   35.5460    6.8840 O.co2 901  HEM901      0.0000
     17  NB        -1.0960   28.4720    7.0150 N.2   901  HEM901      0.0000
     18  C1B       -1.3940   29.2800    5.9640 C.2   901  HEM901      0.0000
     19  C2B       -2.1530   28.5600    4.9270 C.2   901  HEM901      0.0000
     20  C3B       -2.2700   27.2670    5.3780 C.2   901  HEM901      0.0000
     21  C4B       -1.5780   27.2460    6.6880 C.2   901  HEM901      0.0000
     22  CMB       -2.7680   29.2000    3.6580 C.3   901  HEM901      0.0000
     23  CAB       -2.9080   26.2520    4.6660 C.2   901  HEM901      0.0000
     24  CBB       -3.8170   25.3220    5.1140 C.2   901  HEM901      0.0000
     25  NC        -0.3450   27.0880    9.4810 N.ar  901  HEM901      0.0000
     26  C1C       -0.7990   26.0280    8.7830 C.ar  901  HEM901      0.0000
     27  C2C       -0.7470   24.8030    9.5390 C.ar  901  HEM901      0.0000
     28  C3C       -0.3100   25.1600   10.8100 C.ar  901  HEM901      0.0000
     29  C4C       -0.0470   26.6110   10.7220 C.ar  901  HEM901      0.0000
     30  CMC       -1.0690   23.4240    8.9320 C.3   901  HEM901      0.0000
     31  CAC       -0.1770   24.4010   12.0100 C.3   901  HEM901      0.0000
     32  CBC       -0.4540   23.0690   12.2980 C.3   901  HEM901      0.0000
     33  ND         0.9080   29.4400   10.4560 N.2   901  HEM901      0.0000
     34  C1D        1.0170   28.7120   11.6010 C.2   901  HEM901      0.0000
     35  C2D        1.8580   29.3940   12.5880 C.2   901  HEM901      0.0000
     36  C3D        2.2740   30.5300   11.9670 C.2   901  HEM901      0.0000
     37  C4D        1.6660   30.5510   10.6540 C.2   901  HEM901      0.0000
     38  CMD        2.2200   28.9190   14.0090 C.3   901  HEM901      0.0000
     39  CAD        3.3050   31.5330   12.4670 C.3   901  HEM901      0.0000
     40  CBD        4.7160   31.1860   12.0000 C.3   901  HEM901      0.0000
     41  CGD        5.7550   32.1870   12.4520 C.2   901  HEM901      0.0000
     42  O1D        6.8120   32.2800   11.7920 O.co2 901  HEM901      0.0000
     43  O2D        5.5230   32.8790   13.4660 O.co2 901  HEM901      0.0000
@<TRIPOS>BOND
     1    22    19    1
     2    23    24    2
     3    23    20    1
     4    19    20    2
     5    19    18    1
     6    11     9    1
     7    20    21    1
     8     3    18    1
     9     3    10    2
    10    18    17    2
    11     9    10   ar
    12     9     8   ar
    13    21    17    1
    14    21     4    2
    15    10     6   ar
    16    16    14   ar
    17    17     1    1
    18    14    13    1
    19    14    15   ar
    20    13    12    1
    21     8    12    1
    22     8     7   ar
    23     4    26    1
    24     6     7   ar
    25     6     1    1
    26     7     2    2
    27    26    25   ar
    28    26    27   ar
    29     1    25    1
    30     1    33    1
    31    30    27    1
    32    25    29   ar
    33    27    28   ar
    34     2    37    1
    35    33    37    2
    36    33    34    1
    37    37    36    1
    38    29    28   ar
    39    29     5    1
    40    28    31    1
    41    34     5    2
    42    34    35    1
    43    42    41   ar
    44    36    39    1
    45    36    35    2
    46    40    41    1
    47    40    39    1
    48    31    32    1
    49    41    43   ar
    50    35    38    1
