@<TRIPOS>MOLECULE
1m7v_THG_A_1.pdb
 32 34 0 0 0
SMALL
GASTEIGER

@<TRIPOS>ATOM
      1  N3         4.8790   37.7800    7.7750 N.2   1999  THG1999    -0.2466
      2  C2         3.6690   38.4390    7.7430 C.1   1999  THG1999     0.2609
      3  N1         3.5720   39.7090    8.2550 N.2   1999  THG1999    -0.2672
      4  C8A        4.6340   40.3380    8.8030 C.1   1999  THG1999     0.1401
      5  C4A        5.9120   39.6480    8.8400 C.2   1999  THG1999     0.2988
      6  C4         5.9930   38.3510    8.3100 C.1   1999  THG1999     0.2569
      7  N8         4.4940   41.6040    9.3050 N.2   1999  THG1999    -0.1992
      8  C7         5.6380   42.2500    9.8270 C.3   1999  THG1999     0.1931
      9  C6         6.8550   41.4670   10.1450 C.2   1999  THG1999     0.1356
     10  N5         6.9780   40.2490    9.3750 N.2   1999  THG1999    -0.3839
     11  C9         8.1350   42.2570   10.3500 C.3   1999  THG1999     0.1683
     12  N10        8.4310   42.2800   11.8410 N.pl3 1999  THG1999    -0.2303
     13  C4'        7.6560   42.9030   12.7350 C.ar  1999  THG1999     0.0658
     14  C3'        7.3450   44.2650   12.5440 C.ar  1999  THG1999     0.0162
     15  C2'        6.5300   44.9220   13.4780 C.ar  1999  THG1999     0.0059
     16  C1'        6.0030   44.2470   14.6250 C.ar  1999  THG1999     0.0551
     17  C6'        6.3150   42.8680   14.8100 C.ar  1999  THG1999     0.0059
     18  C5'        7.1460   42.1960   13.8600 C.ar  1999  THG1999     0.0162
     19  C11        5.2390   44.9630   15.4910 C.2   1999  THG1999     0.2652
     20  N          5.0720   46.2620   15.2090 N.am  1999  THG1999    -0.1918
     21  CA         4.4110   47.3950   15.8210 C.3   1999  THG1999     0.1986
     22  C          5.4400   48.1660   16.4200 C.2   1999  THG1999     0.3842
     23  OX2        5.7950   49.1410   15.8560 O.co2 1999  THG1999    -0.2437
     24  OX1        5.9280   47.8650   17.5270 O.co2 1999  THG1999    -0.2437
     25  CB         3.2090   47.2840   16.6750 C.3   1999  THG1999     0.0451
     26  CG         2.6290   48.7640   16.7380 C.3   1999  THG1999     0.1164
     27  CD         1.5980   49.0580   17.3850 C.2   1999  THG1999     0.3649
     28  OE1        1.0860   48.2640   18.1790 O.co2 1999  THG1999    -0.2457
     29  OE2        1.1020   50.1990   17.1960 O.co2 1999  THG1999    -0.2457
     30  O11        4.7620   44.4550   16.4980 O.2   1999  THG1999    -0.2684
     31  O4         7.0610   37.7380    8.3250 O.2   1999  THG1999    -0.2052
     32  N2         2.5950   37.8300    7.2060 N.pl3 1999  THG1999    -0.0220
@<TRIPOS>BOND
     1    32     2    1
     2     2     1    2
     3     2     3    2
     4     1     6    2
     5     3     4    2
     6     6    31    2
     7     6     5    1
     8     4     5    1
     9     4     7    2
    10     5    10    2
    11     7     8    1
    12    10     9    2
    13     8     9    1
    14     9    11    1
    15    11    12    1
    16    12    13    1
    17    14    13   ar
    18    14    15   ar
    19    13    18   ar
    20    15    16   ar
    21    18    17   ar
    22    16    17   ar
    23    16    19    1
    24    20    19   am
    25    20    21    1
    26    19    30    2
    27    21    22    1
    28    21    25    1
    29    23    22   ar
    30    22    24   ar
    31    25    26    1
    32    26    27    1
    33    29    27   ar
    34    27    28   ar
