@<TRIPOS>MOLECULE
1m7y_PPG_A_1.pdb
 26 26 0 0 0
SMALL
GASTEIGER

@<TRIPOS>ATOM
      1  N1        23.2370    2.2760   18.8790 N.ar  600  PPG600     -0.2452
      2  C2        22.0730    2.0290   18.1400 C.ar  600  PPG600      0.0978
      3  C2A       22.0480    2.6300   16.7730 C.3   600  PPG600      0.0555
      4  C3        21.0520    1.2450   18.7510 C.ar  600  PPG600      0.2067
      5  O3        19.9540    0.9980   18.0770 O.3   600  PPG600     -0.2856
      6  C4        21.2870    0.7490   20.1240 C.ar  600  PPG600      0.0421
      7  C4A       20.2070   -0.1270   20.8680 C.3   600  PPG600      0.1551
      8  C5        22.5640    1.0870   20.7910 C.ar  600  PPG600      0.0280
      9  C6        23.5040    1.8410   20.1460 C.ar  600  PPG600      0.0965
     10  C5A       22.7960    0.5630   22.2090 C.3   600  PPG600      0.1816
     11  OP4       23.1110   -0.8190   22.1390 O.3   600  PPG600     -0.2653
     12  P         24.0800   -1.5320   23.2440 P.3   600  PPG600      0.5329
     13  OP1       25.2680   -1.9890   22.4650 O.2   600  PPG600     -0.2224
     14  OP2       23.3690   -2.6690   23.8070 O.3   600  PPG600     -0.1145
     15  OP3       24.4090   -0.5470   24.2940 O.3   600  PPG600     -0.1145
     16  N4A       18.8790    0.0800   20.3520 N.2   600  PPG600     -0.2589
     17  CAI       17.7230   -0.0800   21.0240 C.2   600  PPG600      0.1592
     18  CBC       16.5550    0.0900   20.2560 C.2   600  PPG600      0.4048
     19  O2B       16.6430    0.7530   19.1500 O.co2 600  PPG600     -0.2389
     20  O3B       15.4000   -0.4010   20.6440 O.co2 600  PPG600     -0.2389
     21  CBI       17.7250   -0.3570   22.4510 C.2   600  PPG600      0.0654
     22  CGI       16.8160   -1.1250   23.0540 C.2   600  PPG600      0.1740
     23  OET       17.0180   -1.3310   24.4750 O.2   600  PPG600     -0.4707
     24  CEI       15.7600   -1.4200   25.1710 C.3   600  PPG600      0.2260
     25  CFI       15.5090   -2.8490   25.6690 C.3   600  PPG600      0.1565
     26  NI        15.3360   -3.7370   24.5200 N.3   600  PPG600     -0.1273
@<TRIPOS>BOND
     1     3     2    1
     2     5     4    1
     3     2     4   ar
     4     2     1   ar
     5     4     6   ar
     6     1     9   ar
     7    19    18   ar
     8     6     8   ar
     9     6     7    1
    10     9     8   ar
    11    18    20   ar
    12    18    17    1
    13    16     7    1
    14    16    17    2
    15     8    10    1
    16    17    21    1
    17    11    10    1
    18    11    12    1
    19    21    22    2
    20    13    12    2
    21    22    23    1
    22    12    14    1
    23    12    15    1
    24    23    24    1
    25    26    25    1
    26    24    25    1
