@<TRIPOS>MOLECULE
1m7z_HEM_A_1.pdb
 43 50 0 0 0
SMALL
GASTEIGER

@<TRIPOS>ATOM
      1 FE         -0.3190   29.2180    8.8750 Fe    901  HEM901      0.0000
      2  CHA        1.8010   31.7110    9.7120 C.2   901  HEM901      0.0000
      3  CHB       -0.8810   30.7050    5.8520 C.2   901  HEM901      0.0000
      4  CHC       -1.4070   26.3370    7.5680 C.2   901  HEM901      0.0000
      5  CHD        0.6000   27.5760   11.7190 C.2   901  HEM901      0.0000
      6  NA         0.3500   30.9060    7.9430 N.ar  901  HEM901      0.0000
      7  C1A        1.2130   31.8270    8.4570 C.ar  901  HEM901      0.0000
      8  C2A        1.4030   32.9340    7.5250 C.ar  901  HEM901      0.0000
      9  C3A        0.5810   32.6590    6.4470 C.ar  901  HEM901      0.0000
     10  C4A       -0.0510   31.3910    6.7270 C.ar  901  HEM901      0.0000
     11  CMA        0.3740   33.5150    5.1960 C.3   901  HEM901      0.0000
     12  CAA        2.4290   34.0660    7.6600 C.3   901  HEM901      0.0000
     13  CBA        3.7300   33.5600    7.0320 C.3   901  HEM901      0.0000
     14  CGA        4.8740   34.5330    7.1220 C.2   901  HEM901      0.0000
     15  O1A        6.0240   34.0860    7.2880 O.co2 901  HEM901      0.0000
     16  O2A        4.6330   35.7450    7.0190 O.co2 901  HEM901      0.0000
     17  NB        -1.1310   28.6440    7.0460 N.2   901  HEM901      0.0000
     18  C1B       -1.4060   29.4330    5.9730 C.2   901  HEM901      0.0000
     19  C2B       -2.1660   28.7140    4.9360 C.2   901  HEM901      0.0000
     20  C3B       -2.3000   27.4440    5.4180 C.2   901  HEM901      0.0000
     21  C4B       -1.6240   27.4230    6.7310 C.2   901  HEM901      0.0000
     22  CMB       -2.7960   29.3310    3.6620 C.3   901  HEM901      0.0000
     23  CAB       -2.9550   26.4160    4.7530 C.2   901  HEM901      0.0000
     24  CBB       -4.0530   25.7440    5.1980 C.2   901  HEM901      0.0000
     25  NC        -0.3170   27.2560    9.5090 N.ar  901  HEM901      0.0000
     26  C1C       -0.8000   26.2050    8.8170 C.ar  901  HEM901      0.0000
     27  C2C       -0.7740   24.9840    9.5850 C.ar  901  HEM901      0.0000
     28  C3C       -0.3270   25.3300   10.8440 C.ar  901  HEM901      0.0000
     29  C4C       -0.0250   26.7740   10.7480 C.ar  901  HEM901      0.0000
     30  CMC       -1.0910   23.6090    8.9650 C.3   901  HEM901      0.0000
     31  CAC       -0.1940   24.5810   12.0410 C.3   901  HEM901      0.0000
     32  CBC       -0.4680   23.2540   12.3510 C.3   901  HEM901      0.0000
     33  ND         0.9350   29.6160   10.4850 N.2   901  HEM901      0.0000
     34  C1D        1.0650   28.8780   11.6150 C.2   901  HEM901      0.0000
     35  C2D        1.9270   29.5410   12.5720 C.2   901  HEM901      0.0000
     36  C3D        2.3300   30.6670   11.9600 C.2   901  HEM901      0.0000
     37  C4D        1.6920   30.7120   10.6690 C.2   901  HEM901      0.0000
     38  CMD        2.2930   29.0780   13.9860 C.3   901  HEM901      0.0000
     39  CAD        3.3720   31.6500   12.4720 C.3   901  HEM901      0.0000
     40  CBD        4.7820   31.3670   11.9660 C.3   901  HEM901      0.0000
     41  CGD        5.8000   32.3530   12.4920 C.2   901  HEM901      0.0000
     42  O1D        6.8490   32.5110   11.8410 O.co2 901  HEM901      0.0000
     43  O2D        5.5590   32.9780   13.5470 O.co2 901  HEM901      0.0000
@<TRIPOS>BOND
     1    22    19    1
     2    23    24    2
     3    23    20    1
     4    19    20    2
     5    19    18    1
     6    11     9    1
     7    20    21    1
     8     3    18    1
     9     3    10    2
    10    18    17    2
    11     9    10   ar
    12     9     8   ar
    13    10     6   ar
    14    21    17    1
    15    21     4    2
    16    16    14   ar
    17    13    14    1
    18    13    12    1
    19    17     1    1
    20    14    15   ar
    21     8    12    1
    22     8     7   ar
    23     4    26    1
    24     6     7   ar
    25     6     1    1
    26     7     2    2
    27    26    25   ar
    28    26    27   ar
    29     1    25    1
    30     1    33    1
    31    30    27    1
    32    25    29   ar
    33    27    28   ar
    34     2    37    1
    35    33    37    2
    36    33    34    1
    37    37    36    1
    38    29    28   ar
    39    29     5    1
    40    28    31    1
    41    34     5    2
    42    34    35    1
    43    42    41   ar
    44    36    39    1
    45    36    35    2
    46    40    39    1
    47    40    41    1
    48    31    32    1
    49    41    43   ar
    50    35    38    1
