@<TRIPOS>MOLECULE
1m7z_THG_A_1.pdb
 32 34 0 0 0
SMALL
GASTEIGER

@<TRIPOS>ATOM
      1  N3         5.0760   38.0570    7.8480 N.2   1999  THG1999    -0.2466
      2  C2         3.8330   38.6570    7.8660 C.1   1999  THG1999     0.2609
      3  N1         3.6810   39.8950    8.4190 N.2   1999  THG1999    -0.2672
      4  C8A        4.7270   40.5700    8.9560 C.1   1999  THG1999     0.1401
      5  C4A        6.0430   39.9550    8.9390 C.2   1999  THG1999     0.2988
      6  C4         6.1680   38.6670    8.3660 C.1   1999  THG1999     0.2569
      7  N8         4.5210   41.8040    9.4890 N.2   1999  THG1999    -0.1992
      8  C7         5.6400   42.5160    9.9340 C.3   1999  THG1999     0.1931
      9  C6         6.9560   41.8560   10.1530 C.2   1999  THG1999     0.1356
     10  N5         7.1330   40.5710    9.4580 N.2   1999  THG1999    -0.3839
     11  C9         8.1610   42.8040   10.0300 C.3   1999  THG1999     0.1683
     12  N10        8.7200   43.1970   11.3980 N.pl3 1999  THG1999    -0.2303
     13  C4'        8.0060   43.6790   12.4420 C.ar  1999  THG1999     0.0658
     14  C3'        7.0790   44.7490   12.2700 C.ar  1999  THG1999     0.0162
     15  C2'        6.3320   45.2300   13.3720 C.ar  1999  THG1999     0.0059
     16  C1'        6.4930   44.6610   14.6690 C.ar  1999  THG1999     0.0551
     17  C6'        7.4260   43.5970   14.8430 C.ar  1999  THG1999     0.0059
     18  C5'        8.1770   43.1070   13.7350 C.ar  1999  THG1999     0.0162
     19  C11        5.7770   45.1390   15.7100 C.2   1999  THG1999     0.2652
     20  N          4.8770   46.1620   15.4920 N.am  1999  THG1999    -0.1918
     21  CA         4.0000   46.8490   16.4790 C.3   1999  THG1999     0.1986
     22  C          4.8500   47.9220   17.1580 C.2   1999  THG1999     0.3842
     23  OX2        5.4270   48.7660   16.4640 O.co2 1999  THG1999    -0.2437
     24  OX1        4.9760   47.9600   18.3970 O.co2 1999  THG1999    -0.2437
     25  CB         3.2900   45.8920   17.4400 C.3   1999  THG1999     0.0451
     26  CG         2.0150   46.4370   18.0360 C.3   1999  THG1999     0.1164
     27  CD         1.4620   45.6450   18.8200 C.2   1999  THG1999     0.3649
     28  OE1        1.5810   45.8130   20.0400 O.co2 1999  THG1999    -0.2457
     29  OE2        0.7830   44.6950   18.3850 O.co2 1999  THG1999    -0.2457
     30  O11        5.9320   44.6610   16.8430 O.2   1999  THG1999    -0.2684
     31  O4         7.2660   38.0980    8.3260 O.2   1999  THG1999    -0.2052
     32  N2         2.7730   38.0200    7.3500 N.pl3 1999  THG1999    -0.0220
@<TRIPOS>BOND
     1    32     2    1
     2     1     2    2
     3     1     6    2
     4     2     3    2
     5    31     6    2
     6     6     5    1
     7     3     4    2
     8     5     4    1
     9     5    10    2
    10     4     7    2
    11    10     9    2
    12     7     8    1
    13     8     9    1
    14    11     9    1
    15    11    12    1
    16    12    13    1
    17    14    13   ar
    18    14    15   ar
    19    13    18   ar
    20    15    16   ar
    21    18    17   ar
    22    16    17   ar
    23    16    19    1
    24    20    19   am
    25    20    21    1
    26    19    30    2
    27    23    22   ar
    28    21    22    1
    29    21    25    1
    30    22    24   ar
    31    25    26    1
    32    26    27    1
    33    29    27   ar
    34    27    28   ar
