@<TRIPOS>MOLECULE
1m7z_HAR_A_1.pdb
 13 12 0 0 0
SMALL
GASTEIGER

@<TRIPOS>ATOM
      1  N          6.7560   32.6250    5.0260 N.3   909  HAR909     -0.1208
      2  CA         7.4280   31.3300    5.0350 C.3   909  HAR909      0.1948
      3  C          7.9770   31.0730    3.6330 C.2   909  HAR909      0.3819
      4  O          7.7450   31.9220    2.7480 O.co2 909  HAR909     -0.2441
      5  CB         6.4460   30.2050    5.3660 C.3   909  HAR909      0.0385
      6  CG         5.7000   30.3580    6.6660 C.3   909  HAR909      0.0690
      7  CD         4.4670   29.4890    6.5610 C.2   909  HAR909      0.1664
      8  NE         3.3700   29.3780    5.6060 N.pl3 909  HAR909     -0.0628
      9  CZ         2.2390   28.7310    5.3480 C.2   909  HAR909      0.5328
     10  NH1        2.1000   27.8810    6.3610 N.4   909  HAR909      0.1137
     11  NH2        1.7100   29.1600    4.2090 N.pl3 909  HAR909      0.1352
     12  OH1        1.3100   27.0430    5.7020 O.3   909  HAR909      0.0294
     13  OXT        8.6050   30.0130    3.4190 O.co2 909  HAR909     -0.2441
@<TRIPOS>BOND
     1     4     3   ar
     2    13     3   ar
     3     3     2    1
     4    11     9    2
     5     1     2    1
     6     2     5    1
     7     9     8    1
     8     9    10    1
     9     5     6    1
    10     8     7    2
    11    12    10    1
    12     7     6    1
