@<TRIPOS>MOLECULE
1m83_ATP_A_1.pdb
 31 33 0 0 0
SMALL
GASTEIGER

@<TRIPOS>ATOM
      1  PG        48.2440   21.5960   35.8000 P.3   400  ATP400      0.5373
      2  O1G       48.1050   22.1860   37.1570 O.3   400  ATP400     -0.1143
      3  O2G       47.9310   20.1590   35.8950 O.3   400  ATP400     -0.1143
      4  O3G       47.3560   22.2910   34.8250 O.2   400  ATP400     -0.2221
      5  PB        50.6660   23.0440   35.0130 P.3   400  ATP400      0.2277
      6  O1B       50.2430   24.3380   35.5960 O.3   400  ATP400     -0.4368
      7  O2B       50.7530   23.2190   33.5540 O.2   400  ATP400     -0.5168
      8  O3B       49.7530   21.7920   35.3010 O.3   400  ATP400     -0.2258
      9  PA        52.6680   22.2360   37.0620 P.3   400  ATP400      0.2189
     10  O1A       51.6380   22.7110   38.0080 O.3   400  ATP400     -0.4371
     11  O2A       53.0180   20.8190   37.0900 O.2   400  ATP400     -0.5170
     12  O3A       52.1230   22.6480   35.5880 O.3   400  ATP400     -0.2700
     13  O5'       53.9570   23.0880   37.3040 O.3   400  ATP400     -0.3112
     14  C5'       55.3050   22.7300   36.8240 C.3   400  ATP400      0.1813
     15  C4'       56.1220   23.9460   36.7050 C.3   400  ATP400      0.1821
     16  O4'       55.7620   24.7550   35.5660 O.3   400  ATP400     -0.3135
     17  C3'       56.1940   24.9460   37.8820 C.3   400  ATP400      0.2184
     18  O3'       57.5380   25.3860   38.0820 O.3   400  ATP400     -0.2174
     19  C2'       55.2690   26.0210   37.3250 C.3   400  ATP400      0.2570
     20  O2'       55.2190   27.2780   37.9580 O.3   400  ATP400     -0.2130
     21  C1'       55.7050   26.1090   35.8530 C.3   400  ATP400      0.3186
     22  N9        54.6120   26.6660   34.9420 N.pl3 400  ATP400     -0.1439
     23  C8        53.3090   26.1950   34.8310 C.3   400  ATP400      0.3377
     24  N7        52.5690   26.8990   33.9250 N.2   400  ATP400     -0.2095
     25  C5        53.4490   27.8390   33.4470 C.2   400  ATP400      0.2526
     26  C6        53.2620   28.8830   32.4530 C.2   400  ATP400      0.4393
     27  N6        52.1300   29.1040   31.7920 N.pl3 400  ATP400      0.2180
     28  N1        54.3760   29.6860   32.1980 N.2   400  ATP400      0.0021
     29  C2        55.6240   29.5280   32.8410 C.3   400  ATP400      0.5254
     30  N3        55.7850   28.5310   33.7920 N.2   400  ATP400     -0.0055
     31  C4        54.7160   27.7080   34.0740 C.2   400  ATP400      0.3518
@<TRIPOS>BOND
     1    27    26    1
     2    28    26    2
     3    28    29    1
     4    26    25    1
     5    29    30    1
     6    25    24    2
     7    25    31    1
     8     7     5    2
     9    30    31    2
    10    24    23    1
    11    31    22    1
    12     4     1    2
    13    23    22    1
    14    22    21    1
    15     5     8    1
    16     5    12    1
    17     5     6    1
    18     8     1    1
    19    16    21    1
    20    16    15    1
    21    12     9    1
    22     1     3    1
    23     1     2    1
    24    21    19    1
    25    15    14    1
    26    15    17    1
    27    14    13    1
    28     9    11    2
    29     9    13    1
    30     9    10    1
    31    19    17    1
    32    19    20    1
    33    17    18    1
