@<TRIPOS>MOLECULE
1m8d_H4B_A_1.pdb
 17 18 0 0 0
SMALL
GASTEIGER

@<TRIPOS>ATOM
      1  N1       113.5230  112.0610   32.4410 N.2   902  H4B902     -0.2672
      2  C2       114.8020  112.4230   32.6220 C.1   902  H4B902      0.2609
      3  N2       115.4850  112.9270   31.5930 N.pl3 902  H4B902     -0.0220
      4  N3       115.3880  112.3530   33.8220 N.2   902  H4B902     -0.2466
      5  C4       114.7120  111.9260   34.8860 C.1   902  H4B902      0.2569
      6  O4       115.2000  111.8860   36.0090 O.2   902  H4B902     -0.2052
      7  C4A      113.3750  111.5120   34.7420 C.2   902  H4B902      0.2989
      8  C8A      112.8090  111.5770   33.4550 C.1   902  H4B902      0.1401
      9  N5       112.6700  111.0910   35.7870 N.2   902  H4B902     -0.3830
     10  N8       111.5570  111.1590   33.2580 N.2   902  H4B902     -0.1992
     11  C6       111.4690  110.5560   35.5850 C.2   902  H4B902      0.1466
     12  C7       110.8660  110.5740   34.3080 C.3   902  H4B902      0.1940
     13  C9       110.7400  110.1200   36.8470 C.3   902  H4B902      0.2313
     14  O9       110.3440  111.2200   37.6710 O.3   902  H4B902     -0.2130
     15  C10      109.5160  109.2790   36.4910 C.3   902  H4B902      0.1888
     16  C11      108.7990  108.8250   37.7590 C.3   902  H4B902      0.0387
     17  O10      109.9360  108.1340   35.7400 O.3   902  H4B902     -0.2200
@<TRIPOS>BOND
     1     3     2    1
     2     1     2    2
     3     1     8    2
     4     2     4    2
     5    10     8    2
     6    10    12    1
     7     8     7    1
     8     4     5    2
     9    12    11    1
    10     7     5    1
    11     7     9    2
    12     5     6    2
    13    11     9    2
    14    11    13    1
    15    17    15    1
    16    15    13    1
    17    15    16    1
    18    13    14    1
