@<TRIPOS>MOLECULE
1m8d_CLW_A_1.pdb
 11 12 0 0 0
SMALL
GASTEIGER

@<TRIPOS>ATOM
      1  C1       124.8430  112.6330   32.0480 C.2   906  CLW906      0.0107
      2  C2       123.7080  113.4410   32.1910 C.2   906  CLW906      0.0416
      3  C3       123.7370  114.7170   31.5960 C.2   906  CLW906      0.1883
      4  C4       124.7900  115.2160   30.8790 C.2   906  CLW906      0.1654
      5  C5       126.0310  114.4120   30.6790 C.3   906  CLW906      0.1012
      6  C6       125.9810  113.0750   31.3320 C.2   906  CLW906      0.0427
      7 CL1       127.3530  112.0510   31.2180 Cl    906  CLW906     -0.0865
      8  O1       122.7580  115.7020   31.6000 O.3   906  CLW906     -0.3668
      9  C7       123.2480  116.7170   30.9140 C.1   906  CLW906      0.3775
     10  N1       124.4900  116.4450   30.4540 N.2   906  CLW906     -0.3050
     11  O2       122.6580  117.7200   30.7480 O.2   906  CLW906     -0.1690
@<TRIPOS>BOND
     1    10     4    2
     2    10     9    2
     3     5     4    1
     4     5     6    1
     5    11     9    2
     6     4     3    1
     7     9     8    1
     8     7     6    1
     9     6     1    2
    10     3     8    1
    11     3     2    2
    12     1     2    1
