@<TRIPOS>MOLECULE
1m8d_HEM_A_1.pdb
 43 50 0 0 0
SMALL
GASTEIGER

@<TRIPOS>ATOM
      1  CHA      121.6190  110.6540   30.5590 C.2   901  HEM901      0.0000
      2  CHB      122.7980  114.7240   28.1410 C.2   901  HEM901      0.0000
      3  CHC      127.1320  112.8930   27.3240 C.2   901  HEM901      0.0000
      4  CHD      125.8030  108.6930   29.1000 C.2   901  HEM901      0.0000
      5  C1A      121.5650  111.9550   30.0470 C.ar  901  HEM901      0.0000
      6  C2A      120.5090  112.9360   30.3280 C.ar  901  HEM901      0.0000
      7  C3A      120.8360  114.0540   29.5930 C.ar  901  HEM901      0.0000
      8  C4A      122.1020  113.7840   28.9160 C.ar  901  HEM901      0.0000
      9  CMA      120.0120  115.3460   29.4380 C.3   901  HEM901      0.0000
     10  CAA      119.4240  112.9210   31.4150 C.3   901  HEM901      0.0000
     11  CBA      120.0680  113.1460   32.7900 C.3   901  HEM901      0.0000
     12  CGA      119.0730  113.1030   33.9290 C.2   901  HEM901      0.0000
     13  O1A      119.4720  112.6860   35.0380 O.co2 901  HEM901      0.0000
     14  O2A      117.8930  113.4870   33.7390 O.co2 901  HEM901      0.0000
     15  C1B      124.0410  114.5430   27.5910 C.2   901  HEM901      0.0000
     16  C2B      124.7330  115.6090   26.9270 C.2   901  HEM901      0.0000
     17  C3B      125.9980  115.1180   26.6940 C.2   901  HEM901      0.0000
     18  C4B      126.0330  113.7340   27.2440 C.2   901  HEM901      0.0000
     19  CMB      124.2100  117.0150   26.5490 C.3   901  HEM901      0.0000
     20  CAB      126.9960  115.9110   26.0780 C.3   901  HEM901      0.0000
     21  CBB      128.0330  115.4810   25.2670 C.3   901  HEM901      0.0000
     22  C1C      127.1650  111.6230   27.8160 C.ar  901  HEM901      0.0000
     23  C2C      128.3530  110.7860   27.7700 C.ar  901  HEM901      0.0000
     24  C3C      127.9280  109.5460   28.1800 C.ar  901  HEM901      0.0000
     25  C4C      126.5270  109.6910   28.4870 C.ar  901  HEM901      0.0000
     26  CMC      129.7800  111.2600   27.3740 C.3   901  HEM901      0.0000
     27  CAC      128.6650  108.3610   28.3520 C.3   901  HEM901      0.0000
     28  CBC      129.9950  108.0770   27.9970 C.3   901  HEM901      0.0000
     29  C1D      124.5230  108.8180   29.6290 C.2   901  HEM901      0.0000
     30  C2D      123.8520  107.8210   30.4530 C.2   901  HEM901      0.0000
     31  C3D      122.7170  108.3940   30.8950 C.2   901  HEM901      0.0000
     32  C4D      122.6580  109.7320   30.3350 C.2   901  HEM901      0.0000
     33  CMD      124.3040  106.4090   30.7560 C.3   901  HEM901      0.0000
     34  CAD      121.7390  107.8530   31.9120 C.3   901  HEM901      0.0000
     35  CBD      122.0600  108.3380   33.3290 C.3   901  HEM901      0.0000
     36  CGD      120.9800  107.9540   34.3080 C.2   901  HEM901      0.0000
     37  O1D      120.9640  108.4580   35.4550 O.co2 901  HEM901      0.0000
     38  O2D      120.1100  107.1510   33.9150 O.co2 901  HEM901      0.0000
     39  NA       122.5430  112.4950   29.2000 N.ar  901  HEM901      0.0000
     40  NB       124.8070  113.3960   27.7570 N.2   901  HEM901      0.0000
     41  NC       126.0760  110.9540   28.2700 N.ar  901  HEM901      0.0000
     42  ND       123.7800  109.9700   29.5700 N.2   901  HEM901      0.0000
     43 FE        124.1800  111.6270   28.4180 Fe    901  HEM901      0.0000
@<TRIPOS>BOND
     1    21    20    1
     2    20    17    1
     3    19    16    1
     4    17    16    2
     5    17    18    1
     6    16    15    1
     7    18     3    2
     8    18    40    1
     9     3    22    1
    10    26    23    1
    11    15    40    2
    12    15     2    1
    13    40    43    1
    14    23    22   ar
    15    23    24   ar
    16    22    41   ar
    17    28    27    1
    18     2     8    2
    19    24    27    1
    20    24    25   ar
    21    41    43    1
    22    41    25   ar
    23    43    39    1
    24    43    42    1
    25    25     4    1
    26     8    39   ar
    27     8     7   ar
    28     4    29    2
    29    39     5   ar
    30     9     7    1
    31    42    29    1
    32    42    32    2
    33     7     6   ar
    34    29    30    1
    35     5     6   ar
    36     5     1    2
    37     6    10    1
    38    32     1    1
    39    32    31    1
    40    30    33    1
    41    30    31    2
    42    31    34    1
    43    10    11    1
    44    34    35    1
    45    11    12    1
    46    35    36    1
    47    14    12   ar
    48    38    36   ar
    49    12    13   ar
    50    36    37   ar
