@<TRIPOS>MOLECULE
1m8e_H4B_A_1.pdb
 17 18 0 0 0
SMALL
GASTEIGER

@<TRIPOS>ATOM
      1  N1       113.0880  111.4640   32.8460 N.2   902  H4B902     -0.2672
      2  C2       114.3520  111.8240   33.0940 C.1   902  H4B902      0.2609
      3  N2       115.0980  112.2680   32.0890 N.pl3 902  H4B902     -0.0220
      4  N3       114.8640  111.7870   34.3280 N.2   902  H4B902     -0.2466
      5  C4       114.1180  111.3900   35.3640 C.1   902  H4B902      0.2569
      6  O4       114.5090  111.4590   36.5270 O.2   902  H4B902     -0.2052
      7  C4A      112.8230  110.8800   35.1230 C.2   902  H4B902      0.2989
      8  C8A      112.3760  110.8580   33.7940 C.1   902  H4B902      0.1401
      9  N5       112.0560  110.4390   36.1190 N.2   902  H4B902     -0.3830
     10  N8       111.2400  110.2330   33.4840 N.2   902  H4B902     -0.1992
     11  C6       110.8410  109.9760   35.8310 C.2   902  H4B902      0.1466
     12  C7       110.3840  109.8660   34.5070 C.3   902  H4B902      0.1940
     13  C9       110.0260  109.4880   37.0230 C.3   902  H4B902      0.2313
     14  O9       109.5550  110.5430   37.8680 O.3   902  H4B902     -0.2130
     15  C10      108.8540  108.6320   36.5630 C.3   902  H4B902      0.1888
     16  C11      107.9810  108.2670   37.7530 C.3   902  H4B902      0.0387
     17  O10      109.3570  107.4290   35.9720 O.3   902  H4B902     -0.2200
@<TRIPOS>BOND
     1     3     2    1
     2     1     2    2
     3     1     8    2
     4     2     4    2
     5    10     8    2
     6    10    12    1
     7     8     7    1
     8     4     5    2
     9    12    11    1
    10     7     5    1
    11     7     9    2
    12     5     6    2
    13    11     9    2
    14    11    13    1
    15    17    15    1
    16    15    13    1
    17    15    16    1
    18    13    14    1
