@<TRIPOS>MOLECULE
1m8e_HEM_A_1.pdb
 43 50 0 0 0
SMALL
GASTEIGER

@<TRIPOS>ATOM
      1  CHA      121.1640  109.9890   30.6560 C.2   901  HEM901      0.0000
      2  CHB      122.0710  114.1580   28.3790 C.2   901  HEM901      0.0000
      3  CHC      126.4590  112.5260   27.3090 C.2   901  HEM901      0.0000
      4  CHD      125.4510  108.2270   29.2820 C.2   901  HEM901      0.0000
      5  C1A      121.0220  111.2530   30.1620 C.ar  901  HEM901      0.0000
      6  C2A      119.8420  112.1030   30.4200 C.ar  901  HEM901      0.0000
      7  C3A      120.1020  113.2590   29.7350 C.ar  901  HEM901      0.0000
      8  C4A      121.4360  113.1400   29.1170 C.ar  901  HEM901      0.0000
      9  CMA      119.1620  114.4550   29.6060 C.3   901  HEM901      0.0000
     10  CAA      118.7190  111.9020   31.4460 C.3   901  HEM901      0.0000
     11  CBA      119.3070  112.2960   32.8070 C.3   901  HEM901      0.0000
     12  CGA      118.2550  112.5060   33.8950 C.2   901  HEM901      0.0000
     13  O1A      118.4330  111.9760   35.0140 O.co2 901  HEM901      0.0000
     14  O2A      117.2520  113.2180   33.6450 O.co2 901  HEM901      0.0000
     15  C1B      123.3450  114.0450   27.8230 C.2   901  HEM901      0.0000
     16  C2B      123.9950  115.0610   27.0690 C.2   901  HEM901      0.0000
     17  C3B      125.2140  114.6230   26.7620 C.2   901  HEM901      0.0000
     18  C4B      125.3310  113.3010   27.3130 C.2   901  HEM901      0.0000
     19  CMB      123.3620  116.3410   26.5830 C.3   901  HEM901      0.0000
     20  CAB      126.1570  115.4020   26.1310 C.3   901  HEM901      0.0000
     21  CBB      127.3180  114.9930   25.4950 C.3   901  HEM901      0.0000
     22  C1C      126.5880  111.2500   27.8250 C.ar  901  HEM901      0.0000
     23  C2C      127.8300  110.4390   27.8140 C.ar  901  HEM901      0.0000
     24  C3C      127.5050  109.1580   28.3020 C.ar  901  HEM901      0.0000
     25  C4C      126.1130  109.2480   28.6240 C.ar  901  HEM901      0.0000
     26  CMC      129.2180  110.9430   27.3860 C.3   901  HEM901      0.0000
     27  CAC      128.2450  107.9980   28.5660 C.2   901  HEM901      0.0000
     28  CBC      129.5720  107.8410   28.2410 C.2   901  HEM901      0.0000
     29  C1D      124.1450  108.3100   29.8250 C.2   901  HEM901      0.0000
     30  C2D      123.4860  107.2900   30.6240 C.2   901  HEM901      0.0000
     31  C3D      122.3260  107.8450   31.0300 C.2   901  HEM901      0.0000
     32  C4D      122.2210  109.1410   30.4800 C.2   901  HEM901      0.0000
     33  CMD      123.9330  105.8540   30.9030 C.3   901  HEM901      0.0000
     34  CAD      121.3650  107.2450   32.0060 C.3   901  HEM901      0.0000
     35  CBD      121.5660  107.7430   33.4320 C.3   901  HEM901      0.0000
     36  CGD      120.4510  107.2840   34.3610 C.2   901  HEM901      0.0000
     37  O1D      120.2900  107.8660   35.4620 O.co2 901  HEM901      0.0000
     38  O2D      119.7210  106.3360   33.9820 O.co2 901  HEM901      0.0000
     39  NA       121.9670  111.8840   29.3910 N.ar  901  HEM901      0.0000
     40  NB       124.1770  112.9430   27.9320 N.2   901  HEM901      0.0000
     41  NC       125.5720  110.5060   28.3520 N.ar  901  HEM901      0.0000
     42  ND       123.3260  109.4280   29.7530 N.2   901  HEM901      0.0000
     43 FE        123.6060  111.0280   28.5120 Fe    901  HEM901      0.0000
@<TRIPOS>BOND
     1    21    20    1
     2    20    17    1
     3    19    16    1
     4    17    16    2
     5    17    18    1
     6    16    15    1
     7     3    18    2
     8     3    22    1
     9    18    40    1
    10    26    23    1
    11    23    22   ar
    12    23    24   ar
    13    15    40    2
    14    15     2    1
    15    22    41   ar
    16    40    43    1
    17    28    27    2
    18    24    27    1
    19    24    25   ar
    20    41    43    1
    21    41    25   ar
    22     2     8    2
    23    43    39    1
    24    43    42    1
    25    25     4    1
    26     8    39   ar
    27     8     7   ar
    28     4    29    2
    29    39     5   ar
    30     9     7    1
    31     7     6   ar
    32    42    29    1
    33    42    32    2
    34    29    30    1
    35     5     6   ar
    36     5     1    2
    37     6    10    1
    38    32     1    1
    39    32    31    1
    40    30    33    1
    41    30    31    2
    42    31    34    1
    43    10    11    1
    44    34    35    1
    45    11    12    1
    46    35    36    1
    47    14    12   ar
    48    12    13   ar
    49    38    36   ar
    50    36    37   ar
