@<TRIPOS>MOLECULE
1m8e_7NI_A_1.pdb
 12 13 0 0 0
SMALL
GASTEIGER

@<TRIPOS>ATOM
      1  N1       125.5490  115.1200   30.4180 N.2   906  7NI906     -0.1503
      2  N2       126.6460  114.3560   30.2950 N.2   906  7NI906     -0.1507
      3  C3       126.4680  113.1690   30.8980 C.2   906  7NI906      0.1058
      4  C4       124.2690  112.2370   32.2200 C.2   906  7NI906     -0.0143
      5  C5       122.8800  112.6650   32.6280 C.2   906  7NI906     -0.0021
      6  C6       122.4460  113.9240   32.2610 C.2   906  7NI906      0.0251
      7  C7       123.2860  114.7890   31.5230 C.2   906  7NI906      0.1587
      8  C8       124.5470  114.4620   31.1260 C.2   906  7NI906      0.1122
      9  C9       125.1190  113.2100   31.4440 C.3   906  7NI906      0.1087
     10  N10      122.7470  116.0590   31.1960 N.pl3 906  7NI906      0.0589
     11  O11      121.6150  116.3150   31.5670 O.2   906  7NI906     -0.1261
     12  O12      123.4840  116.7710   30.5560 O.2   906  7NI906     -0.1261
@<TRIPOS>BOND
     1     2     1    1
     2     2     3    2
     3     1     8    2
     4    12    10    2
     5     3     9    1
     6     8     9    1
     7     8     7    1
     8    10     7    1
     9    10    11    2
    10     9     4    1
    11     7     6    2
    12     4     5    2
    13     6     5    1
