@<TRIPOS>MOLECULE
1m8f_NAD_A_1.pdb
 44 48 0 0 0
SMALL
GASTEIGER

@<TRIPOS>ATOM
      1  PA        26.4550   19.1800   44.3270 P.3   1339  NAD1339     0.2189
      2  O1A       26.2860   17.9020   43.6090 O.2   1339  NAD1339    -0.5170
      3  O2A       27.0600   19.0860   45.6740 O.3   1339  NAD1339    -0.4371
      4  O5B       25.0420   19.9490   44.4520 O.3   1339  NAD1339    -0.3112
      5  C5B       24.2740   20.2100   43.2490 C.3   1339  NAD1339     0.1813
      6  C4B       22.9740   20.9360   43.5580 C.3   1339  NAD1339     0.1821
      7  O4B       22.0350   19.9170   43.9340 O.3   1339  NAD1339    -0.3135
      8  C3B       22.9860   21.9050   44.7300 C.3   1339  NAD1339     0.2184
      9  O3B       23.5630   23.1600   44.3630 O.3   1339  NAD1339    -0.2174
     10  C2B       21.5030   21.9040   45.0890 C.3   1339  NAD1339     0.2570
     11  O2B       20.7480   22.7750   44.2160 O.3   1339  NAD1339    -0.2130
     12  C1B       21.1360   20.4280   44.8920 C.3   1339  NAD1339     0.3186
     13  N9A       21.2160   19.5740   46.0940 N.pl3 1339  NAD1339    -0.1439
     14  C8A       22.2900   18.8600   46.5580 C.3   1339  NAD1339     0.3377
     15  N7A       22.0500   18.1900   47.6810 N.2   1339  NAD1339    -0.2095
     16  C5A       20.7360   18.4860   47.9690 C.2   1339  NAD1339     0.2526
     17  C6A       19.9020   18.0790   49.0350 C.2   1339  NAD1339     0.4393
     18  N6A       20.2460   17.2830   50.0280 N.pl3 1339  NAD1339     0.2180
     19  N1A       18.6090   18.5500   49.0480 N.2   1339  NAD1339     0.0021
     20  C2A       18.2250   19.3860   48.0210 C.3   1339  NAD1339     0.5254
     21  N3A       18.9030   19.8330   46.9850 N.2   1339  NAD1339    -0.0055
     22  C4A       20.1910   19.3370   47.0090 C.2   1339  NAD1339     0.3518
     23  O3        27.3090   20.1140   43.4310 O.3   1339  NAD1339    -0.2703
     24  PN        27.6180   21.7500   43.4210 P.3   1339  NAD1339     0.2189
     25  O1N       26.3990   22.4550   43.8490 O.2   1339  NAD1339    -0.5170
     26  O2N       28.8060   22.0320   44.2710 O.3   1339  NAD1339    -0.4371
     27  O5D       27.8270   21.8590   41.8660 O.3   1339  NAD1339    -0.3112
     28  C5D       29.1230   22.2720   41.5420 C.3   1339  NAD1339     0.1813
     29  C4D       29.3600   22.2170   40.0850 C.3   1339  NAD1339     0.1799
     30  O4D       29.2090   23.5630   39.5100 O.3   1339  NAD1339    -0.3327
     31  C3D       30.7730   21.7990   39.8120 C.3   1339  NAD1339     0.2158
     32  O3D       30.8480   20.9410   38.6790 O.3   1339  NAD1339    -0.2175
     33  C2D       31.4140   23.1520   39.6020 C.3   1339  NAD1339     0.2309
     34  O2D       32.6970   23.0150   38.9880 O.3   1339  NAD1339    -0.2158
     35  C1D       30.3600   23.7900   38.7410 C.3   1339  NAD1339     0.2263
     36  N1N       30.6340   25.2120   38.5020 N.pl3 1339  NAD1339    -0.2787
     37  C2N       31.5900   25.5780   37.5480 C.3   1339  NAD1339     0.1244
     38  C3N       32.0340   26.9820   37.3710 C.2   1339  NAD1339     0.0544
     39  C7N       33.1510   27.2080   36.4210 C.2   1339  NAD1339     0.2818
     40  O7N       33.7310   26.2150   35.7280 O.2   1339  NAD1339    -0.2670
     41  N7N       33.5550   28.3750   36.2720 N.am  1339  NAD1339    -0.0839
     42  C4N       31.2700   28.0740   38.0920 C.2   1339  NAD1339     0.0033
     43  C5N       30.2190   27.5280   39.0100 C.2   1339  NAD1339     0.0157
     44  C6N       29.9470   26.2480   39.2110 C.2   1339  NAD1339     0.0633
@<TRIPOS>BOND
     1    40    39    2
     2    41    39   am
     3    39    38    1
     4    38    37    1
     5    38    42    2
     6    37    36    1
     7    42    43    1
     8    36    35    1
     9    36    44    1
    10    32    31    1
    11    35    30    1
    12    35    33    1
    13    34    33    1
    14    43    44    2
    15    30    29    1
    16    33    31    1
    17    31    29    1
    18    29    28    1
    19    28    27    1
    20    27    24    1
    21     5     6    1
    22     5     4    1
    23    24    23    1
    24    24    25    2
    25    24    26    1
    26    23     1    1
    27     6     7    1
    28     6     8    1
    29     2     1    2
    30     7    12    1
    31    11    10    1
    32     1     4    1
    33     1     3    1
    34     9     8    1
    35     8    10    1
    36    12    10    1
    37    12    13    1
    38    13    14    1
    39    13    22    1
    40    14    15    1
    41    21    22    2
    42    21    20    1
    43    22    16    1
    44    15    16    2
    45    16    17    1
    46    20    19    1
    47    17    19    2
    48    17    18    1
