@<TRIPOS>MOLECULE
1m8g_NAD_A_1.pdb
 44 48 0 0 0
SMALL
GASTEIGER

@<TRIPOS>ATOM
      1  PA        26.7050   19.2570   44.1120 P.3   1339  NAD1339     0.2189
      2  O1A       26.6550   17.9050   43.5010 O.2   1339  NAD1339    -0.5170
      3  O2A       27.3090   19.3270   45.4630 O.3   1339  NAD1339    -0.4371
      4  O5B       25.2400   19.9050   44.2020 O.3   1339  NAD1339    -0.3112
      5  C5B       24.3550   19.8580   43.0570 C.3   1339  NAD1339     0.1813
      6  C4B       23.0530   20.5950   43.3550 C.3   1339  NAD1339     0.1821
      7  O4B       22.1750   19.6220   43.9580 O.3   1339  NAD1339    -0.3135
      8  C3B       23.1340   21.7270   44.3730 C.3   1339  NAD1339     0.2184
      9  O3B       23.5970   22.9240   43.7480 O.3   1339  NAD1339    -0.2174
     10  C2B       21.6990   21.7380   44.9030 C.3   1339  NAD1339     0.2570
     11  O2B       20.8230   22.4740   44.0010 O.3   1339  NAD1339    -0.2130
     12  C1B       21.3620   20.2390   44.9300 C.3   1339  NAD1339     0.3186
     13  N9A       21.5630   19.5230   46.2040 N.pl3 1339  NAD1339    -0.1439
     14  C8A       22.7250   19.0090   46.7150 C.3   1339  NAD1339     0.3377
     15  N7A       22.5760   18.4060   47.8970 N.2   1339  NAD1339    -0.2095
     16  C5A       21.2290   18.5390   48.1680 C.2   1339  NAD1339     0.2526
     17  C6A       20.4520   18.1090   49.2680 C.2   1339  NAD1339     0.4393
     18  N6A       20.8940   17.4490   50.3270 N.pl3 1339  NAD1339     0.2180
     19  N1A       19.1030   18.3980   49.2490 N.2   1339  NAD1339     0.0021
     20  C2A       18.6140   19.0850   48.1590 C.3   1339  NAD1339     0.5254
     21  N3A       19.2320   19.5330   47.0850 N.2   1339  NAD1339    -0.0055
     22  C4A       20.5780   19.2230   47.1440 C.2   1339  NAD1339     0.3518
     23  O3        27.4620   20.2140   43.1290 O.3   1339  NAD1339    -0.2703
     24  PN        27.6000   21.8770   43.0020 P.3   1339  NAD1339     0.2189
     25  O1N       26.2740   22.4650   43.2410 O.2   1339  NAD1339    -0.5170
     26  O2N       28.6340   22.3830   43.9340 O.3   1339  NAD1339    -0.4371
     27  O5D       27.9560   21.9530   41.4610 O.3   1339  NAD1339    -0.3112
     28  C5D       29.1760   22.5950   41.2130 C.3   1339  NAD1339     0.1813
     29  C4D       29.5370   22.4840   39.7820 C.3   1339  NAD1339     0.1799
     30  O4D       29.3680   23.7930   39.1100 O.3   1339  NAD1339    -0.3327
     31  C3D       30.9840   22.1310   39.6540 C.3   1339  NAD1339     0.2158
     32  O3D       31.1950   21.2170   38.5960 O.3   1339  NAD1339    -0.2175
     33  C2D       31.5870   23.4990   39.4070 C.3   1339  NAD1339     0.2309
     34  O2D       32.9050   23.3720   38.8750 O.3   1339  NAD1339    -0.2158
     35  C1D       30.5750   24.0580   38.4410 C.3   1339  NAD1339     0.2263
     36  N1N       30.8110   25.4810   38.1920 N.pl3 1339  NAD1339    -0.2787
     37  C2N       31.8030   25.8550   37.2760 C.3   1339  NAD1339     0.1244
     38  C3N       32.2170   27.2620   37.0890 C.2   1339  NAD1339     0.0544
     39  C7N       33.3610   27.4880   36.1650 C.2   1339  NAD1339     0.2818
     40  O7N       33.9710   26.4850   35.5080 O.2   1339  NAD1339    -0.2670
     41  N7N       33.7550   28.6680   36.0030 N.am  1339  NAD1339    -0.0839
     42  C4N       31.3970   28.3520   37.7570 C.2   1339  NAD1339     0.0033
     43  C5N       30.3170   27.7980   38.6510 C.2   1339  NAD1339     0.0157
     44  C6N       30.0680   26.5070   38.8590 C.2   1339  NAD1339     0.0633
@<TRIPOS>BOND
     1    40    39    2
     2    41    39   am
     3    39    38    1
     4    38    37    1
     5    38    42    2
     6    37    36    1
     7    42    43    1
     8    36    35    1
     9    36    44    1
    10    35    30    1
    11    35    33    1
    12    32    31    1
    13    43    44    2
    14    34    33    1
    15    30    29    1
    16    33    31    1
    17    31    29    1
    18    29    28    1
    19    28    27    1
    20    27    24    1
    21    24    23    1
    22    24    25    2
    23    24    26    1
    24     5     6    1
    25     5     4    1
    26    23     1    1
    27     6     7    1
    28     6     8    1
    29     2     1    2
    30     9     8    1
    31     7    12    1
    32    11    10    1
    33     1     4    1
    34     1     3    1
    35     8    10    1
    36    10    12    1
    37    12    13    1
    38    13    14    1
    39    13    22    1
    40    14    15    1
    41    21    22    2
    42    21    20    1
    43    22    16    1
    44    15    16    2
    45    20    19    1
    46    16    17    1
    47    19    17    2
    48    17    18    1
