@<TRIPOS>MOLECULE
1m8h_HEM_A_1.pdb
 43 50 0 0 0
SMALL
GASTEIGER

@<TRIPOS>ATOM
      1  CHA      121.6670  110.6130   30.3180 C.2   901  HEM901      0.0000
      2  CHB      122.6290  114.5560   27.8240 C.2   901  HEM901      0.0000
      3  CHC      127.0060  112.7690   27.0400 C.2   901  HEM901      0.0000
      4  CHD      125.7690  108.6270   29.0800 C.2   901  HEM901      0.0000
      5  C1A      121.6050  111.8680   29.8280 C.ar  901  HEM901      0.0000
      6  C2A      120.4580  112.7590   30.0540 C.ar  901  HEM901      0.0000
      7  C3A      120.7170  113.8510   29.2930 C.ar  901  HEM901      0.0000
      8  C4A      122.0140  113.6430   28.6410 C.ar  901  HEM901      0.0000
      9  CMA      119.8250  115.0520   29.1580 C.3   901  HEM901      0.0000
     10  CAA      119.3610  112.5750   31.0450 C.3   901  HEM901      0.0000
     11  CBA      119.9580  113.1230   32.3180 C.3   901  HEM901      0.0000
     12  CGA      119.0180  113.0340   33.5030 C.2   901  HEM901      0.0000
     13  O1A      119.4770  112.5930   34.5760 O.co2 901  HEM901      0.0000
     14  O2A      117.8270  113.4100   33.3780 O.co2 901  HEM901      0.0000
     15  C1B      123.8790  114.3600   27.3000 C.2   901  HEM901      0.0000
     16  C2B      124.5190  115.3450   26.5390 C.2   901  HEM901      0.0000
     17  C3B      125.7850  114.9250   26.3160 C.2   901  HEM901      0.0000
     18  C4B      125.8760  113.5930   26.9680 C.2   901  HEM901      0.0000
     19  CMB      123.8540  116.6080   25.9890 C.3   901  HEM901      0.0000
     20  CAB      126.7750  115.7230   25.6830 C.3   901  HEM901      0.0000
     21  CBB      127.9850  115.3430   25.1240 C.3   901  HEM901      0.0000
     22  C1C      127.0840  111.5210   27.6040 C.ar  901  HEM901      0.0000
     23  C2C      128.2840  110.6430   27.5880 C.ar  901  HEM901      0.0000
     24  C3C      127.9030  109.4410   28.1500 C.ar  901  HEM901      0.0000
     25  C4C      126.5090  109.6040   28.4780 C.ar  901  HEM901      0.0000
     26  CMC      129.6470  111.0770   27.0930 C.3   901  HEM901      0.0000
     27  CAC      128.6130  108.3250   28.5000 C.3   901  HEM901      0.0000
     28  CBC      129.8290  107.9290   27.9800 C.3   901  HEM901      0.0000
     29  C1D      124.4450  108.7440   29.5260 C.2   901  HEM901      0.0000
     30  C2D      123.7430  107.7630   30.3860 C.2   901  HEM901      0.0000
     31  C3D      122.6180  108.3830   30.7510 C.2   901  HEM901      0.0000
     32  C4D      122.6170  109.6860   30.1260 C.2   901  HEM901      0.0000
     33  CMD      124.1810  106.3930   30.8620 C.3   901  HEM901      0.0000
     34  CAD      121.6170  107.8510   31.7090 C.3   901  HEM901      0.0000
     35  CBD      121.9090  108.3100   33.1130 C.3   901  HEM901      0.0000
     36  CGD      120.8750  107.7920   34.0870 C.2   901  HEM901      0.0000
     37  O1D      120.6580  108.4410   35.1370 O.co2 901  HEM901      0.0000
     38  O2D      120.2680  106.7300   33.7960 O.co2 901  HEM901      0.0000
     39  NA       122.5390  112.4090   29.0040 N.ar  901  HEM901      0.0000
     40  NB       124.6850  113.2800   27.5340 N.2   901  HEM901      0.0000
     41  NC       126.0350  110.8630   28.1680 N.ar  901  HEM901      0.0000
     42  ND       123.7030  109.8790   29.3940 N.2   901  HEM901      0.0000
     43 FE        124.0990  111.3890   28.1580 Fe    901  HEM901      0.0000
@<TRIPOS>BOND
     1    21    20    1
     2    20    17    1
     3    19    16    1
     4    17    16    2
     5    17    18    1
     6    16    15    1
     7    18     3    2
     8    18    40    1
     9     3    22    1
    10    26    23    1
    11    15    40    2
    12    15     2    1
    13    40    43    1
    14    23    22   ar
    15    23    24   ar
    16    22    41   ar
    17     2     8    2
    18    28    27    1
    19    24    25   ar
    20    24    27    1
    21    43    41    1
    22    43    39    1
    23    43    42    1
    24    41    25   ar
    25    25     4    1
    26     8    39   ar
    27     8     7   ar
    28    39     5   ar
    29     4    29    2
    30     9     7    1
    31     7     6   ar
    32    42    29    1
    33    42    32    2
    34    29    30    1
    35     5     6   ar
    36     5     1    2
    37     6    10    1
    38    32     1    1
    39    32    31    1
    40    30    31    2
    41    30    33    1
    42    31    34    1
    43    10    11    1
    44    34    35    1
    45    11    12    1
    46    35    36    1
    47    14    12   ar
    48    12    13   ar
    49    38    36   ar
    50    36    37   ar
