@<TRIPOS>MOLECULE
1m8h_6NI_A_1.pdb
 12 13 0 0 0
SMALL
GASTEIGER

@<TRIPOS>ATOM
      1  C6       125.3790  113.2990   31.3340 C.2   906  6NI906      0.1265
      2  C7       125.4950  114.5140   30.6220 C.3   906  6NI906      0.0984
      3  C8       124.4530  115.4360   30.6890 C.2   906  6NI906      0.0882
      4  C9       123.2850  115.1690   31.4560 C.2   906  6NI906      0.0367
      5  C4       123.1730  113.9410   32.1580 C.2   906  6NI906      0.0042
      6  C5       124.2220  113.0090   32.0960 C.2   906  6NI906      0.0201
      7  N1       124.1820  116.6620   30.1850 N.2   906  6NI906     -0.1519
      8  N2       123.0050  117.2280   30.5250 N.2   906  6NI906     -0.1467
      9  C3       122.4210  116.2880   31.3300 C.2   906  6NI906      0.1233
     10  N10      126.4200  112.4170   31.2830 N.pl3 906  6NI906      0.0540
     11  O11      126.2740  111.1040   31.6010 O.2   906  6NI906     -0.1264
     12  O12      127.6680  112.8520   30.9390 O.2   906  6NI906     -0.1264
@<TRIPOS>BOND
     1     7     8    1
     2     7     3    2
     3     8     9    2
     4     2     3    1
     5     2     1    1
     6     3     4    1
     7    12    10    2
     8    10     1    1
     9    10    11    2
    10     9     4    1
    11     1     6    2
    12     4     5    2
    13     6     5    1
