@<TRIPOS>MOLECULE
1m8h_H4B_A_1.pdb
 17 18 0 0 0
SMALL
GASTEIGER

@<TRIPOS>ATOM
      1  N1       113.5330  111.9110   32.5260 N.2   902  H4B902     -0.2672
      2  C2       114.7340  112.4270   32.8130 C.1   902  H4B902      0.2609
      3  N2       115.4270  113.0240   31.8510 N.pl3 902  H4B902     -0.0220
      4  N3       115.2390  112.3930   34.0520 N.2   902  H4B902     -0.2466
      5  C4       114.5480  111.8470   35.0530 C.1   902  H4B902      0.2569
      6  O4       114.9750  111.8200   36.2150 O.2   902  H4B902     -0.2052
      7  C4A      113.2740  111.2960   34.8010 C.2   902  H4B902      0.2989
      8  C8A      112.8080  111.3190   33.4720 C.1   902  H4B902      0.1401
      9  N5       112.5320  110.7830   35.7810 N.2   902  H4B902     -0.3830
     10  N8       111.6420  110.7520   33.1730 N.2   902  H4B902     -0.1992
     11  C6       111.2630  110.4590   35.5270 C.2   902  H4B902      0.1466
     12  C7       110.7710  110.4440   34.2030 C.3   902  H4B902      0.1940
     13  C9       110.4870  109.8780   36.7140 C.3   902  H4B902      0.2313
     14  O9       110.0230  110.8320   37.6740 O.3   902  H4B902     -0.2130
     15  C10      109.3200  109.0420   36.2370 C.3   902  H4B902      0.1888
     16  C11      108.5490  108.5290   37.4270 C.3   902  H4B902      0.0387
     17  O10      109.8140  107.9390   35.4680 O.3   902  H4B902     -0.2200
@<TRIPOS>BOND
     1     3     2    1
     2     1     2    2
     3     1     8    2
     4     2     4    2
     5    10     8    2
     6    10    12    1
     7     8     7    1
     8     4     5    2
     9    12    11    1
    10     7     5    1
    11     7     9    2
    12     5     6    2
    13    17    15    1
    14    11     9    2
    15    11    13    1
    16    15    13    1
    17    15    16    1
    18    13    14    1
