@<TRIPOS>MOLECULE
1m8i_H4B_A_1.pdb
 17 18 0 0 0
SMALL
GASTEIGER

@<TRIPOS>ATOM
      1  N1       113.7640  112.0930   32.4570 N.2   902  H4B902     -0.2672
      2  C2       115.0430  112.4210   32.6760 C.1   902  H4B902      0.2609
      3  N2       115.8050  112.7960   31.6570 N.pl3 902  H4B902     -0.0220
      4  N3       115.5790  112.3880   33.9010 N.2   902  H4B902     -0.2466
      5  C4       114.8420  112.0300   34.9480 C.1   902  H4B902      0.2569
      6  O4       115.2400  112.1340   36.1080 O.2   902  H4B902     -0.2052
      7  C4A      113.5460  111.5220   34.7490 C.2   902  H4B902      0.2989
      8  C8A      113.0450  111.5310   33.4300 C.1   902  H4B902      0.1401
      9  N5       112.8090  111.0900   35.7700 N.2   902  H4B902     -0.3830
     10  N8       111.8570  110.9860   33.1670 N.2   902  H4B902     -0.1992
     11  C6       111.5870  110.6140   35.5310 C.2   902  H4B902      0.1466
     12  C7       111.0630  110.5460   34.2170 C.3   902  H4B902      0.1940
     13  C9       110.8030  110.1820   36.7720 C.3   902  H4B902      0.2313
     14  O9       110.4540  111.2930   37.6130 O.3   902  H4B902     -0.2130
     15  C10      109.5440  109.4020   36.3890 C.3   902  H4B902      0.1888
     16  C11      108.7520  109.0430   37.6250 C.3   902  H4B902      0.0387
     17  O10      109.9250  108.1970   35.7210 O.3   902  H4B902     -0.2200
@<TRIPOS>BOND
     1     3     2    1
     2     1     2    2
     3     1     8    2
     4     2     4    2
     5    10     8    2
     6    10    12    1
     7     8     7    1
     8     4     5    2
     9    12    11    1
    10     7     5    1
    11     7     9    2
    12     5     6    2
    13    11     9    2
    14    11    13    1
    15    17    15    1
    16    15    13    1
    17    15    16    1
    18    13    14    1
