@<TRIPOS>MOLECULE
1m8i_5NI_A_1.pdb
 12 13 0 0 0
SMALL
GASTEIGER

@<TRIPOS>ATOM
      1  C6       125.8420  114.7500   30.1330 C.2   906  5NI906      0.0089
      2  C7       125.1000  115.9130   29.8590 C.2   906  5NI906      0.0188
      3  C8       124.0760  116.2750   30.6940 C.2   906  5NI906      0.1039
      4  C9       123.7410  115.4760   31.8550 C.2   906  5NI906      0.0384
      5  C4       124.4640  114.3290   32.1230 C.2   906  5NI906      0.0105
      6  C5       125.5120  113.9760   31.2610 C.3   906  5NI906      0.2103
      7  N1       123.1710  117.3080   30.7450 N.2   906  5NI906     -0.1479
      8  N2       122.3500  117.2040   31.7980 N.2   906  5NI906     -0.1464
      9  C3       122.6210  116.1220   32.5330 C.2   906  5NI906      0.1234
     10  N10      126.3090  112.7760   31.5380 N.pl3 906  5NI906      0.0409
     11  O11      125.7100  111.7870   31.9190 O.2   906  5NI906     -0.1304
     12  O12      127.5100  112.8630   31.3660 O.2   906  5NI906     -0.1304
@<TRIPOS>BOND
     1     2     1    2
     2     2     3    1
     3     1     6    1
     4     3     7    2
     5     3     4    1
     6     7     8    1
     7     6    10    1
     8     6     5    1
     9    12    10    2
    10    10    11    2
    11     8     9    2
    12     4     5    2
    13     4     9    1
