@<TRIPOS>MOLECULE
1m8i_HEM_A_1.pdb
 43 50 0 0 0
SMALL
GASTEIGER

@<TRIPOS>ATOM
      1  CHA      121.8140  110.7620   30.3810 C.2   901  HEM901      0.0000
      2  CHB      122.8440  114.6640   27.6980 C.2   901  HEM901      0.0000
      3  CHC      127.2710  112.9030   26.8710 C.2   901  HEM901      0.0000
      4  CHD      125.9150  108.7350   28.9360 C.2   901  HEM901      0.0000
      5  C1A      121.7360  112.0250   29.8070 C.ar  901  HEM901      0.0000
      6  C2A      120.6590  113.0180   30.1010 C.ar  901  HEM901      0.0000
      7  C3A      120.9620  114.0990   29.2930 C.ar  901  HEM901      0.0000
      8  C4A      122.1890  113.7870   28.5460 C.ar  901  HEM901      0.0000
      9  CMA      120.2290  115.4250   29.1730 C.3   901  HEM901      0.0000
     10  CAA      119.5880  112.8940   31.1510 C.3   901  HEM901      0.0000
     11  CBA      120.2190  113.2150   32.4910 C.3   901  HEM901      0.0000
     12  CGA      119.2400  113.1320   33.6600 C.2   901  HEM901      0.0000
     13  O1A      119.6360  112.6530   34.7370 O.co2 901  HEM901      0.0000
     14  O2A      118.0750  113.5570   33.5240 O.co2 901  HEM901      0.0000
     15  C1B      124.1070  114.4870   27.1150 C.2   901  HEM901      0.0000
     16  C2B      124.7800  115.4950   26.3780 C.2   901  HEM901      0.0000
     17  C3B      126.0790  115.0810   26.1580 C.2   901  HEM901      0.0000
     18  C4B      126.1490  113.7410   26.7840 C.2   901  HEM901      0.0000
     19  CMB      124.1440  116.8320   25.9670 C.3   901  HEM901      0.0000
     20  CAB      127.0810  115.9220   25.5880 C.2   901  HEM901      0.0000
     21  CBB      128.2770  115.6040   24.9870 C.2   901  HEM901      0.0000
     22  C1C      127.2850  111.6340   27.4540 C.ar  901  HEM901      0.0000
     23  C2C      128.4380  110.7530   27.4130 C.ar  901  HEM901      0.0000
     24  C3C      128.0390  109.5260   27.9310 C.ar  901  HEM901      0.0000
     25  C4C      126.6470  109.7080   28.2840 C.ar  901  HEM901      0.0000
     26  CMC      129.8170  111.2200   26.9370 C.3   901  HEM901      0.0000
     27  CAC      128.7380  108.3720   28.2650 C.3   901  HEM901      0.0000
     28  CBC      130.0470  108.1050   27.9150 C.3   901  HEM901      0.0000
     29  C1D      124.6370  108.8760   29.4620 C.2   901  HEM901      0.0000
     30  C2D      123.9530  107.9110   30.3370 C.2   901  HEM901      0.0000
     31  C3D      122.8500  108.5020   30.7970 C.2   901  HEM901      0.0000
     32  C4D      122.8070  109.8220   30.1790 C.2   901  HEM901      0.0000
     33  CMD      124.3770  106.4960   30.6290 C.3   901  HEM901      0.0000
     34  CAD      121.9020  107.9410   31.7950 C.3   901  HEM901      0.0000
     35  CBD      122.1090  108.3960   33.2240 C.3   901  HEM901      0.0000
     36  CGD      120.9800  107.9310   34.1210 C.2   901  HEM901      0.0000
     37  O1D      120.7900  108.4720   35.2330 O.co2 901  HEM901      0.0000
     38  O2D      120.2540  107.0120   33.6950 O.co2 901  HEM901      0.0000
     39  NA       122.6520  112.5250   28.8870 N.ar  901  HEM901      0.0000
     40  NB       124.9240  113.4120   27.3320 N.2   901  HEM901      0.0000
     41  NC       126.2190  110.9890   28.0090 N.ar  901  HEM901      0.0000
     42  ND       123.9050  110.0220   29.3690 N.2   901  HEM901      0.0000
     43 FE        124.3050  111.6210   28.1610 Fe    901  HEM901      0.0000
@<TRIPOS>BOND
     1    21    20    2
     2    20    17    1
     3    19    16    1
     4    17    16    2
     5    17    18    1
     6    16    15    1
     7    18     3    2
     8    18    40    1
     9     3    22    1
    10    26    23    1
    11    15    40    2
    12    15     2    1
    13    40    43    1
    14    23    22   ar
    15    23    24   ar
    16    22    41   ar
    17     2     8    2
    18    28    27    1
    19    24    27    1
    20    24    25   ar
    21    41    43    1
    22    41    25   ar
    23    43    39    1
    24    43    42    1
    25    25     4    1
    26     8    39   ar
    27     8     7   ar
    28    39     5   ar
    29     4    29    2
    30     9     7    1
    31     7     6   ar
    32    42    29    1
    33    42    32    2
    34    29    30    1
    35     5     6   ar
    36     5     1    2
    37     6    10    1
    38    32     1    1
    39    32    31    1
    40    30    33    1
    41    30    31    2
    42    31    34    1
    43    10    11    1
    44    34    35    1
    45    11    12    1
    46    35    36    1
    47    14    12   ar
    48    12    13   ar
    49    38    36   ar
    50    36    37   ar
