@<TRIPOS>MOLECULE
1m8j_NAD_A_1.pdb
 44 48 0 0 0
SMALL
GASTEIGER

@<TRIPOS>ATOM
      1  PA        28.4340   20.1690   43.6690 P.3   1339  NAD1339     0.2189
      2  O1A       28.2860   18.8020   43.0980 O.2   1339  NAD1339    -0.5170
      3  O2A       29.1620   20.2670   44.9610 O.3   1339  NAD1339    -0.4371
      4  O5B       26.9950   20.8680   43.8380 O.3   1339  NAD1339    -0.3112
      5  C5B       26.0270   20.7290   42.7700 C.3   1339  NAD1339     0.1813
      6  C4B       24.6440   21.1670   43.2280 C.3   1339  NAD1339     0.1821
      7  O4B       24.1890   20.1920   44.1900 O.3   1339  NAD1339    -0.3135
      8  C3B       24.5770   22.5320   43.9200 C.3   1339  NAD1339     0.2184
      9  O3B       23.5480   23.3320   43.3030 O.3   1339  NAD1339    -0.2174
     10  C2B       24.3520   22.1380   45.3840 C.3   1339  NAD1339     0.2570
     11  O2B       23.6290   23.1670   46.1050 O.3   1339  NAD1339    -0.2130
     12  C1B       23.5290   20.8690   45.2140 C.3   1339  NAD1339     0.3186
     13  N9A       23.5070   19.9730   46.3640 N.pl3 1339  NAD1339    -0.1439
     14  C8A       24.5210   19.1850   46.8200 C.3   1339  NAD1339     0.3377
     15  N7A       24.2110   18.4720   47.8980 N.2   1339  NAD1339    -0.2095
     16  C5A       22.9030   18.8250   48.1570 C.2   1339  NAD1339     0.2526
     17  C6A       22.0130   18.4100   49.1690 C.2   1339  NAD1339     0.4393
     18  N6A       22.2800   17.5460   50.1270 N.pl3 1339  NAD1339     0.2180
     19  N1A       20.7470   18.9510   49.1670 N.2   1339  NAD1339     0.0021
     20  C2A       20.4410   19.8610   48.1760 C.3   1339  NAD1339     0.5254
     21  N3A       21.1790   20.3220   47.1870 N.2   1339  NAD1339    -0.0055
     22  C4A       22.4390   19.7520   47.2270 C.2   1339  NAD1339     0.3518
     23  O3        29.1280   21.0660   42.6140 O.3   1339  NAD1339    -0.2703
     24  PN        29.4640   22.6770   42.6240 P.3   1339  NAD1339     0.2189
     25  O1N       28.2670   23.3630   43.1280 O.2   1339  NAD1339    -0.5170
     26  O2N       30.6790   22.9130   43.4460 O.3   1339  NAD1339    -0.4371
     27  O5D       29.6240   22.8730   41.0670 O.3   1339  NAD1339    -0.3112
     28  C5D       30.9060   23.3280   40.7380 C.3   1339  NAD1339     0.1813
     29  C4D       31.1380   23.3390   39.2740 C.3   1339  NAD1339     0.1799
     30  O4D       30.9340   24.6960   38.7170 O.3   1339  NAD1339    -0.3327
     31  C3D       32.5640   22.9820   38.9980 C.3   1339  NAD1339     0.2158
     32  O3D       32.6870   22.1790   37.8300 O.3   1339  NAD1339    -0.2175
     33  C2D       33.1520   24.3520   38.8520 C.3   1339  NAD1339     0.2309
     34  O2D       34.4550   24.2630   38.2830 O.3   1339  NAD1339    -0.2158
     35  C1D       32.0910   24.9760   37.9710 C.3   1339  NAD1339     0.2263
     36  N1N       32.3270   26.4150   37.7610 N.pl3 1339  NAD1339    -0.2787
     37  C2N       33.2780   26.8210   36.8270 C.3   1339  NAD1339     0.1244
     38  C3N       33.6790   28.2360   36.6750 C.2   1339  NAD1339     0.0544
     39  C7N       34.7790   28.5050   35.7300 C.2   1339  NAD1339     0.2818
     40  O7N       35.1430   29.6840   35.6050 O.2   1339  NAD1339    -0.2670
     41  N7N       35.3850   27.5390   35.0160 N.am  1339  NAD1339    -0.0839
     42  C4N       32.8940   29.2980   37.4170 C.2   1339  NAD1339     0.0033
     43  C5N       31.8520   28.7090   38.3220 C.2   1339  NAD1339     0.0157
     44  C6N       31.6130   27.4160   38.4880 C.2   1339  NAD1339     0.0633
@<TRIPOS>BOND
     1    41    39   am
     2    40    39    2
     3    39    38    1
     4    38    37    1
     5    38    42    2
     6    37    36    1
     7    42    43    1
     8    36    35    1
     9    36    44    1
    10    32    31    1
    11    35    30    1
    12    35    33    1
    13    34    33    1
    14    43    44    2
    15    30    29    1
    16    33    31    1
    17    31    29    1
    18    29    28    1
    19    28    27    1
    20    27    24    1
    21    23    24    1
    22    23     1    1
    23    24    25    2
    24    24    26    1
    25     5     6    1
    26     5     4    1
    27     2     1    2
    28     6     8    1
    29     6     7    1
    30     9     8    1
    31     1     4    1
    32     1     3    1
    33     8    10    1
    34     7    12    1
    35    12    10    1
    36    12    13    1
    37    10    11    1
    38    13    14    1
    39    13    22    1
    40    14    15    1
    41    21    22    2
    42    21    20    1
    43    22    16    1
    44    15    16    2
    45    16    17    1
    46    20    19    1
    47    19    17    2
    48    17    18    1
