@<TRIPOS>MOLECULE
1m8k_NAD_A_1.pdb
 44 48 0 0 0
SMALL
GASTEIGER

@<TRIPOS>ATOM
      1  PA        43.4990   47.0740  -66.2270 P.3   2006  NAD2006     0.2189
      2  O1A       43.6790   45.9970  -65.2200 O.3   2006  NAD2006    -0.4371
      3  O2A       42.9530   48.3640  -65.7160 O.2   2006  NAD2006    -0.5170
      4  O5B       44.8760   47.3990  -67.0050 O.3   2006  NAD2006    -0.3112
      5  C5B       45.4220   46.4200  -67.9390 C.3   2006  NAD2006     0.1813
      6  C4B       46.9250   46.6040  -68.0840 C.3   2006  NAD2006     0.1821
      7  O4B       47.1050   47.8110  -68.8430 O.3   2006  NAD2006    -0.3135
      8  C3B       47.6870   46.7930  -66.7750 C.3   2006  NAD2006     0.2184
      9  O3B       48.7290   45.8190  -66.6900 O.3   2006  NAD2006    -0.2174
     10  C2B       48.1010   48.2750  -66.8300 C.3   2006  NAD2006     0.2570
     11  O2B       49.3520   48.5120  -66.1560 O.3   2006  NAD2006    -0.2130
     12  C1B       48.2000   48.5070  -68.3320 C.3   2006  NAD2006     0.3186
     13  N9A       48.0170   49.8830  -68.7790 N.pl3 2006  NAD2006    -0.1439
     14  C8A       46.9250   50.6770  -68.5850 C.3   2006  NAD2006     0.3377
     15  N7A       47.0440   51.8980  -69.1100 N.2   2006  NAD2006    -0.2095
     16  C5A       48.2930   51.8850  -69.6780 C.2   2006  NAD2006     0.2526
     17  C6A       48.9900   52.8770  -70.3780 C.2   2006  NAD2006     0.4393
     18  N6A       48.5460   54.0930  -70.6440 N.pl3 2006  NAD2006     0.2180
     19  N1A       50.2510   52.5660  -70.8300 N.2   2006  NAD2006     0.0021
     20  C2A       50.7290   51.3050  -70.5620 C.3   2006  NAD2006     0.5254
     21  N3A       50.1720   50.3000  -69.9250 N.2   2006  NAD2006    -0.0055
     22  C4A       48.9200   50.6560  -69.4910 C.2   2006  NAD2006     0.3518
     23  O3        42.6460   46.4910  -67.3740 O.3   2006  NAD2006    -0.2703
     24  PN        41.4620   47.1380  -68.2930 P.3   2006  NAD2006     0.2189
     25  O1N       41.2130   46.1730  -69.3680 O.2   2006  NAD2006    -0.5170
     26  O2N       41.9250   48.4810  -68.7280 O.3   2006  NAD2006    -0.4371
     27  O5D       40.3550   47.0540  -67.1770 O.3   2006  NAD2006    -0.3112
     28  C5D       39.8490   48.2580  -66.6240 C.3   2006  NAD2006     0.1813
     29  C4D       38.8570   47.8660  -65.5720 C.3   2006  NAD2006     0.1799
     30  O4D       37.6170   47.5920  -66.2650 O.3   2006  NAD2006    -0.3327
     31  C3D       39.1770   46.5990  -64.7860 C.3   2006  NAD2006     0.2158
     32  O3D       39.0470   46.8430  -63.3790 O.3   2006  NAD2006    -0.2175
     33  C2D       38.1400   45.6080  -65.3190 C.3   2006  NAD2006     0.2309
     34  O2D       37.7910   44.6460  -64.3110 O.3   2006  NAD2006    -0.2158
     35  C1D       36.9980   46.5120  -65.6640 C.3   2006  NAD2006     0.2263
     36  N1N       36.0320   45.8900  -66.5740 N.pl3 2006  NAD2006    -0.2787
     37  C2N       34.8990   45.2650  -66.0590 C.3   2006  NAD2006     0.1244
     38  C3N       33.9120   44.5720  -66.9330 C.2   2006  NAD2006     0.0544
     39  C7N       32.7600   43.9310  -66.2530 C.2   2006  NAD2006     0.2818
     40  O7N       32.5910   43.9770  -64.9270 O.2   2006  NAD2006    -0.2670
     41  N7N       31.9240   43.3360  -66.9550 N.am  2006  NAD2006    -0.0839
     42  C4N       34.1290   44.6050  -68.4370 C.2   2006  NAD2006     0.0033
     43  C5N       35.3730   45.3380  -68.8210 C.2   2006  NAD2006     0.0157
     44  C6N       36.2240   45.9050  -67.9910 C.2   2006  NAD2006     0.0633
@<TRIPOS>BOND
     1    19    20    1
     2    19    17    2
     3    18    17    1
     4    20    21    1
     5    17    16    1
     6    21    22    2
     7    16    22    1
     8    16    15    2
     9    22    13    1
    10    25    24    2
    11    15    14    1
    12     7    12    1
    13     7     6    1
    14    43    42    1
    15    43    44    2
    16    13    14    1
    17    13    12    1
    18    26    24    1
    19    42    38    2
    20    12    10    1
    21    24    23    1
    22    24    27    1
    23     6     5    1
    24     6     8    1
    25    44    36    1
    26     5     4    1
    27    23     1    1
    28    27    28    1
    29     4     1    1
    30    41    39   am
    31    38    39    1
    32    38    37    1
    33    10     8    1
    34    10    11    1
    35     8     9    1
    36    28    29    1
    37    36    37    1
    38    36    35    1
    39    30    35    1
    40    30    29    1
    41    39    40    2
    42     1     3    2
    43     1     2    1
    44    35    33    1
    45    29    31    1
    46    33    31    1
    47    33    34    1
    48    31    32    1
