@<TRIPOS>MOLECULE
1m8p_PPS_A_1.pdb
 31 33 0 0 0
SMALL
GASTEIGER

@<TRIPOS>ATOM
      1  S2        19.1050   52.1120   45.9830 S.3   574  PPS574      0.0049
      2  OS1       17.7430   51.9710   46.5210 O.2   574  PPS574     -0.3449
      3  OS2       19.3730   53.3910   45.2980 O.2   574  PPS574     -0.3449
      4  OS3       20.1110   51.8410   47.0080 O.3   574  PPS574     -0.2679
      5  O6P       19.2730   50.9550   44.8670 O.3   574  PPS574     -0.1945
      6  P2        18.4610   50.8170   43.4810 P.3   574  PPS574      0.2383
      7  O4P       17.3150   49.9360   43.7920 O.3   574  PPS574     -0.4361
      8  O5P       18.1810   52.2080   43.0340 O.2   574  PPS574     -0.5161
      9  O5'       19.4480   50.0920   42.3900 O.3   574  PPS574     -0.3102
     10  C5'       19.6610   48.7460   42.2780 C.3   574  PPS574      0.1813
     11  C4'       19.7930   48.4600   40.8350 C.3   574  PPS574      0.1795
     12  O4'       21.1490   48.8960   40.4880 O.3   574  PPS574     -0.3136
     13  C1'       22.0920   47.7630   40.5010 C.3   574  PPS574      0.3185
     14  N9        23.2330   48.0400   41.3270 N.pl3 574  PPS574     -0.1439
     15  C4        23.3560   48.0580   42.7060 C.2   574  PPS574      0.3518
     16  N3        22.3510   47.7940   43.6230 N.2   574  PPS574     -0.0055
     17  C2        22.8880   47.9260   44.8230 C.3   574  PPS574      0.5254
     18  N1        24.1660   48.2560   45.2160 N.2   574  PPS574      0.0021
     19  C6        25.1370   48.5110   44.3050 C.2   574  PPS574      0.4393
     20  N6        26.3850   48.8380   44.6690 N.pl3 574  PPS574      0.2180
     21  C5        24.7000   48.4030   42.9560 C.2   574  PPS574      0.2526
     22  N7        25.3810   48.5840   41.7740 N.2   574  PPS574     -0.2095
     23  C8        24.4620   48.3560   40.8750 C.3   574  PPS574      0.3377
     24  C2'       21.2090   46.5870   40.9520 C.3   574  PPS574      0.2543
     25  O2'       21.6500   45.2930   40.5060 O.3   574  PPS574     -0.2131
     26  C3'       19.7960   46.9690   40.4070 C.3   574  PPS574      0.1928
     27  O3'       19.8940   46.7640   38.9330 O.3   574  PPS574     -0.2673
     28  P1        18.6230   46.7230   37.9400 P.3   574  PPS574      0.5327
     29  O1P       19.2230   46.1930   36.6720 O.2   574  PPS574     -0.2224
     30  O2P       17.6270   45.8510   38.6610 O.3   574  PPS574     -0.1145
     31  O3P       18.2100   48.1310   37.8570 O.3   574  PPS574     -0.1145
@<TRIPOS>BOND
     1    29    28    2
     2    31    28    1
     3    28    30    1
     4    28    27    1
     5    27    26    1
     6    26    11    1
     7    26    24    1
     8    12    13    1
     9    12    11    1
    10    13    24    1
    11    13    14    1
    12    25    24    1
    13    11    10    1
    14    23    14    1
    15    23    22    1
    16    14    15    1
    17    22    21    2
    18    10     9    1
    19     9     6    1
    20    15    21    1
    21    15    16    2
    22    21    19    1
    23     8     6    2
    24     6     7    1
    25     6     5    1
    26    16    17    1
    27    19    20    1
    28    19    18    2
    29    17    18    1
    30     5     1    1
    31     3     1    2
    32     1     2    2
    33     1     4    1
