@<TRIPOS>MOLECULE
1m8v_U_A_1.pdb
 20 21 0 0 0
SMALL
GASTEIGER

@<TRIPOS>ATOM
      1  P          5.4380   -3.2780    9.8350 P.3   410  U410        0.3942
      2  OP1        4.4670   -4.0080   10.7540 O.3   410  U410       -0.1425
      3  OP2        5.9020   -1.9470   10.4070 O.3   410  U410       -0.1425
      4  O5'        4.5870   -2.9080    8.4940 O.3   410  U410       -0.2926
      5  C5'        3.1560   -3.0140    8.4770 C.3   410  U410        0.1830
      6  C4'        2.6990   -3.8100    7.2760 C.3   410  U410        0.1800
      7  O4'        3.5140   -5.0120    7.1430 O.3   410  U410       -0.3320
      8  C3'        1.2660   -4.3090    7.3900 C.3   410  U410        0.2158
      9  O3'        0.7860   -4.5790    6.0720 O.3   410  U410       -0.2175
     10  C2'        1.4600   -5.6560    8.0770 C.3   410  U410        0.2319
     11  O2'        0.3680   -6.5330    7.8940 O.3   410  U410       -0.2157
     12  C1'        2.7100   -6.1580    7.3610 C.3   410  U410        0.2401
     13  N1         3.5130   -7.1600    8.0800 N.am  410  U410       -0.1766
     14  C2         3.1000   -8.4840    8.0280 C.1   410  U410        0.2845
     15  O2         2.0630   -8.8410    7.4980 O.2   410  U410       -0.1918
     16  N3         3.9480   -9.3790    8.6330 N.2   410  U410       -0.2452
     17  C4         5.1300   -9.0960    9.2870 C.1   410  U410        0.2182
     18  O4         5.8150  -10.0240    9.7270 O.2   410  U410       -0.2085
     19  C5         5.4630   -7.7010    9.3390 C.2   410  U410        0.1242
     20  C6         4.6600   -6.8040    8.7510 C.2   410  U410        0.0929
@<TRIPOS>BOND
     1     9     8    1
     2     7     6    1
     3     7    12    1
     4     6     8    1
     5     6     5    1
     6    12    10    1
     7    12    13    1
     8     8    10    1
     9    15    14    2
    10    11    10    1
    11    14    13   am
    12    14    16    2
    13    13    20    1
    14     5     4    1
    15     4     1    1
    16    16    17    2
    17    20    19    2
    18    17    19    1
    19    17    18    2
    20     1     3    1
    21     1     2    1
