@<TRIPOS>MOLECULE
1m98_HEQ_A_1.pdb
 42 43 0 0 0
SMALL
GASTEIGER

@<TRIPOS>ATOM
      1  C32       48.3970   -6.2950   21.9720 C.3   350  HEQ350      0.0044
      2  C1        46.9810   -6.7830   21.7610 C.3   350  HEQ350      0.0208
      3  C31       46.9680   -8.2070   21.2660 C.3   350  HEQ350      0.0044
      4  C2        46.3820   -6.7450   23.1370 C.3   350  HEQ350      0.0372
      5  C3        45.2930   -5.8010   23.3550 C.3   350  HEQ350      0.1563
      6  O3        45.2300   -5.4280   24.6610 O.3   350  HEQ350     -0.2228
      7  C4        45.1840   -4.5920   22.4920 C.3   350  HEQ350      0.0546
      8  C5        45.4810   -4.8990   21.0890 C.2   350  HEQ350     -0.0453
      9  C33       44.8670   -4.0170   20.0010 C.3   350  HEQ350      0.0261
     10  C6        46.2760   -5.8920   20.7220 C.2   350  HEQ350     -0.0305
     11  C7        46.5880   -6.0480   19.2700 C.2   350  HEQ350     -0.0052
     12  C8        45.7510   -6.3710   18.2600 C.2   350  HEQ350     -0.0046
     13  C9        46.2460   -6.4180   16.8750 C.2   350  HEQ350     -0.0219
     14  C34       47.7300   -6.2990   16.6290 C.3   350  HEQ350      0.0310
     15  C10       45.3680   -6.5450   15.8480 C.2   350  HEQ350     -0.0043
     16  C11       45.6590   -6.4880   14.4610 C.2   350  HEQ350     -0.0006
     17  C12       44.7340   -6.8200   13.5050 C.2   350  HEQ350     -0.0043
     18  C13       44.9610   -6.6690   12.0750 C.2   350  HEQ350     -0.0218
     19  C35       46.3370   -6.4180   11.5190 C.3   350  HEQ350      0.0310
     20  C14       43.8490   -6.6640   11.2670 C.2   350  HEQ350     -0.0043
     21  C15       43.8340   -6.3840    9.8570 C.2   350  HEQ350     -0.0003
     22  C16       42.6890   -6.4090    9.1390 C.2   350  HEQ350     -0.0003
     23  C17       42.5950   -5.9530    7.7830 C.2   350  HEQ350     -0.0043
     24  C18       41.3950   -5.8940    7.0580 C.2   350  HEQ350     -0.0218
     25  C36       40.1330   -6.4380    7.6560 C.3   350  HEQ350      0.0310
     26  C19       41.3760   -5.2550    5.8000 C.2   350  HEQ350     -0.0043
     27  C20       40.3040   -5.1360    4.9160 C.2   350  HEQ350     -0.0006
     28  C21       40.5140   -4.3480    3.7390 C.2   350  HEQ350     -0.0043
     29  C22       39.6650   -4.3960    2.6700 C.2   350  HEQ350     -0.0219
     30  C37       38.5150   -5.3560    2.7620 C.3   350  HEQ350      0.0310
     31  C23       39.8560   -3.5710    1.5120 C.2   350  HEQ350     -0.0046
     32  C24       38.8270   -3.4320    0.6740 C.2   350  HEQ350     -0.0048
     33  C25       38.6570   -2.5850   -0.4740 C.2   350  HEQ350     -0.0240
     34  C26       38.4550   -2.9720   -1.7100 C.2   350  HEQ350      0.0089
     35  C38       38.4850   -4.4550   -2.0990 C.3   350  HEQ350      0.0337
     36  C27       38.0980   -1.9900   -2.7070 C.2   350  HEQ350      0.1688
     37  O27       37.6410   -2.3830   -3.8040 O.2   350  HEQ350     -0.2917
     38  C28       38.2050   -0.5700   -2.4820 C.3   350  HEQ350      0.0691
     39  C29       38.7800   -0.1760   -1.2070 C.3   350  HEQ350      0.0121
     40  C30       38.4980   -1.1450   -0.0950 C.3   350  HEQ350      0.0191
     41  C40       39.4010   -0.8880    1.1020 C.3   350  HEQ350      0.0044
     42  C39       37.0510   -0.8180    0.3010 C.3   350  HEQ350      0.0044
@<TRIPOS>BOND
     1    37    36    2
     2    36    38    1
     3    36    34    1
     4    38    39    1
     5    35    34    1
     6    34    33    2
     7    39    40    1
     8    33    40    1
     9    33    32    1
    10    40    42    1
    11    40    41    1
    12    32    31    2
    13    31    29    1
    14    29    30    1
    15    29    28    2
    16    28    27    1
    17    27    26    2
    18    26    24    1
    19    24    25    1
    20    24    23    2
    21    23    22    1
    22    22    21    2
    23    21    20    1
    24    20    18    2
    25    19    18    1
    26    18    17    1
    27    17    16    2
    28    16    15    1
    29    15    13    2
    30    14    13    1
    31    13    12    1
    32    12    11    2
    33    11    10    1
    34     9     8    1
    35    10     8    2
    36    10     2    1
    37     8     7    1
    38     3     2    1
    39     2     1    1
    40     2     4    1
    41     7     5    1
    42     4     5    1
    43     5     6    1
