@<TRIPOS>MOLECULE
1m99_GTS_A_1.pdb
 23 22 0 0 0
SMALL
GASTEIGER

@<TRIPOS>ATOM
      1  N1        76.2410   59.9350   -5.8120 N.3   220  GTS220     -0.1208
      2  CA1       75.1400   59.2470   -6.4480 C.3   220  GTS220      0.1948
      3  C1        73.9110   59.6350   -5.6220 C.2   220  GTS220      0.3819
      4  O11       72.8260   59.6720   -6.1800 O.co2 220  GTS220     -0.2441
      5  O12       74.0480   59.9150   -4.4290 O.co2 220  GTS220     -0.2441
      6  CB1       75.4360   57.7470   -6.4300 C.3   220  GTS220      0.0402
      7  CG1       74.3110   56.9290   -7.1050 C.3   220  GTS220      0.0889
      8  CD1       74.6500   55.4550   -7.2910 C.2   220  GTS220      0.2419
      9  OE1       75.7380   54.9750   -6.9320 O.2   220  GTS220     -0.2733
     10  N2        73.6470   54.7590   -7.8660 N.am  220  GTS220     -0.1961
     11  CA2       73.7130   53.3120   -8.1370 C.3   220  GTS220      0.1924
     12  C2        73.3440   53.0130   -9.5620 C.2   220  GTS220      0.2634
     13  O2        73.1640   51.8190   -9.8800 O.2   220  GTS220     -0.2714
     14  CB2       72.7060   52.4990   -7.3430 C.3   220  GTS220      0.1362
     15  SG2       72.7790   52.5440   -5.5610 S.3   220  GTS220     -0.1938
     16  O1S       74.1720   52.3820   -5.2140 O.3   220  GTS220     -0.3074
     17  O2S       71.9700   51.4190   -5.2360 O.3   220  GTS220     -0.3074
     18  O3S       72.2320   53.8070   -5.1690 O.3   220  GTS220     -0.3074
     19  N3        73.2120   54.0310  -10.4080 N.am  220  GTS220     -0.1917
     20  CA3       72.8350   53.7690  -11.7890 C.3   220  GTS220      0.2285
     21  C3        73.9940   53.5250  -12.7060 C.2   220  GTS220      0.3865
     22  O31       73.7140   53.3200  -13.8870 O.co2 220  GTS220     -0.2437
     23  O32       75.1340   53.5580  -12.2360 O.co2 220  GTS220     -0.2437
@<TRIPOS>BOND
     1    22    21   ar
     2    21    23   ar
     3    21    20    1
     4    20    19    1
     5    19    12   am
     6    13    12    2
     7    12    11    1
     8    11    10    1
     9    11    14    1
    10    10     8   am
    11    14    15    1
    12     8     7    1
    13     8     9    2
    14     7     6    1
    15     2     6    1
    16     2     1    1
    17     2     3    1
    18     4     3   ar
    19     3     5   ar
    20    15    17    1
    21    15    16    1
    22    15    18    1
