@<TRIPOS>MOLECULE
1m9a_GTX_A_1.pdb
 26 25 0 0 0
SMALL
GASTEIGER

@<TRIPOS>ATOM
      1  N1        76.2410   60.0050   -5.6480 N.3   220  GTX220     -0.1208
      2  CA1       75.1510   59.3490   -6.3230 C.3   220  GTX220      0.1948
      3  C1        73.9050   59.6880   -5.4940 C.2   220  GTX220      0.3819
      4  O11       72.8100   59.6740   -6.0480 O.co2 220  GTX220     -0.2441
      5  O12       74.0350   59.9830   -4.3020 O.co2 220  GTX220     -0.2441
      6  CB1       75.4630   57.8530   -6.3870 C.3   220  GTX220      0.0402
      7  CG1       74.3470   57.0820   -7.1130 C.3   220  GTX220      0.0889
      8  CD1       74.5670   55.5810   -7.1610 C.2   220  GTX220      0.2418
      9  OE1       75.5600   55.0250   -6.6650 O.2   220  GTX220     -0.2733
     10  N2        73.5710   54.9470   -7.7780 N.am  220  GTX220     -0.1969
     11  CA2       73.5370   53.4970   -7.9260 C.3   220  GTX220      0.1834
     12  C2        73.1020   53.1200   -9.3250 C.2   220  GTX220      0.2626
     13  O2        72.7150   51.9500   -9.5400 O.2   220  GTX220     -0.2714
     14  CB2       72.5350   52.8830   -6.9640 C.3   220  GTX220      0.0886
     15  SG2       72.8260   53.1760   -5.2030 S.3   220  GTX220     -0.1376
     16  C1S       73.7310   51.8290   -4.3780 C.3   220  GTX220      0.0623
     17  C2S       73.1090   51.2530   -3.1100 C.3   220  GTX220      0.0373
     18  C3S       73.5710   52.0870   -1.8910 C.2   220  GTX220     -0.0298
     19  C4S       73.0220   51.6370   -0.4940 C.2   220  GTX220     -0.0307
     20  C5S       73.4030   52.3940    0.8300 C.3   220  GTX220      0.0257
     21  C6S       74.0960   53.7780    0.7140 C.3   220  GTX220      0.0050
     22  N3        73.1500   54.0760  -10.2600 N.am  220  GTX220     -0.1917
     23  CA3       72.7260   53.7930  -11.6230 C.3   220  GTX220      0.2285
     24  C3        73.8500   53.6010  -12.5960 C.2   220  GTX220      0.3865
     25  O31       73.5250   53.4090  -13.7680 O.co2 220  GTX220     -0.2437
     26  O32       75.0080   53.6750  -12.1830 O.co2 220  GTX220     -0.2437
@<TRIPOS>BOND
     1    25    24   ar
     2    24    26   ar
     3    24    23    1
     4    23    22    1
     5    22    12   am
     6    13    12    2
     7    12    11    1
     8    11    10    1
     9    11    14    1
    10    10     8   am
    11     8     7    1
    12     8     9    2
    13     7     6    1
    14    14    15    1
    15     6     2    1
    16     2     1    1
    17     2     3    1
    18     4     3   ar
    19     3     5   ar
    20    15    16    1
    21    16    17    1
    22    17    18    1
    23    18    19    2
    24    19    20    1
    25    21    20    1
