@<TRIPOS>MOLECULE
1m9b_IBG_A_1.pdb
 28 28 0 0 0
SMALL
GASTEIGER

@<TRIPOS>ATOM
      1  N1        76.9740   60.7630   -5.8950 N.3   220  IBG220     -0.1208
      2  CA1       75.9800   60.0400   -6.6610 C.3   220  IBG220      0.1948
      3  C1        74.6400   60.3670   -6.0210 C.2   220  IBG220      0.3819
      4  O11       73.6800   60.5020   -6.7540 O.co2 220  IBG220     -0.2441
      5  O12       74.5720   60.4870   -4.7890 O.co2 220  IBG220     -0.2441
      6  CB1       76.3260   58.5440   -6.6380 C.3   220  IBG220      0.0402
      7  CG1       75.2990   57.7340   -7.4130 C.3   220  IBG220      0.0889
      8  CD1       75.5350   56.2360   -7.3530 C.2   220  IBG220      0.2418
      9  OE1       76.4970   55.7120   -6.7380 O.2   220  IBG220     -0.2733
     10  N2        74.6030   55.5670   -7.9980 N.am  220  IBG220     -0.1969
     11  CA2       74.5880   54.1130   -8.0520 C.3   220  IBG220      0.1834
     12  C2        74.1680   53.6580   -9.4360 C.2   220  IBG220      0.2626
     13  O2        73.8320   52.4620   -9.6160 O.2   220  IBG220     -0.2714
     14  CB2       73.5980   53.5240   -7.0520 C.3   220  IBG220      0.0889
     15  SG2       73.8230   53.9410   -5.2860 S.3   220  IBG220     -0.1331
     16  N3        74.1930   54.5940  -10.4050 N.am  220  IBG220     -0.1917
     17  CA3       73.6660   54.3390  -11.7330 C.3   220  IBG220      0.2285
     18  C3        74.7280   54.3300  -12.8060 C.2   220  IBG220      0.3865
     19  O31       74.3360   54.1460  -13.9630 O.co2 220  IBG220     -0.2437
     20  O32       75.9040   54.5140  -12.4820 O.co2 220  IBG220     -0.2437
     21  CS        75.4200   53.0300   -5.0310 C.3   220  IBG220      0.0842
     22  C1S       76.0590   53.5290   -3.7210 C.ar  220  IBG220     -0.0059
     23  C2S       75.5430   53.2160   -2.4360 C.ar  220  IBG220      0.0269
     24  C3S       76.1890   53.7110   -1.2580 C.ar  220  IBG220      0.0055
     25  I2S       73.7860   51.9960   -2.1530 I     220  IBG220     -0.0428
     26  C4S       77.3330   54.5030   -1.3340 C.ar  220  IBG220      0.0004
     27  C5S       77.8430   54.8120   -2.6130 C.ar  220  IBG220     -0.0003
     28  C6S       77.2220   54.3350   -3.7980 C.ar  220  IBG220     -0.0030
@<TRIPOS>BOND
     1    19    18   ar
     2    18    20   ar
     3    18    17    1
     4    17    16    1
     5    16    12   am
     6    13    12    2
     7    12    11    1
     8    11    10    1
     9    11    14    1
    10    10     8   am
    11     7     8    1
    12     7     6    1
    13     8     9    2
    14    14    15    1
    15     4     3   ar
    16     2     6    1
    17     2     3    1
    18     2     1    1
    19     3     5   ar
    20    15    21    1
    21    21    22    1
    22    28    22   ar
    23    28    27   ar
    24    22    23   ar
    25    27    26   ar
    26    23    25    1
    27    23    24   ar
    28    26    24   ar
