@<TRIPOS>MOLECULE
1m9h_NAD_A_1.pdb
 44 48 0 0 0
SMALL
GASTEIGER

@<TRIPOS>ATOM
      1  PA        36.8300   16.3210    5.0790 P.3   300  NAD300      0.2189
      2  O1A       37.1480   17.6070    5.7340 O.3   300  NAD300     -0.4371
      3  O2A       37.4470   15.0950    5.6710 O.2   300  NAD300     -0.5170
      4  O5B       37.2260   16.4140    3.6390 O.3   300  NAD300     -0.3112
      5  C5B       37.1320   15.2430    2.8490 C.3   300  NAD300      0.1813
      6  C4B       37.9200   15.3680    1.5640 C.3   300  NAD300      0.1821
      7  O4B       39.3030   15.6420    1.8800 O.3   300  NAD300     -0.3135
      8  C3B       37.8820   14.1140    0.6940 C.3   300  NAD300      0.2184
      9  O3B       37.3160   14.4100   -0.5800 O.3   300  NAD300     -0.2174
     10  C2B       39.3300   13.6490    0.5790 C.3   300  NAD300      0.2570
     11  O2B       39.7180   13.3610   -0.7480 O.3   300  NAD300     -0.2130
     12  C1B       40.1540   14.8040    1.1300 C.3   300  NAD300      0.3186
     13  N9A       41.1860   14.2990    2.0070 N.pl3 300  NAD300     -0.1439
     14  C8A       41.4040   13.4460    3.0470 C.3   300  NAD300      0.3377
     15  N7A       42.6630   13.3340    3.3740 N.2   300  NAD300     -0.2095
     16  C5A       43.3100   14.1580    2.4720 C.2   300  NAD300      0.2526
     17  C6A       44.6610   14.4710    2.2860 C.2   300  NAD300      0.4393
     18  N6A       45.6410   13.9660    3.0510 N.pl3 300  NAD300      0.2180
     19  N1A       44.9710   15.3260    1.2890 N.2   300  NAD300      0.0021
     20  C2A       43.9830   15.8180    0.5260 C.3   300  NAD300      0.5254
     21  N3A       42.6760   15.5890    0.6030 N.2   300  NAD300     -0.0055
     22  C4A       42.4090   14.7430    1.6060 C.2   300  NAD300      0.3518
     23  O3        35.3230   16.1520    4.9960 O.3   300  NAD300     -0.2703
     24  PN        34.3410   14.8770    5.4430 P.3   300  NAD300      0.2189
     25  O1N       32.9300   15.2990    5.2170 O.3   300  NAD300     -0.4371
     26  O2N       34.7660   13.6240    4.7460 O.2   300  NAD300     -0.5170
     27  O5D       34.5320   14.7240    6.9460 O.3   300  NAD300     -0.3112
     28  C5D       35.1770   13.5580    7.5930 C.3   300  NAD300      0.1813
     29  C4D       34.2100   12.5260    8.2380 C.3   300  NAD300      0.1799
     30  O4D       33.3120   13.1410    9.2050 O.3   300  NAD300     -0.3327
     31  C3D       33.2990   11.7440    7.2940 C.3   300  NAD300      0.2158
     32  O3D       33.9870   10.6300    6.7320 O.3   300  NAD300     -0.2175
     33  C2D       32.1360   11.3040    8.2060 C.3   300  NAD300      0.2309
     34  O2D       32.3140   10.0040    8.7900 O.3   300  NAD300     -0.2158
     35  C1D       32.0750   12.4190    9.2690 C.3   300  NAD300      0.2263
     36  N1N       30.9380   13.3690    9.1090 N.pl3 300  NAD300     -0.2787
     37  C2N       29.9240   13.6370   10.0100 C.3   300  NAD300      0.1244
     38  C3N       28.9240   14.5900    9.7520 C.2   300  NAD300      0.0544
     39  C7N       27.7940   14.9090   10.7420 C.2   300  NAD300      0.2818
     40  O7N       26.7780   15.4520   10.3170 O.2   300  NAD300     -0.2670
     41  N7N       28.0020   14.6110   12.0400 N.am  300  NAD300     -0.0839
     42  C4N       28.9440   15.3090    8.5460 C.2   300  NAD300      0.0033
     43  C5N       29.9740   15.0460    7.6220 C.2   300  NAD300      0.0157
     44  C6N       30.9380   14.0740    7.9500 C.2   300  NAD300      0.0633
@<TRIPOS>BOND
     1    11    10    1
     2     9     8    1
     3    20    21    1
     4    20    19    1
     5    10     8    1
     6    10    12    1
     7    21    22    2
     8     8     6    1
     9    12     7    1
    10    12    13    1
    11    19    17    2
    12     6     7    1
    13     6     5    1
    14    22    13    1
    15    22    16    1
    16    13    14    1
    17    17    16    1
    18    17    18    1
    19    16    15    2
    20     5     4    1
    21    14    15    1
    22     4     1    1
    23    26    24    2
    24    23     1    1
    25    23    24    1
    26     1     3    2
    27     1     2    1
    28    25    24    1
    29    24    27    1
    30    32    31    1
    31    27    28    1
    32    31    33    1
    33    31    29    1
    34    28    29    1
    35    43    44    2
    36    43    42    1
    37    44    36    1
    38    33    34    1
    39    33    35    1
    40    29    30    1
    41    42    38    2
    42    36    35    1
    43    36    37    1
    44    30    35    1
    45    38    37    1
    46    38    39    1
    47    40    39    2
    48    39    41   am
