@<TRIPOS>MOLECULE
1m9j_CLW_A_1.pdb
 11 12 0 0 0
SMALL
GASTEIGER

@<TRIPOS>ATOM
      1  C1        11.9710   12.2940   55.3350 C.2   906  CLW906      0.0107
      2  C2        12.0620   13.1770   54.2330 C.2   906  CLW906      0.0416
      3  C3        12.9940   14.2420   54.2830 C.2   906  CLW906      0.1883
      4  C4        13.8260   14.4610   55.3620 C.2   906  CLW906      0.1654
      5  C5        13.7880   13.5400   56.6040 C.3   906  CLW906      0.1012
      6  C6        12.7750   12.4270   56.4960 C.2   906  CLW906      0.0427
      7 CL1        12.5630   11.2860   57.7930 Cl    906  CLW906     -0.0865
      8  O1        13.2540   15.2290   53.3320 O.3   906  CLW906     -0.3668
      9  C7        14.2160   16.0020   53.8510 C.1   906  CLW906      0.3775
     10  N1        14.5820   15.5500   55.0910 N.2   906  CLW906     -0.3050
     11  O2        14.6770   16.9590   53.2820 O.2   906  CLW906     -0.1690
@<TRIPOS>BOND
     1    11     9    2
     2     8     9    1
     3     8     3    1
     4     9    10    2
     5     2     3    2
     6     2     1    1
     7     3     4    1
     8    10     4    2
     9     1     6    2
    10     4     5    1
    11     6     5    1
    12     6     7    1
