@<TRIPOS>MOLECULE
1m9j_HEM_A_1.pdb
 43 50 0 0 0
SMALL
GASTEIGER

@<TRIPOS>ATOM
      1 FE         15.5920   10.4010   54.6460 Fe    901  HEM901      0.0000
      2  CHA       13.7050    9.9830   51.8260 C.2   901  HEM901      0.0000
      3  CHB       16.5680   13.4150   53.4930 C.2   901  HEM901      0.0000
      4  CHC       16.5360   11.2840   57.7900 C.2   901  HEM901      0.0000
      5  CHD       14.1040    7.5930   55.9660 C.2   901  HEM901      0.0000
      6  NA        15.1550   11.5290   52.9830 N.ar  901  HEM901      0.0000
      7  C1A       14.3910   11.1750   51.9250 C.ar  901  HEM901      0.0000
      8  C2A       14.4700   12.1870   50.9150 C.ar  901  HEM901      0.0000
      9  C3A       15.3380   13.1350   51.3720 C.ar  901  HEM901      0.0000
     10  C4A       15.7420   12.7090   52.6530 C.ar  901  HEM901      0.0000
     11  CMA       15.7810   14.4030   50.6560 C.3   901  HEM901      0.0000
     12  CAA       13.6640   12.3130   49.6250 C.3   901  HEM901      0.0000
     13  CBA       12.3170   12.9820   49.8510 C.3   901  HEM901      0.0000
     14  CGA       11.6220   13.3850   48.5630 C.2   901  HEM901      0.0000
     15  O1A       10.4380   13.0240   48.4030 O.co2 901  HEM901      0.0000
     16  O2A       12.2290   14.0950   47.7250 O.co2 901  HEM901      0.0000
     17  NB        16.4540   12.0470   55.4960 N.2   901  HEM901      0.0000
     18  C1B       16.9200   13.1250   54.8150 C.2   901  HEM901      0.0000
     19  C2B       17.6890   13.9630   55.6830 C.2   901  HEM901      0.0000
     20  C3B       17.6460   13.3820   56.9290 C.2   901  HEM901      0.0000
     21  C4B       16.8620   12.1890   56.7820 C.2   901  HEM901      0.0000
     22  CMB       18.4200   15.2300   55.2700 C.3   901  HEM901      0.0000
     23  CAB       18.1770   13.8780   58.1100 C.2   901  HEM901      0.0000
     24  CBB       19.1610   13.2130   58.7940 C.2   901  HEM901      0.0000
     25  NC        15.3290    9.6060   56.5330 N.ar  901  HEM901      0.0000
     26  C1C       15.8220   10.0940   57.7000 C.ar  901  HEM901      0.0000
     27  C2C       15.5780    9.1510   58.8250 C.ar  901  HEM901      0.0000
     28  C3C       14.9500    8.0610   58.2610 C.ar  901  HEM901      0.0000
     29  C4C       14.7960    8.3840   56.8580 C.ar  901  HEM901      0.0000
     30  CMC       15.9070    9.4410   60.3110 C.3   901  HEM901      0.0000
     31  CAC       14.4880    6.8850   58.8300 C.2   901  HEM901      0.0000
     32  CBC       14.7690    6.4170   60.0850 C.2   901  HEM901      0.0000
     33  ND        14.2540    9.0080   53.9630 N.2   901  HEM901      0.0000
     34  C1D       13.8370    7.8880   54.6320 C.2   901  HEM901      0.0000
     35  C2D       12.9500    7.0960   53.8120 C.2   901  HEM901      0.0000
     36  C3D       12.8160    7.7810   52.6530 C.2   901  HEM901      0.0000
     37  C4D       13.6400    8.9700   52.7610 C.2   901  HEM901      0.0000
     38  CMD       12.3400    5.7450   54.1880 C.3   901  HEM901      0.0000
     39  CAD       11.8430    7.4940   51.5210 C.3   901  HEM901      0.0000
     40  CBD       10.6110    8.3970   51.7440 C.3   901  HEM901      0.0000
     41  CGD        9.7090    8.5040   50.5190 C.2   901  HEM901      0.0000
     42  O1D        8.5290    8.9050   50.6600 O.co2 901  HEM901      0.0000
     43  O2D       10.1850    8.1980   49.4040 O.co2 901  HEM901      0.0000
@<TRIPOS>BOND
     1    16    14   ar
     2    15    14   ar
     3    14    13    1
     4    43    41   ar
     5    12    13    1
     6    12     8    1
     7    41    42   ar
     8    41    40    1
     9    11     9    1
    10     8     9   ar
    11     8     7   ar
    12     9    10   ar
    13    39    40    1
    14    39    36    1
    15     2     7    2
    16     2    37    1
    17     7     6   ar
    18    10     6   ar
    19    10     3    2
    20    36    37    1
    21    36    35    2
    22    37    33    2
    23     6     1    1
    24     3    18    1
    25    35    38    1
    26    35    34    1
    27    33    34    1
    28    33     1    1
    29    34     5    2
    30     1    17    1
    31     1    25    1
    32    18    17    2
    33    18    19    1
    34    22    19    1
    35    17    21    1
    36    19    20    2
    37     5    29    1
    38    25    29   ar
    39    25    26   ar
    40    21    20    1
    41    21     4    2
    42    29    28   ar
    43    20    23    1
    44    26     4    1
    45    26    27   ar
    46    23    24    2
    47    28    27   ar
    48    28    31    1
    49    27    30    1
    50    31    32    2
