@<TRIPOS>MOLECULE
1m9k_7NI_A_1.pdb
 12 13 0 0 0
SMALL
GASTEIGER

@<TRIPOS>ATOM
      1  N1        13.9100   14.1740   56.7750 N.2   906  7NI906     -0.1462
      2  N2        13.7010   13.3010   57.7610 N.2   906  7NI906     -0.1463
      3  C3        12.9080   12.3220   57.4440 C.2   906  7NI906      0.1234
      4  C4        11.7580   11.9070   55.2120 C.2   906  7NI906     -0.0182
      5  C5        11.6190   12.5050   53.8270 C.3   906  7NI906      0.0539
      6  C6        12.2860   13.6790   53.4920 C.2   906  7NI906      0.0042
      7  C7        13.0920   14.3320   54.4120 C.2   906  7NI906      0.1582
      8  C8        13.2210   13.8140   55.6400 C.2   906  7NI906      0.1261
      9  C9        12.5440   12.5830   56.0470 C.2   906  7NI906      0.0381
     10  N10       13.7610   15.5640   53.9780 N.pl3 906  7NI906      0.0589
     11  O11       13.5800   15.9560   52.8320 O.2   906  7NI906     -0.1261
     12  O12       14.4540   16.0950   54.8150 O.2   906  7NI906     -0.1261
@<TRIPOS>BOND
     1    11    10    2
     2     6     5    1
     3     6     7    2
     4     5     4    1
     5    10     7    1
     6    10    12    2
     7     7     8    1
     8     4     9    2
     9     8     9    1
    10     8     1    2
    11     9     3    1
    12     1     2    1
    13     3     2    2
