@<TRIPOS>MOLECULE
1m9k_HEM_A_1.pdb
 43 50 0 0 0
SMALL
GASTEIGER

@<TRIPOS>ATOM
      1 FE         15.3140   10.3130   54.6560 Fe    901  HEM901      0.0000
      2  CHA       13.5000    9.9190   51.7230 C.2   901  HEM901      0.0000
      3  CHB       16.3540   13.3840   53.5580 C.2   901  HEM901      0.0000
      4  CHC       16.2720   11.1610   57.8620 C.2   901  HEM901      0.0000
      5  CHD       13.8180    7.4420   55.8960 C.2   901  HEM901      0.0000
      6  NA        14.9510   11.4410   52.9860 N.ar  901  HEM901      0.0000
      7  C1A       14.2270   11.0860   51.8600 C.ar  901  HEM901      0.0000
      8  C2A       14.3660   12.0970   50.8340 C.ar  901  HEM901      0.0000
      9  C3A       15.1740   13.0580   51.3640 C.ar  901  HEM901      0.0000
     10  C4A       15.5460   12.6500   52.6940 C.ar  901  HEM901      0.0000
     11  CMA       15.5980   14.3650   50.7110 C.3   901  HEM901      0.0000
     12  CAA       13.7650   12.1090   49.4250 C.3   901  HEM901      0.0000
     13  CBA       12.4140   12.8010   49.3790 C.3   901  HEM901      0.0000
     14  CGA       12.1090   13.3770   48.0020 C.2   901  HEM901      0.0000
     15  O1A       11.3140   12.7670   47.2640 O.co2 901  HEM901      0.0000
     16  O2A       12.6700   14.4370   47.6480 O.co2 901  HEM901      0.0000
     17  NB        16.2030   11.9150   55.5200 N.2   901  HEM901      0.0000
     18  C1B       16.6690   13.0440   54.8800 C.2   901  HEM901      0.0000
     19  C2B       17.4110   13.8830   55.7680 C.2   901  HEM901      0.0000
     20  C3B       17.3900   13.3020   56.9920 C.2   901  HEM901      0.0000
     21  C4B       16.6140   12.0650   56.8440 C.2   901  HEM901      0.0000
     22  CMB       18.1090   15.2140   55.4510 C.3   901  HEM901      0.0000
     23  CAB       18.0080   13.8440   58.1570 C.3   901  HEM901      0.0000
     24  CBB       18.5320   13.0560   59.1820 C.3   901  HEM901      0.0000
     25  NC        15.0480    9.4960   56.5090 N.ar  901  HEM901      0.0000
     26  C1C       15.5370    9.9870   57.7090 C.ar  901  HEM901      0.0000
     27  C2C       15.2470    9.0850   58.7930 C.ar  901  HEM901      0.0000
     28  C3C       14.6030    7.9790   58.2450 C.ar  901  HEM901      0.0000
     29  C4C       14.4780    8.2620   56.8150 C.ar  901  HEM901      0.0000
     30  CMC       15.5050    9.4060   60.2880 C.3   901  HEM901      0.0000
     31  CAC       14.1010    6.8100   58.9170 C.3   901  HEM901      0.0000
     32  CBC       14.5770    6.2870   60.1260 C.3   901  HEM901      0.0000
     33  ND        13.9870    8.9640   53.9390 N.2   901  HEM901      0.0000
     34  C1D       13.5920    7.7730   54.5630 C.2   901  HEM901      0.0000
     35  C2D       12.7660    6.9790   53.6750 C.2   901  HEM901      0.0000
     36  C3D       12.6420    7.7030   52.5360 C.2   901  HEM901      0.0000
     37  C4D       13.3910    8.9290   52.6890 C.2   901  HEM901      0.0000
     38  CMD       12.1370    5.6230   53.9880 C.3   901  HEM901      0.0000
     39  CAD       11.8140    7.3140   51.3230 C.3   901  HEM901      0.0000
     40  CBD       10.4270    7.9430   51.4820 C.3   901  HEM901      0.0000
     41  CGD        9.5410    7.7990   50.2510 C.2   901  HEM901      0.0000
     42  O1D        8.4450    8.4090   50.2290 O.co2 901  HEM901      0.0000
     43  O2D        9.9340    7.0820   49.3000 O.co2 901  HEM901      0.0000
@<TRIPOS>BOND
     1    15    14   ar
     2    16    14   ar
     3    14    13    1
     4    43    41   ar
     5    13    12    1
     6    12     8    1
     7    42    41   ar
     8    41    40    1
     9    11     9    1
    10     8     9   ar
    11     8     7   ar
    12    39    40    1
    13    39    36    1
    14     9    10   ar
    15     2     7    2
    16     2    37    1
    17     7     6   ar
    18    36    37    1
    19    36    35    2
    20    37    33    2
    21    10     6   ar
    22    10     3    2
    23     6     1    1
    24     3    18    1
    25    35    38    1
    26    35    34    1
    27    33    34    1
    28    33     1    1
    29    34     5    2
    30     1    17    1
    31     1    25    1
    32    18    17    2
    33    18    19    1
    34    22    19    1
    35    17    21    1
    36    19    20    2
    37     5    29    1
    38    25    29   ar
    39    25    26   ar
    40    29    28   ar
    41    21    20    1
    42    21     4    2
    43    20    23    1
    44    26     4    1
    45    26    27   ar
    46    23    24    1
    47    28    27   ar
    48    28    31    1
    49    27    30    1
    50    31    32    1
