@<TRIPOS>MOLECULE
1m9m_HEM_A_1.pdb
 43 50 0 0 0
SMALL
GASTEIGER

@<TRIPOS>ATOM
      1 FE         15.8230   14.2780   57.2890 Fe    901  HEM901      0.0000
      2  CHA       14.1510   12.7910   54.6880 C.2   901  HEM901      0.0000
      3  CHB       16.1710   17.0970   55.4030 C.2   901  HEM901      0.0000
      4  CHC       16.3770   16.1280   60.1180 C.2   901  HEM901      0.0000
      5  CHD       14.9610   11.5740   59.2710 C.2   901  HEM901      0.0000
      6  NA        15.2280   14.8450   55.3960 N.ar  901  HEM901      0.0000
      7  C1A       14.5820   14.0880   54.4580 C.ar  901  HEM901      0.0000
      8  C2A       14.4520   14.8160   53.2040 C.ar  901  HEM901      0.0000
      9  C3A       15.0560   16.0170   53.4080 C.ar  901  HEM901      0.0000
     10  C4A       15.5400   16.0220   54.7810 C.ar  901  HEM901      0.0000
     11  CMA       15.2100   17.1690   52.4350 C.3   901  HEM901      0.0000
     12  CAA       13.7940   14.3440   51.9050 C.3   901  HEM901      0.0000
     13  CBA       12.3870   14.8340   51.5510 C.3   901  HEM901      0.0000
     14  CGA       11.2940   14.1940   52.3880 C.2   901  HEM901      0.0000
     15  O1A       10.2440   14.8470   52.5970 O.co2 901  HEM901      0.0000
     16  O2A       11.4630   13.0300   52.8200 O.co2 901  HEM901      0.0000
     17  NB        16.2840   16.2490   57.6790 N.2   901  HEM901      0.0000
     18  C1B       16.5330   17.2070   56.7540 C.2   901  HEM901      0.0000
     19  C2B       17.0450   18.4100   57.3880 C.2   901  HEM901      0.0000
     20  C3B       17.0540   18.1690   58.7350 C.2   901  HEM901      0.0000
     21  C4B       16.5670   16.8070   58.9060 C.2   901  HEM901      0.0000
     22  CMB       17.4600   19.6810   56.6700 C.3   901  HEM901      0.0000
     23  CAB       17.3850   19.0970   59.7220 C.3   901  HEM901      0.0000
     24  CBB       18.0830   18.8040   60.8750 C.3   901  HEM901      0.0000
     25  NC        15.6790   13.9200   59.3140 N.ar  901  HEM901      0.0000
     26  C1C       15.9480   14.8130   60.3270 C.ar  901  HEM901      0.0000
     27  C2C       15.7890   14.1660   61.6270 C.ar  901  HEM901      0.0000
     28  C3C       15.4740   12.8580   61.3720 C.ar  901  HEM901      0.0000
     29  C4C       15.3990   12.7350   59.9300 C.ar  901  HEM901      0.0000
     30  CMC       15.8610   14.8790   62.9730 C.3   901  HEM901      0.0000
     31  CAC       15.2550   11.7760   62.2370 C.3   901  HEM901      0.0000
     32  CBC       15.7010   11.6630   63.5450 C.3   901  HEM901      0.0000
     33  ND        14.8510   12.5050   57.0150 N.2   901  HEM901      0.0000
     34  C1D       14.7040   11.4840   57.9170 C.2   901  HEM901      0.0000
     35  C2D       14.0550   10.3580   57.3260 C.2   901  HEM901      0.0000
     36  C3D       13.7840   10.7240   56.0510 C.2   901  HEM901      0.0000
     37  C4D       14.2790   12.0620   55.8590 C.2   901  HEM901      0.0000
     38  CMD       13.7720    9.0370   58.0170 C.3   901  HEM901      0.0000
     39  CAD       13.0640    9.9250   54.9970 C.3   901  HEM901      0.0000
     40  CBD       11.5890   10.3060   54.9460 C.3   901  HEM901      0.0000
     41  CGD       10.8270    9.5290   53.8940 C.2   901  HEM901      0.0000
     42  O1D        9.7140    9.9550   53.5210 O.co2 901  HEM901      0.0000
     43  O2D       11.3460    8.4890   53.4420 O.co2 901  HEM901      0.0000
@<TRIPOS>BOND
     1    13    12    1
     2    13    14    1
     3    12     8    1
     4    14    15   ar
     5    14    16   ar
     6    11     9    1
     7     8     9   ar
     8     8     7   ar
     9     9    10   ar
    10    43    41   ar
    11    42    41   ar
    12    41    40    1
    13     7     2    2
    14     7     6   ar
    15     2    37    1
    16    10     6   ar
    17    10     3    2
    18    40    39    1
    19    39    36    1
    20     6     1    1
    21     3    18    1
    22    37    36    1
    23    37    33    2
    24    36    35    2
    25    22    19    1
    26    18    19    1
    27    18    17    2
    28    33     1    1
    29    33    34    1
    30     1    17    1
    31     1    25    1
    32    35    34    1
    33    35    38    1
    34    19    20    2
    35    17    21    1
    36    34     5    2
    37    20    21    1
    38    20    23    1
    39    21     4    2
    40     5    29    1
    41    25    29   ar
    42    25    26   ar
    43    23    24    1
    44    29    28   ar
    45     4    26    1
    46    26    27   ar
    47    28    27   ar
    48    28    31    1
    49    27    30    1
    50    31    32    1
