@<TRIPOS>MOLECULE
1m9m_6NI_A_1.pdb
 12 13 0 0 0
SMALL
GASTEIGER

@<TRIPOS>ATOM
      1  C6        12.6580   15.9760   57.7200 C.2   906  6NI906      0.1438
      2  C7        13.3080   17.2420   57.6530 C.2   906  6NI906      0.0412
      3  C8        13.1320   18.0800   56.5360 C.2   906  6NI906      0.0916
      4  C9        12.3060   17.7050   55.4320 C.3   906  6NI906      0.1071
      5  C4        11.5910   16.3590   55.4640 C.2   906  6NI906     -0.0127
      6  C5        11.8150   15.5030   56.6810 C.2   906  6NI906      0.0203
      7  N1        13.5740   19.3040   56.1350 N.2   906  6NI906     -0.1519
      8  N2        13.1490   19.7670   54.9340 N.2   906  6NI906     -0.1507
      9  C3        12.3430   18.7590   54.4790 C.2   906  6NI906      0.1057
     10  N10       12.8580   15.2010   58.8130 N.pl3 906  6NI906      0.0577
     11  O11       12.8940   13.8540   58.7030 O.2   906  6NI906     -0.1261
     12  O12       13.0310   15.7590   60.0430 O.2   906  6NI906     -0.1261
@<TRIPOS>BOND
     1     9     8    2
     2     9     4    1
     3     8     7    1
     4     4     5    1
     5     4     3    1
     6     5     6    2
     7     7     3    2
     8     3     2    1
     9     6     1    1
    10     2     1    2
    11     1    10    1
    12    11    10    2
    13    10    12    2
