@<TRIPOS>MOLECULE
1m9p_HEM_A_1.pdb
 43 50 0 0 0
SMALL
GASTEIGER

@<TRIPOS>ATOM
      1 FE         26.7850   26.3850   49.1250 Fe    142  HEM142      0.0000
      2  CHA       29.1710   27.6110   47.0450 C.2   142  HEM142      0.0000
      3  CHB       27.9090   23.2560   48.6420 C.2   142  HEM142      0.0000
      4  CHC       24.4430   25.2100   51.1810 C.2   142  HEM142      0.0000
      5  CHD       25.5310   29.4800   49.4510 C.2   142  HEM142      0.0000
      6  NA        28.1930   25.6180   48.0740 N.ar  142  HEM142      0.0000
      7  C1A       29.0940   26.2600   47.2340 C.ar  142  HEM142      0.0000
      8  C2A       29.9430   25.3040   46.5610 C.ar  142  HEM142      0.0000
      9  C3A       29.6670   24.0750   47.0740 C.ar  142  HEM142      0.0000
     10  C4A       28.5490   24.2760   47.9850 C.ar  142  HEM142      0.0000
     11  CMA       30.3140   22.7480   46.6890 C.3   142  HEM142      0.0000
     12  CAA       30.7810   25.5720   45.3330 C.3   142  HEM142      0.0000
     13  CBA       31.9790   26.3140   45.8240 C.3   142  HEM142      0.0000
     14  CGA       33.2170   25.9770   45.0600 C.2   142  HEM142      0.0000
     15  O1A       33.6850   24.8230   45.1700 O.co2 142  HEM142      0.0000
     16  O2A       33.7230   26.8710   44.3550 O.co2 142  HEM142      0.0000
     17  NB        26.2920   24.6490   49.7920 N.2   142  HEM142      0.0000
     18  C1B       26.8580   23.4300   49.4860 C.2   142  HEM142      0.0000
     19  C2B       26.2690   22.3330   50.2070 C.2   142  HEM142      0.0000
     20  C3B       25.2300   22.8780   50.9220 C.2   142  HEM142      0.0000
     21  C4B       25.3060   24.3180   50.6720 C.2   142  HEM142      0.0000
     22  CMB       26.9110   20.9470   50.2740 C.3   142  HEM142      0.0000
     23  CAB       24.3040   22.2430   51.7710 C.3   142  HEM142      0.0000
     24  CBB       23.3700   21.1990   51.4490 C.3   142  HEM142      0.0000
     25  NC        25.3560   27.1820   50.1380 N.ar  142  HEM142      0.0000
     26  C1C       24.4310   26.5400   50.8950 C.ar  142  HEM142      0.0000
     27  C2C       23.3410   27.4070   51.2760 C.ar  142  HEM142      0.0000
     28  C3C       23.6050   28.6580   50.8420 C.ar  142  HEM142      0.0000
     29  C4C       24.9080   28.4840   50.1430 C.ar  142  HEM142      0.0000
     30  CMC       22.1160   26.8460   51.9220 C.3   142  HEM142      0.0000
     31  CAC       22.8700   29.8390   50.9760 C.3   142  HEM142      0.0000
     32  CBC       21.5870   30.1570   50.4320 C.3   142  HEM142      0.0000
     33  ND        27.2420   28.1160   48.3920 N.2   142  HEM142      0.0000
     34  C1D       26.6080   29.3120   48.6340 C.2   142  HEM142      0.0000
     35  C2D       27.2470   30.4150   47.9990 C.2   142  HEM142      0.0000
     36  C3D       28.3600   29.8780   47.3870 C.2   142  HEM142      0.0000
     37  C4D       28.3060   28.4730   47.5990 C.2   142  HEM142      0.0000
     38  CMD       26.6980   31.8480   48.0560 C.3   142  HEM142      0.0000
     39  CAD       29.4520   30.5380   46.5580 C.3   142  HEM142      0.0000
     40  CBD       28.8470   30.6740   45.1770 C.3   142  HEM142      0.0000
     41  CGD       29.8220   30.3910   44.0720 C.2   142  HEM142      0.0000
     42  O1D       29.8390   31.1830   43.1170 O.co2 142  HEM142      0.0000
     43  O2D       30.5530   29.3750   44.1460 O.co2 142  HEM142      0.0000
@<TRIPOS>BOND
     1    42    41   ar
     2    41    43   ar
     3    41    40    1
     4    16    14   ar
     5    14    15   ar
     6    14    13    1
     7    40    39    1
     8    12    13    1
     9    12     8    1
    10    39    36    1
    11     8     9   ar
    12     8     7   ar
    13    11     9    1
    14     2     7    2
    15     2    37    1
    16     9    10   ar
    17     7     6   ar
    18    36    37    1
    19    36    35    2
    20    37    33    2
    21    10     6   ar
    22    10     3    2
    23    35    38    1
    24    35    34    1
    25     6     1    1
    26    33    34    1
    27    33     1    1
    28    34     5    2
    29     3    18    1
    30     1    17    1
    31     1    25    1
    32     5    29    1
    33    18    17    2
    34    18    19    1
    35    17    21    1
    36    25    29   ar
    37    25    26   ar
    38    29    28   ar
    39    19    22    1
    40    19    20    2
    41    32    31    1
    42    21    20    1
    43    21     4    2
    44    28    31    1
    45    28    27   ar
    46    26     4    1
    47    26    27   ar
    48    20    23    1
    49    27    30    1
    50    24    23    1
