@<TRIPOS>MOLECULE
1m9q_HEM_A_1.pdb
 43 50 0 0 0
SMALL
GASTEIGER

@<TRIPOS>ATOM
      1 FE         16.0040   14.2990   57.3520 Fe    901  HEM901      0.0000
      2  CHA       14.3370   12.8400   54.7400 C.2   901  HEM901      0.0000
      3  CHB       16.3700   17.1710   55.4600 C.2   901  HEM901      0.0000
      4  CHC       16.5540   16.1310   60.1730 C.2   901  HEM901      0.0000
      5  CHD       15.0720   11.6160   59.3290 C.2   901  HEM901      0.0000
      6  NA        15.3870   14.9230   55.4840 N.ar  901  HEM901      0.0000
      7  C1A       14.7620   14.1530   54.5350 C.ar  901  HEM901      0.0000
      8  C2A       14.6730   14.8640   53.2730 C.ar  901  HEM901      0.0000
      9  C3A       15.3030   16.0360   53.4540 C.ar  901  HEM901      0.0000
     10  C4A       15.7320   16.0900   54.8380 C.ar  901  HEM901      0.0000
     11  CMA       15.5380   17.0840   52.3800 C.3   901  HEM901      0.0000
     12  CAA       13.7950   14.4350   52.0980 C.3   901  HEM901      0.0000
     13  CBA       12.4160   14.9780   52.4690 C.3   901  HEM901      0.0000
     14  CGA       11.3150   14.5520   51.5190 C.2   901  HEM901      0.0000
     15  O1A       10.1950   14.2720   52.0090 O.co2 901  HEM901      0.0000
     16  O2A       11.5520   14.5170   50.2900 O.co2 901  HEM901      0.0000
     17  NB        16.4860   16.2700   57.7340 N.2   901  HEM901      0.0000
     18  C1B       16.7250   17.2550   56.8160 C.2   901  HEM901      0.0000
     19  C2B       17.2110   18.4550   57.4570 C.2   901  HEM901      0.0000
     20  C3B       17.2360   18.2020   58.8020 C.2   901  HEM901      0.0000
     21  C4B       16.7620   16.8180   58.9640 C.2   901  HEM901      0.0000
     22  CMB       17.5870   19.7520   56.7370 C.3   901  HEM901      0.0000
     23  CAB       17.5900   19.1310   59.7780 C.2   901  HEM901      0.0000
     24  CBB       18.0320   18.8620   61.0540 C.2   901  HEM901      0.0000
     25  NC        15.7820   13.9710   59.3650 N.ar  901  HEM901      0.0000
     26  C1C       16.0960   14.8310   60.3790 C.ar  901  HEM901      0.0000
     27  C2C       15.9810   14.1640   61.6730 C.ar  901  HEM901      0.0000
     28  C3C       15.6420   12.8630   61.4140 C.ar  901  HEM901      0.0000
     29  C4C       15.5120   12.7720   59.9850 C.ar  901  HEM901      0.0000
     30  CMC       16.0940   14.8590   63.0250 C.3   901  HEM901      0.0000
     31  CAC       15.4490   11.7550   62.2590 C.3   901  HEM901      0.0000
     32  CBC       15.7220   11.6810   63.6100 C.3   901  HEM901      0.0000
     33  ND        14.9440   12.5560   57.0890 N.2   901  HEM901      0.0000
     34  C1D       14.8060   11.5220   57.9810 C.2   901  HEM901      0.0000
     35  C2D       14.2300   10.3690   57.3740 C.2   901  HEM901      0.0000
     36  C3D       13.9970   10.7230   56.0890 C.2   901  HEM901      0.0000
     37  C4D       14.4340   12.0920   55.9130 C.2   901  HEM901      0.0000
     38  CMD       13.9310    9.0420   58.0560 C.3   901  HEM901      0.0000
     39  CAD       13.3650    9.8840   55.0150 C.3   901  HEM901      0.0000
     40  CBD       11.8840   10.2260   54.9370 C.3   901  HEM901      0.0000
     41  CGD       11.1650    9.4640   53.8420 C.2   901  HEM901      0.0000
     42  O1D       10.0490    9.8820   53.4590 O.co2 901  HEM901      0.0000
     43  O2D       11.7170    8.4490   53.3620 O.co2 901  HEM901      0.0000
@<TRIPOS>BOND
     1    16    14   ar
     2    14    15   ar
     3    14    13    1
     4    12    13    1
     5    12     8    1
     6    11     9    1
     7     8     9   ar
     8     8     7   ar
     9    43    41   ar
    10     9    10   ar
    11    42    41   ar
    12    41    40    1
    13     7     2    2
    14     7     6   ar
    15     2    37    1
    16    10     3    2
    17    10     6   ar
    18    40    39    1
    19    39    36    1
    20     3    18    1
    21     6     1    1
    22    37    36    1
    23    37    33    2
    24    36    35    2
    25    22    19    1
    26    18    19    1
    27    18    17    2
    28    33     1    1
    29    33    34    1
    30     1    17    1
    31     1    25    1
    32    35    34    1
    33    35    38    1
    34    19    20    2
    35    17    21    1
    36    34     5    2
    37    20    21    1
    38    20    23    1
    39    21     4    2
    40     5    29    1
    41    25    29   ar
    42    25    26   ar
    43    23    24    2
    44    29    28   ar
    45     4    26    1
    46    26    27   ar
    47    28    27   ar
    48    28    31    1
    49    27    30    1
    50    31    32    1
