@<TRIPOS>MOLECULE
1m9q_5NI_A_1.pdb
 12 13 0 0 0
SMALL
GASTEIGER

@<TRIPOS>ATOM
      1  C6        13.3010   17.0150   58.1200 C.2   907  5NI907      0.0089
      2  C7        13.7230   18.2530   57.6290 C.2   907  5NI907      0.0188
      3  C8        13.3170   18.6640   56.3860 C.2   907  5NI907      0.1039
      4  C9        12.4590   17.8450   55.5740 C.2   907  5NI907      0.0384
      5  C4        12.0410   16.6300   56.0520 C.2   907  5NI907      0.0105
      6  C5        12.4660   16.2230   57.3220 C.3   907  5NI907      0.2103
      7  N1        13.5270   19.7770   55.6040 N.2   907  5NI907     -0.1479
      8  N2        12.8850   19.6950   54.4280 N.2   907  5NI907     -0.1464
      9  C3        12.2080   18.5480   54.3260 C.2   907  5NI907      0.1234
     10  N10       12.0280   14.9280   57.8340 N.pl3 907  5NI907      0.0409
     11  O11       11.8850   14.0310   57.0160 O.2   907  5NI907     -0.1304
     12  O12       11.8420   14.8460   59.0380 O.2   907  5NI907     -0.1304
@<TRIPOS>BOND
     1     9     8    2
     2     9     4    1
     3     8     7    1
     4     4     5    2
     5     4     3    1
     6     7     3    2
     7     5     6    1
     8     3     2    1
     9    11    10    2
    10     6    10    1
    11     6     1    1
    12     2     1    2
    13    10    12    2
