@<TRIPOS>MOLECULE
1m9r_HEM_A_1.pdb
 43 50 0 0 0
SMALL
GASTEIGER

@<TRIPOS>ATOM
      1 FE         15.7260   14.2370   57.0800 Fe    901  HEM901      0.0000
      2  CHA       14.1870   12.7840   54.4630 C.2   901  HEM901      0.0000
      3  CHB       16.0170   17.1490   55.2280 C.2   901  HEM901      0.0000
      4  CHC       16.2140   16.1170   59.9100 C.2   901  HEM901      0.0000
      5  CHD       14.8880   11.5580   59.0390 C.2   901  HEM901      0.0000
      6  NA        15.1680   14.8220   55.2000 N.ar  901  HEM901      0.0000
      7  C1A       14.5940   14.0700   54.2450 C.ar  901  HEM901      0.0000
      8  C2A       14.4700   14.8130   52.9740 C.ar  901  HEM901      0.0000
      9  C3A       15.0330   16.0290   53.1990 C.ar  901  HEM901      0.0000
     10  C4A       15.4520   16.0290   54.5920 C.ar  901  HEM901      0.0000
     11  CMA       15.1980   17.1440   52.1740 C.3   901  HEM901      0.0000
     12  CAA       13.7480   14.4140   51.6730 C.3   901  HEM901      0.0000
     13  CBA       12.2560   14.7920   51.6050 C.3   901  HEM901      0.0000
     14  CGA       11.3170   13.6840   52.0660 C.2   901  HEM901      0.0000
     15  O1A       10.1690   13.9940   52.4650 O.co2 901  HEM901      0.0000
     16  O2A       11.7040   12.4920   52.0170 O.co2 901  HEM901      0.0000
     17  NB        16.1390   16.2320   57.4960 N.2   901  HEM901      0.0000
     18  C1B       16.3480   17.2550   56.5760 C.2   901  HEM901      0.0000
     19  C2B       16.7970   18.4720   57.2190 C.2   901  HEM901      0.0000
     20  C3B       16.8140   18.1810   58.5570 C.2   901  HEM901      0.0000
     21  C4B       16.3940   16.7910   58.7210 C.2   901  HEM901      0.0000
     22  CMB       17.1740   19.7690   56.5090 C.3   901  HEM901      0.0000
     23  CAB       17.1330   19.0800   59.5580 C.2   901  HEM901      0.0000
     24  CBB       18.0650   18.8240   60.5360 C.2   901  HEM901      0.0000
     25  NC        15.5600   13.9080   59.1030 N.ar  901  HEM901      0.0000
     26  C1C       15.8300   14.8040   60.0920 C.ar  901  HEM901      0.0000
     27  C2C       15.7600   14.1730   61.3860 C.ar  901  HEM901      0.0000
     28  C3C       15.4810   12.8270   61.1470 C.ar  901  HEM901      0.0000
     29  C4C       15.3360   12.7150   59.7080 C.ar  901  HEM901      0.0000
     30  CMC       15.8800   14.9270   62.7060 C.3   901  HEM901      0.0000
     31  CAC       15.3390   11.7020   61.9780 C.3   901  HEM901      0.0000
     32  CBC       15.5460   11.6630   63.3480 C.3   901  HEM901      0.0000
     33  ND        14.7180   12.4600   56.7790 N.2   901  HEM901      0.0000
     34  C1D       14.5880   11.4440   57.6810 C.2   901  HEM901      0.0000
     35  C2D       14.0240   10.3270   57.0800 C.2   901  HEM901      0.0000
     36  C3D       13.7830   10.6820   55.7970 C.2   901  HEM901      0.0000
     37  C4D       14.2430   12.0260   55.6170 C.2   901  HEM901      0.0000
     38  CMD       13.6660    9.0310   57.7710 C.3   901  HEM901      0.0000
     39  CAD       12.9000    9.9690   54.7920 C.3   901  HEM901      0.0000
     40  CBD       11.5870   10.7450   54.9200 C.3   901  HEM901      0.0000
     41  CGD       10.4580   10.1350   54.1220 C.2   901  HEM901      0.0000
     42  O1D        9.7870   10.8690   53.3530 O.co2 901  HEM901      0.0000
     43  O2D       10.2250    8.9240   54.2780 O.co2 901  HEM901      0.0000
@<TRIPOS>BOND
     1    13    12    1
     2    13    14    1
     3    12     8    1
     4    16    14   ar
     5    14    15   ar
     6    11     9    1
     7     8     9   ar
     8     8     7   ar
     9     9    10   ar
    10    42    41   ar
    11    41    43   ar
    12    41    40    1
    13     7     2    2
    14     7     6   ar
    15     2    37    1
    16    10     6   ar
    17    10     3    2
    18    39    40    1
    19    39    36    1
    20     6     1    1
    21     3    18    1
    22    37    36    1
    23    37    33    2
    24    36    35    2
    25    22    19    1
    26    18    19    1
    27    18    17    2
    28    33     1    1
    29    33    34    1
    30     1    17    1
    31     1    25    1
    32    35    34    1
    33    35    38    1
    34    19    20    2
    35    17    21    1
    36    34     5    2
    37    20    21    1
    38    20    23    1
    39    21     4    2
    40     5    29    1
    41    25    29   ar
    42    25    26   ar
    43    23    24    2
    44    29    28   ar
    45     4    26    1
    46    26    27   ar
    47    28    27   ar
    48    28    31    1
    49    27    30    1
    50    31    32    1
