@<TRIPOS>MOLECULE
1m9r_INE_A_1.pdb
 13 14 0 0 0
SMALL
GASTEIGER

@<TRIPOS>ATOM
      1  N1        13.5050   18.3110   57.8800 N.2   906  INE906     -0.1458
      2  N2        13.4310   17.6730   59.0790 N.2   906  INE906     -0.1411
      3  C3        12.7540   16.4920   58.9190 C.2   906  INE906      0.1381
      4  C4        11.7360   15.5310   56.7130 C.2   906  INE906     -0.0177
      5  C5        11.5650   15.8060   55.3170 C.3   906  INE906      0.0539
      6  C6        12.0730   16.9800   54.7520 C.2   906  INE906      0.0042
      7  C7        12.7380   17.8630   55.5670 C.2   906  INE906      0.1583
      8  C8        12.9110   17.6190   56.8980 C.2   906  INE906      0.1266
      9  C9        12.4160   16.4460   57.5120 C.2   906  INE906      0.0429
     10  N10       13.2380   19.0570   54.9380 N.pl3 906  INE906      0.0589
     11  O11       13.0470   19.2080   53.7460 O.2   906  INE906     -0.1261
     12  O12       13.8190   19.8240   55.6760 O.2   906  INE906     -0.1261
     13 BR         12.3710   15.3100   60.1620 Br    906  INE906     -0.0261
@<TRIPOS>BOND
     1    11    10    2
     2     6     5    1
     3     6     7    2
     4    10     7    1
     5    10    12    2
     6     5     4    1
     7     7     8    1
     8     4     9    2
     9     8     9    1
    10     8     1    2
    11     9     3    1
    12     1     2    1
    13     3     2    2
    14     3    13    1
