@<TRIPOS>MOLECULE
1m9t_HEM_A_1.pdb
 43 50 0 0 0
SMALL
GASTEIGER

@<TRIPOS>ATOM
      1  CHA      121.9990  110.9990   29.9940 C.2   901  HEM901      0.0000
      2  CHB      123.1300  115.0030   27.5580 C.2   901  HEM901      0.0000
      3  CHC      127.4840  113.2150   26.5540 C.2   901  HEM901      0.0000
      4  CHD      126.1610  109.0570   28.6210 C.2   901  HEM901      0.0000
      5  C1A      122.0020  112.2790   29.5120 C.ar  901  HEM901      0.0000
      6  C2A      120.9200  113.2090   29.7630 C.ar  901  HEM901      0.0000
      7  C3A      121.2190  114.3280   29.0490 C.ar  901  HEM901      0.0000
      8  C4A      122.4920  114.0990   28.3970 C.ar  901  HEM901      0.0000
      9  CMA      120.3210  115.5490   28.9330 C.3   901  HEM901      0.0000
     10  CAA      119.7920  113.0510   30.7730 C.3   901  HEM901      0.0000
     11  CBA      120.4230  113.3560   32.1280 C.3   901  HEM901      0.0000
     12  CGA      119.4240  113.3660   33.2640 C.2   901  HEM901      0.0000
     13  O1A      119.7760  112.9120   34.3730 O.co2 901  HEM901      0.0000
     14  O2A      118.2890  113.8380   33.0540 O.co2 901  HEM901      0.0000
     15  C1B      124.3640  114.8200   26.9290 C.2   901  HEM901      0.0000
     16  C2B      125.0370  115.8410   26.1900 C.2   901  HEM901      0.0000
     17  C3B      126.3030  115.3650   25.9120 C.2   901  HEM901      0.0000
     18  C4B      126.3740  114.0310   26.5030 C.2   901  HEM901      0.0000
     19  CMB      124.4480  117.2150   25.8480 C.3   901  HEM901      0.0000
     20  CAB      127.2740  116.1340   25.2700 C.3   901  HEM901      0.0000
     21  CBB      128.4510  115.7960   24.6070 C.3   901  HEM901      0.0000
     22  C1C      127.5110  111.9460   27.1420 C.ar  901  HEM901      0.0000
     23  C2C      128.7030  111.1040   27.1400 C.ar  901  HEM901      0.0000
     24  C3C      128.3050  109.9150   27.6870 C.ar  901  HEM901      0.0000
     25  C4C      126.9010  110.0560   28.0170 C.ar  901  HEM901      0.0000
     26  CMC      130.0890  111.5460   26.6040 C.3   901  HEM901      0.0000
     27  CAC      129.0470  108.7370   27.8960 C.3   901  HEM901      0.0000
     28  CBC      130.2660  108.3570   27.2920 C.3   901  HEM901      0.0000
     29  C1D      124.8580  109.1690   29.0630 C.2   901  HEM901      0.0000
     30  C2D      124.1970  108.1840   29.8860 C.2   901  HEM901      0.0000
     31  C3D      123.0730  108.7610   30.3110 C.2   901  HEM901      0.0000
     32  C4D      123.0000  110.0840   29.7260 C.2   901  HEM901      0.0000
     33  CMD      124.6270  106.7780   30.2250 C.3   901  HEM901      0.0000
     34  CAD      122.1330  108.1810   31.3420 C.3   901  HEM901      0.0000
     35  CBD      122.3400  108.7750   32.7400 C.3   901  HEM901      0.0000
     36  CGD      121.3300  108.2570   33.7310 C.2   901  HEM901      0.0000
     37  O1D      121.2270  108.7970   34.8570 O.co2 901  HEM901      0.0000
     38  O2D      120.6120  107.3050   33.3760 O.co2 901  HEM901      0.0000
     39  NA       122.9770  112.8320   28.6950 N.ar  901  HEM901      0.0000
     40  NB       125.1820  113.7010   27.0860 N.2   901  HEM901      0.0000
     41  NC       126.4340  111.2970   27.7020 N.ar  901  HEM901      0.0000
     42  ND       124.1070  110.3280   28.9550 N.2   901  HEM901      0.0000
     43 FE        124.5320  111.9090   27.7330 Fe    901  HEM901      0.0000
@<TRIPOS>BOND
     1    21    20    1
     2    20    17    1
     3    19    16    1
     4    17    16    2
     5    17    18    1
     6    16    15    1
     7    18     3    2
     8    18    40    1
     9     3    22    1
    10    26    23    1
    11    15    40    2
    12    15     2    1
    13    40    43    1
    14    23    22   ar
    15    23    24   ar
    16    22    41   ar
    17    28    27    1
    18     2     8    2
    19    24    27    1
    20    24    25   ar
    21    41    43    1
    22    41    25   ar
    23    43    39    1
    24    43    42    1
    25    25     4    1
    26     8    39   ar
    27     8     7   ar
    28     4    29    2
    29    39     5   ar
    30     9     7    1
    31    42    29    1
    32    42    32    2
    33     7     6   ar
    34    29    30    1
    35     5     6   ar
    36     5     1    2
    37    32     1    1
    38    32    31    1
    39     6    10    1
    40    30    33    1
    41    30    31    2
    42    31    34    1
    43    10    11    1
    44    34    35    1
    45    11    12    1
    46    35    36    1
    47    14    12   ar
    48    12    13   ar
    49    38    36   ar
    50    36    37   ar
