@<TRIPOS>MOLECULE
1m9t_H4B_A_1.pdb
 17 18 0 0 0
SMALL
GASTEIGER

@<TRIPOS>ATOM
      1  N1       114.0320  112.3940   31.8740 N.2   902  H4B902     -0.2672
      2  C2       115.2880  112.8110   32.0830 C.1   902  H4B902      0.2609
      3  N2       115.9840  113.3250   31.0730 N.pl3 902  H4B902     -0.0220
      4  N3       115.8460  112.7670   33.2980 N.2   902  H4B902     -0.2466
      5  C4       115.1680  112.3140   34.3490 C.1   902  H4B902      0.2569
      6  O4       115.6510  112.2810   35.4790 O.2   902  H4B902     -0.2052
      7  C4A      113.8480  111.8640   34.1870 C.2   902  H4B902      0.2989
      8  C8A      113.2870  111.9530   32.8930 C.1   902  H4B902      0.1401
      9  N5       113.1430  111.4030   35.2140 N.2   902  H4B902     -0.3830
     10  N8       112.0160  111.6050   32.7000 N.2   902  H4B902     -0.1992
     11  C6       111.9340  110.8960   34.9890 C.2   902  H4B902      0.1466
     12  C7       111.3200  110.9910   33.7290 C.3   902  H4B902      0.1940
     13  C9       111.1860  110.4210   36.2250 C.3   902  H4B902      0.2313
     14  O9       110.7430  111.5180   37.0270 O.3   902  H4B902     -0.2130
     15  C10      109.9840  109.5520   35.8200 C.3   902  H4B902      0.1888
     16  C11      109.1320  109.2010   37.0420 C.3   902  H4B902      0.0387
     17  O10      110.4710  108.3400   35.2370 O.3   902  H4B902     -0.2200
@<TRIPOS>BOND
     1     3     2    1
     2     1     2    2
     3     1     8    2
     4     2     4    2
     5    10     8    2
     6    10    12    1
     7     8     7    1
     8     4     5    2
     9    12    11    1
    10     7     5    1
    11     7     9    2
    12     5     6    2
    13    11     9    2
    14    11    13    1
    15    17    15    1
    16    15    13    1
    17    15    16    1
    18    13    14    1
