@<TRIPOS>MOLECULE
1m9t_INE_A_1.pdb
 13 14 0 0 0
SMALL
GASTEIGER

@<TRIPOS>ATOM
      1  N1       125.8700  115.8870   29.6010 N.2   906  INE906     -0.1494
      2  N2       126.8370  114.9600   29.5480 N.2   906  INE906     -0.1414
      3  C3       126.6550  114.0140   30.4780 C.2   906  INE906      0.1381
      4  C4       124.7210  113.7390   32.3290 C.2   906  INE906      0.0031
      5  C5       123.4860  114.5040   32.7540 C.2   906  INE906     -0.0020
      6  C6       123.0880  115.6740   32.1330 C.2   906  INE906      0.0090
      7  C7       123.8060  116.2040   31.0820 C.3   906  INE906      0.2295
      8  C8       124.9580  115.6060   30.6050 C.2   906  INE906      0.1140
      9  C9       125.4540  114.3970   31.1710 C.2   906  INE906      0.0434
     10  N10      123.2740  117.4060   30.5370 N.pl3 906  INE906      0.0425
     11  O11      122.2440  117.8740   31.0210 O.2   906  INE906     -0.1303
     12  O12      123.8960  117.8550   29.6260 O.2   906  INE906     -0.1303
     13 BR        127.6750  112.6190   30.7720 Br    906  INE906     -0.0261
@<TRIPOS>BOND
     1     2     1    1
     2     2     3    2
     3     1     8    2
     4    12    10    2
     5     3    13    1
     6     3     9    1
     7    10    11    2
     8    10     7    1
     9     8     7    1
    10     8     9    1
    11     7     6    1
    12     9     4    2
    13     6     5    2
    14     4     5    1
