@<TRIPOS>MOLECULE
1ma0_NAD_A_1.pdb
 44 48 0 0 0
SMALL
GASTEIGER

@<TRIPOS>ATOM
      1  PA        58.8850    9.0830    1.8470 P.3   5377  NAD5377     0.2189
      2  O1A       57.6780    8.2510    1.6540 O.3   5377  NAD5377    -0.4371
      3  O2A       59.9500    8.6660    0.9060 O.2   5377  NAD5377    -0.5170
      4  O5B       59.4200    8.9330    3.3120 O.3   5377  NAD5377    -0.3112
      5  C5B       58.4570    8.5530    4.3430 C.3   5377  NAD5377     0.1813
      6  C4B       59.1450    7.5290    5.2400 C.3   5377  NAD5377     0.1821
      7  O4B       58.4290    7.4520    6.4740 O.3   5377  NAD5377    -0.3135
      8  C3B       59.1550    6.1360    4.5780 C.3   5377  NAD5377     0.2184
      9  O3B       60.4010    5.4910    4.8700 O.3   5377  NAD5377    -0.2174
     10  C2B       58.0230    5.5110    5.4370 C.3   5377  NAD5377     0.2570
     11  O2B       58.1690    4.0840    5.4880 O.3   5377  NAD5377    -0.2130
     12  C1B       58.3090    6.0980    6.8240 C.3   5377  NAD5377     0.3186
     13  N9A       57.1750    5.9680    7.7070 N.pl3 5377  NAD5377    -0.1439
     14  C8A       55.8250    5.8120    7.4030 C.3   5377  NAD5377     0.3377
     15  N7A       55.0240    5.6770    8.5370 N.2   5377  NAD5377    -0.2095
     16  C5A       55.9430    5.7580    9.5550 C.2   5377  NAD5377     0.2526
     17  C6A       55.7280    5.6150   10.9050 C.2   5377  NAD5377     0.4393
     18  N6A       54.4990    5.3970   11.4190 N.pl3 5377  NAD5377     0.2180
     19  N1A       56.8410    5.6610   11.7420 N.2   5377  NAD5377     0.0021
     20  C2A       58.1220    5.8450   11.2180 C.3   5377  NAD5377     0.5254
     21  N3A       58.3400    5.9870    9.8490 N.2   5377  NAD5377    -0.0055
     22  C4A       57.2010    5.9320    9.0740 C.2   5377  NAD5377     0.3518
     23  O3        58.5290   10.6250    1.6310 O.3   5377  NAD5377    -0.2703
     24  PN        59.5730   11.8390    1.5700 P.3   5377  NAD5377     0.2189
     25  O1N       59.9650   12.1590    0.1740 O.2   5377  NAD5377    -0.5170
     26  O2N       60.7760   11.5800    2.4080 O.3   5377  NAD5377    -0.4371
     27  O5D       58.7540   13.0740    2.2310 O.3   5377  NAD5377    -0.3112
     28  C5D       58.2670   12.9100    3.5980 C.3   5377  NAD5377     0.1813
     29  C4D       57.3140   14.0010    4.0960 C.3   5377  NAD5377     0.1799
     30  O4D       57.8900   15.3030    3.8820 O.3   5377  NAD5377    -0.3327
     31  C3D       56.0000   13.9920    3.2920 C.3   5377  NAD5377     0.2158
     32  O3D       54.9380   14.4480    4.1340 O.3   5377  NAD5377    -0.2175
     33  C2D       56.3550   15.1020    2.2810 C.3   5377  NAD5377     0.2309
     34  O2D       55.1520   15.6210    1.7020 O.3   5377  NAD5377    -0.2158
     35  C1D       56.9430   16.1420    3.2490 C.3   5377  NAD5377     0.2263
     36  N1N       57.6660   17.2760    2.6280 N.pl3 5377  NAD5377    -0.2787
     37  C2N       57.5960   18.4650    3.2310 C.3   5377  NAD5377     0.1244
     38  C3N       58.3000   19.5040    2.7610 C.2   5377  NAD5377     0.0544
     39  C7N       58.2210   20.7010    3.3850 C.2   5377  NAD5377     0.2818
     40  O7N       58.5360   21.7720    2.8190 O.2   5377  NAD5377    -0.2670
     41  N7N       57.8020   20.7740    4.6480 N.am  5377  NAD5377    -0.0839
     42  C4N       59.0830   19.3550    1.6720 C.2   5377  NAD5377     0.0033
     43  C5N       59.1810   18.1830    1.0370 C.2   5377  NAD5377     0.0157
     44  C6N       58.4380   17.1230    1.5480 C.2   5377  NAD5377     0.0633
@<TRIPOS>BOND
     1    25    24    2
     2     3     1    2
     3    43    44    2
     4    43    42    1
     5    44    36    1
     6    24    23    1
     7    24    27    1
     8    24    26    1
     9    23     1    1
    10     2     1    1
    11    42    38    2
    12    34    33    1
    13     1     4    1
    14    27    28    1
    15    33    35    1
    16    33    31    1
    17    36    37    1
    18    36    35    1
    19    38    37    1
    20    38    39    1
    21    40    39    2
    22    35    30    1
    23    31    29    1
    24    31    32    1
    25     4     5    1
    26    39    41   am
    27    28    29    1
    28    30    29    1
    29     5     6    1
    30     8     9    1
    31     8     6    1
    32     8    10    1
    33     6     7    1
    34    10    11    1
    35    10    12    1
    36     7    12    1
    37    12    13    1
    38    14    13    1
    39    14    15    1
    40    13    22    1
    41    15    16    2
    42    22    16    1
    43    22    21    2
    44    16    17    1
    45    21    20    1
    46    17    18    1
    47    17    19    2
    48    20    19    1
