@<TRIPOS>MOLECULE
1ma0_DAO_A_1.pdb
 14 13 0 0 0
SMALL
GASTEIGER

@<TRIPOS>ATOM
      1  O1        51.4730   29.0090    1.6470 O.co2 5378  DAO5378    -0.2457
      2  O2        53.2890   30.3630    1.0420 O.co2 5378  DAO5378    -0.2457
      3  C1        52.7630   29.1250    1.2570 C.2   5378  DAO5378     0.3649
      4  C2        53.6300   27.8490    1.0730 C.3   5378  DAO5378     0.1141
      5  C3        52.9350   26.5110    1.3780 C.3   5378  DAO5378     0.0118
      6  C4        53.6750   25.6440    2.3990 C.3   5378  DAO5378     0.0006
      7  C5        53.5300   24.1280    2.1490 C.3   5378  DAO5378     0.0000
      8  C6        54.8770   23.3640    2.1450 C.3   5378  DAO5378     0.0000
      9  C7        54.8360   21.9200    1.6100 C.3   5378  DAO5378     0.0000
     10  C8        55.6350   21.7580    0.3170 C.3   5378  DAO5378     0.0000
     11  C9        55.3760   20.4620   -0.4300 C.3   5378  DAO5378     0.0000
     12  C10       56.6390   19.6520   -0.5690 C.3   5378  DAO5378     0.0000
     13  C11       56.4760   18.4770   -1.4680 C.3   5378  DAO5378     0.0000
     14  C12       57.6590   18.2520   -2.3560 C.3   5378  DAO5378     0.0000
@<TRIPOS>BOND
     1    14    13    1
     2    13    12    1
     3    12    11    1
     4    11    10    1
     5    10     9    1
     6     2     3   ar
     7     4     3    1
     8     4     5    1
     9     3     1   ar
    10     5     6    1
    11     9     8    1
    12     8     7    1
    13     7     6    1
