@<TRIPOS>MOLECULE
1ma9_ATP_B_1.pdb
 31 33 0 0 0
SMALL
GASTEIGER

@<TRIPOS>ATOM
      1  PG       -41.2250    6.0180   52.4620 P.3   377  ATP377      0.5373
      2  O1G      -39.9470    6.7270   52.1870 O.2   377  ATP377     -0.2221
      3  O2G      -41.1460    4.5070   52.4110 O.3   377  ATP377     -0.1143
      4  O3G      -41.9390    6.5320   53.6500 O.3   377  ATP377     -0.1143
      5  PB       -43.4230    5.6550   50.5490 P.3   377  ATP377      0.2277
      6  O1B      -43.6510    4.3940   51.2900 O.3   377  ATP377     -0.4368
      7  O2B      -44.5380    6.6040   50.5530 O.2   377  ATP377     -0.5168
      8  O3B      -42.1570    6.3730   51.2150 O.3   377  ATP377     -0.2258
      9  PA       -43.5570    4.2450   48.0170 P.3   377  ATP377      0.2189
     10  O1A      -42.8190    2.9710   48.1430 O.2   377  ATP377     -0.5170
     11  O2A      -45.0360    4.2270   48.1660 O.3   377  ATP377     -0.4371
     12  O3A      -42.9660    5.3200   49.0560 O.3   377  ATP377     -0.2700
     13  O5'      -43.2250    4.7690   46.5470 O.3   377  ATP377     -0.3112
     14  C5'      -43.6600    6.0400   46.0120 C.3   377  ATP377      0.1813
     15  C4'      -42.5540    6.5970   45.1620 C.3   377  ATP377      0.1821
     16  O4'      -42.3480    5.5460   44.2030 O.3   377  ATP377     -0.3135
     17  C3'      -42.7860    7.8720   44.2990 C.3   377  ATP377      0.2184
     18  O3'      -41.6420    8.7260   44.1470 O.3   377  ATP377     -0.2174
     19  C2'      -43.1900    7.2770   42.9570 C.3   377  ATP377      0.2570
     20  O2'      -43.0310    8.0900   41.7820 O.3   377  ATP377     -0.2130
     21  C1'      -42.2980    6.0610   42.8710 C.3   377  ATP377      0.3186
     22  N9       -42.8250    5.0660   41.8850 N.pl3 377  ATP377     -0.1439
     23  C8       -44.0450    4.3920   41.8910 C.3   377  ATP377      0.3377
     24  N7       -44.1970    3.5780   40.8710 N.2   377  ATP377     -0.2095
     25  C5       -43.0070    3.7130   40.1360 C.2   377  ATP377      0.2526
     26  C6       -42.5650    3.0870   38.9130 C.2   377  ATP377      0.4393
     27  N6       -43.2700    2.2010   38.2050 N.pl3 377  ATP377      0.2180
     28  N1       -41.2980    3.4630   38.4640 N.2   377  ATP377      0.0021
     29  C2       -40.5690    4.3930   39.2190 C.3   377  ATP377      0.5254
     30  N3       -40.9060    5.0310   40.3620 N.2   377  ATP377     -0.0055
     31  C4       -42.1550    4.6270   40.7580 C.2   377  ATP377      0.3518
@<TRIPOS>BOND
     1    27    26    1
     2    28    26    2
     3    28    29    1
     4    26    25    1
     5    29    30    1
     6    25    31    1
     7    25    24    2
     8    30    31    2
     9    31    22    1
    10    24    23    1
    11    20    19    1
    12    22    23    1
    13    22    21    1
    14    21    19    1
    15    21    16    1
    16    19    17    1
    17    18    17    1
    18    16    15    1
    19    17    15    1
    20    15    14    1
    21    14    13    1
    22    13     9    1
    23     9    10    2
    24     9    11    1
    25     9    12    1
    26    12     5    1
    27     5     7    2
    28     5     8    1
    29     5     6    1
    30     8     1    1
    31     2     1    2
    32     3     1    1
    33     1     4    1
