@<TRIPOS>MOLECULE
1maa_FUL_D_1.pdb
 10 10 0 0 0
SMALL
GASTEIGER

@<TRIPOS>ATOM
      1  C1        16.5890   68.2210   46.9290 C.3   610  FUL610      0.1776
      2  C2        15.2320   68.7830   47.3970 C.3   610  FUL610      0.2141
      3  O2        14.5290   69.3590   46.2970 O.3   610  FUL610     -0.2176
      4  C3        14.3730   67.6960   48.0540 C.3   610  FUL610      0.2172
      5  O3        13.5370   68.2920   49.0400 O.3   610  FUL610     -0.2175
      6  C4        15.2480   66.6110   48.7060 C.3   610  FUL610      0.2116
      7  O4        16.0400   67.1700   49.7430 O.3   610  FUL610     -0.2177
      8  C5        16.1570   65.9240   47.6800 C.3   610  FUL610      0.1483
      9  C6        17.4550   65.3950   48.2680 C.3   610  FUL610      0.0349
     10  O5        16.5080   66.8250   46.5980 O.3   610  FUL610     -0.3508
@<TRIPOS>BOND
     1     3     2    1
     2    10     1    1
     3    10     8    1
     4     1     2    1
     5     2     4    1
     6     8     9    1
     7     8     6    1
     8     4     6    1
     9     4     5    1
    10     6     7    1
