@<TRIPOS>MOLECULE
1maa_DME_A_1.pdb
 18 17 0 0 0
SMALL
GASTEIGER

@<TRIPOS>ATOM
      1  N1        78.0200  105.2430   60.0410 N.4   998  DME998      0.3857
      2  C2        77.3860  105.4620   58.7000 C.3   998  DME998     -0.0733
      3  C3        78.3440  105.1420   57.5210 C.3   998  DME998     -0.0223
      4  C4        77.9510  105.5880   56.0960 C.3   998  DME998     -0.0021
      5  C5        79.0430  105.1800   55.0860 C.3   998  DME998     -0.0001
      6  C6        78.7090  105.6010   53.6730 C.3   998  DME998     -0.0000
      7  C7        78.9000  107.0750   53.3310 C.3   998  DME998     -0.0000
      8  C8        77.9800  107.6200   52.2360 C.3   998  DME998     -0.0001
      9  C9        78.4100  109.0050   51.6750 C.3   998  DME998     -0.0021
     10  C10       79.4600  108.8350   50.5690 C.3   998  DME998     -0.0223
     11  C11       80.0240  110.0970   49.8910 C.3   998  DME998     -0.0733
     12  N12       81.5120  110.1490   49.9870 N.4   998  DME998      0.3857
     13  C13       78.2470  103.7940   60.2960 C.3   998  DME998     -0.0960
     14  C14       79.3200  105.9510   60.1440 C.3   998  DME998     -0.0960
     15  C15       77.1420  105.7560   61.1100 C.3   998  DME998     -0.0960
     16  C16       82.0250  111.2610   49.1760 C.3   998  DME998     -0.0960
     17  C17       82.1290  108.8910   49.4950 C.3   998  DME998     -0.0960
     18  C18       81.9470  110.3560   51.3890 C.3   998  DME998     -0.0960
@<TRIPOS>BOND
     1    16    12    1
     2    17    12    1
     3    11    12    1
     4    11    10    1
     5    12    18    1
     6    10     9    1
     7     9     8    1
     8     8     7    1
     9     7     6    1
    10     6     5    1
    11     5     4    1
    12     4     3    1
    13     3     2    1
    14     2     1    1
    15     1    14    1
    16     1    13    1
    17     1    15    1
