@<TRIPOS>MOLECULE
1mab_ATP_A_1.pdb
 31 33 0 0 0
SMALL
GASTEIGER

@<TRIPOS>ATOM
      1  PG         6.2860   27.4750   87.9050 P.3   603  ATP603      0.5373
      2  O1G        5.7620   26.6610   86.7830 O.2   603  ATP603     -0.2221
      3  O2G        7.1270   28.6360   87.4020 O.3   603  ATP603     -0.1143
      4  O3G        5.2190   28.0680   88.6730 O.3   603  ATP603     -0.1143
      5  PB         8.6900   26.7720   89.6070 P.3   603  ATP603      0.2277
      6  O1B        9.0200   25.5140   90.3080 O.3   603  ATP603     -0.4368
      7  O2B        9.6790   27.2320   88.6210 O.2   603  ATP603     -0.5168
      8  O3B        7.2900   26.6410   88.8940 O.3   603  ATP603     -0.2258
      9  PA         8.2360   29.5130   90.5030 P.3   603  ATP603      0.2189
     10  O1A        8.9760   29.9770   89.3090 O.2   603  ATP603     -0.5170
     11  O2A        6.8300   29.9800   90.4360 O.3   603  ATP603     -0.4371
     12  O3A        8.4310   27.9150   90.6650 O.3   603  ATP603     -0.2700
     13  O5'        8.8240   29.9630   91.9120 O.3   603  ATP603     -0.3112
     14  C5'        8.1690   29.3630   93.0630 C.3   603  ATP603      0.1813
     15  C4'        6.9670   30.0230   93.7580 C.3   603  ATP603      0.1821
     16  O4'        7.3440   30.4200   95.1070 O.3   603  ATP603     -0.3135
     17  C3'        6.5320   31.3380   93.1550 C.3   603  ATP603      0.2184
     18  O3'        5.2240   31.7950   93.4450 O.3   603  ATP603     -0.2174
     19  C2'        7.6720   32.2310   93.6630 C.3   603  ATP603      0.2570
     20  O2'        7.5830   33.6230   93.4400 O.3   603  ATP603     -0.2130
     21  C1'        7.7280   31.7890   95.0980 C.3   603  ATP603      0.3186
     22  N9         9.0880   31.9060   95.6500 N.pl3 603  ATP603     -0.1439
     23  C8        10.1150   32.2600   94.8260 C.3   603  ATP603      0.3377
     24  N7        11.2980   32.3800   95.3760 N.2   603  ATP603     -0.2095
     25  C5        11.0320   32.0850   96.6880 C.2   603  ATP603      0.2526
     26  C6        11.8790   32.0430   97.8360 C.2   603  ATP603      0.4393
     27  N6        13.1850   32.3390   97.6740 N.pl3 603  ATP603      0.2180
     28  N1        11.3650   31.7150   99.0510 N.2   603  ATP603      0.0021
     29  C2        10.0460   31.4350   99.1080 C.3   603  ATP603      0.5254
     30  N3         9.1380   31.4380   98.0970 N.2   603  ATP603     -0.0055
     31  C4         9.6790   31.7780   96.8870 C.2   603  ATP603      0.3518
@<TRIPOS>BOND
     1     2     1    2
     2     3     1    1
     3     1     4    1
     4     1     8    1
     5     7     5    2
     6     8     5    1
     7    10     9    2
     8     5     6    1
     9     5    12    1
    10    11     9    1
    11     9    12    1
    12     9    13    1
    13    13    14    1
    14    14    15    1
    15    17    18    1
    16    17    19    1
    17    17    15    1
    18    20    19    1
    19    19    21    1
    20    15    16    1
    21    23    24    1
    22    23    22    1
    23    21    16    1
    24    21    22    1
    25    24    25    2
    26    22    31    1
    27    25    31    1
    28    25    26    1
    29    31    30    2
    30    27    26    1
    31    26    28    2
    32    30    29    1
    33    28    29    1
