@<TRIPOS>MOLECULE
1mab_ADP_B_1.pdb
 27 29 0 0 0
SMALL
GASTEIGER

@<TRIPOS>ATOM
      1  PB       -18.6660   20.5420   88.8850 P.3   604  ADP604      0.5373
      2  O1B      -17.4280   19.9500   88.3640 O.3   604  ADP604     -0.1143
      3  O2B      -18.7180   21.8920   89.4580 O.3   604  ADP604     -0.1143
      4  O3B      -19.7690   20.4780   87.7730 O.2   604  ADP604     -0.2221
      5  PA       -19.8410   20.1780   91.4570 P.3   604  ADP604      0.2231
      6  O1A      -18.9320   21.1500   92.0750 O.3   604  ADP604     -0.4370
      7  O2A      -21.2230   20.6830   91.4050 O.2   604  ADP604     -0.5169
      8  O3A      -19.2230   19.6640   90.0590 O.3   604  ADP604     -0.2261
      9  O5'      -19.7860   18.7770   92.2120 O.3   604  ADP604     -0.3111
     10  C5'      -20.9820   17.9900   92.4390 C.3   604  ADP604      0.1813
     11  C4'      -21.1280   17.6520   93.9090 C.3   604  ADP604      0.1821
     12  O4'      -20.0940   18.3600   94.6430 O.3   604  ADP604     -0.3135
     13  C3'      -22.3720   18.2490   94.5300 C.3   604  ADP604      0.2184
     14  O3'      -23.5580   17.6940   93.9820 O.3   604  ADP604     -0.2174
     15  C2'      -22.0060   18.2930   96.0410 C.3   604  ADP604      0.2570
     16  O2'      -21.9020   17.1260   96.8430 O.3   604  ADP604     -0.2130
     17  C1'      -20.5910   18.7640   95.9170 C.3   604  ADP604      0.3186
     18  N9       -20.4640   20.2350   96.0200 N.pl3 604  ADP604     -0.1439
     19  C8       -20.3640   21.1120   94.9800 C.3   604  ADP604      0.3377
     20  N7       -20.2470   22.3660   95.3630 N.2   604  ADP604     -0.2095
     21  C5       -20.2700   22.3320   96.7380 C.2   604  ADP604      0.2526
     22  C6       -20.1870   23.2870   97.7990 C.2   604  ADP604      0.4393
     23  N6       -20.0500   24.6130   97.6410 N.pl3 604  ADP604      0.2180
     24  N1       -20.2530   22.8500   99.0820 N.2   604  ADP604      0.0021
     25  C2       -20.3970   21.5320   99.3650 C.3   604  ADP604      0.5254
     26  N3       -20.4830   20.5390   98.4530 N.2   604  ADP604     -0.0055
     27  C4       -20.4130   21.0010   97.1630 C.2   604  ADP604      0.3518
@<TRIPOS>BOND
     1     4     1    2
     2     2     1    1
     3     1     3    1
     4     1     8    1
     5     8     5    1
     6     7     5    2
     7     5     6    1
     8     5     9    1
     9     9    10    1
    10    10    11    1
    11    11    13    1
    12    11    12    1
    13    14    13    1
    14    13    15    1
    15    12    17    1
    16    19    20    1
    17    19    18    1
    18    20    21    2
    19    17    18    1
    20    17    15    1
    21    18    27    1
    22    15    16    1
    23    21    27    1
    24    21    22    1
    25    27    26    2
    26    23    22    1
    27    22    24    2
    28    26    25    1
    29    24    25    1
