@<TRIPOS>MOLECULE
1mai_I3P_A_1.pdb
 24 24 0 0 0
SMALL
GASTEIGER

@<TRIPOS>ATOM
      1  C1        33.7280   18.0400    3.9670 C.3   200  I3P200      0.1918
      2  C2        34.2380   18.5040    5.3380 C.3   200  I3P200      0.2147
      3  C3        33.2000   18.2340    6.4080 C.3   200  I3P200      0.2146
      4  C4        32.8800   16.7410    6.4420 C.3   200  I3P200      0.1892
      5  C5        32.3710   16.2780    5.0670 C.3   200  I3P200      0.1891
      6  C6        33.4170   16.5470    3.9940 C.3   200  I3P200      0.2120
      7  O1        34.6770   18.2020    2.8400 O.3   200  I3P200     -0.2673
      8  O2        35.4470   17.8420    5.6740 O.3   200  I3P200     -0.2176
      9  O3        33.7120   18.6410    7.6590 O.3   200  I3P200     -0.2176
     10  O4        31.9210   16.4820    7.5520 O.3   200  I3P200     -0.2674
     11  O5        32.1700   14.8320    5.0980 O.3   200  I3P200     -0.2674
     12  O6        32.9650   16.1200    2.7150 O.3   200  I3P200     -0.2177
     13  P1        35.0110   19.6120    2.1900 P.3   200  I3P200      0.5327
     14  O11       36.2810   19.4270    1.4430 O.3   200  I3P200     -0.1145
     15  O12       35.1080   20.5220    3.3630 O.3   200  I3P200     -0.1145
     16  O13       33.7950   19.8250    1.4150 O.2   200  I3P200     -0.2224
     17  P4        32.2600   15.7940    8.9670 P.3   200  I3P200      0.5327
     18  O41       33.2000   14.7450    8.4870 O.2   200  I3P200     -0.2224
     19  O42       32.9150   16.8820    9.7050 O.3   200  I3P200     -0.1145
     20  O43       31.0040   15.3330    9.6140 O.3   200  I3P200     -0.1145
     21  P5        30.9400   14.0400    4.4450 P.3   200  I3P200      0.5327
     22  O51       31.2210   12.6660    4.9280 O.3   200  I3P200     -0.1145
     23  O52       29.7500   14.7350    5.0200 O.3   200  I3P200     -0.1145
     24  O53       31.1870   14.2760    3.0180 O.2   200  I3P200     -0.2224
@<TRIPOS>BOND
     1    16    13    2
     2    14    13    1
     3    13     7    1
     4    13    15    1
     5    12     6    1
     6     7     1    1
     7    24    21    2
     8     1     6    1
     9     1     2    1
    10     6     5    1
    11    21    22    1
    12    21    23    1
    13    21    11    1
    14     5    11    1
    15     5     4    1
    16     2     8    1
    17     2     3    1
    18     3     4    1
    19     3     9    1
    20     4    10    1
    21    10    17    1
    22    18    17    2
    23    17    20    1
    24    17    19    1
