@<TRIPOS>MOLECULE
1map_KET_A_1.pdb
 24 24 0 0 0
SMALL
GASTEIGER

@<TRIPOS>ATOM
      1  N1        43.7820   15.8150   45.4620 N.ar  412  KET412     -0.2452
      2  C2        44.9730   15.4720   45.9950 C.ar  412  KET412      0.0978
      3  C2A       45.3700   16.0650   47.3230 C.3   412  KET412      0.0555
      4  C3        45.7680   14.5540   45.2780 C.ar  412  KET412      0.2067
      5  O3        46.9430   14.2160   45.8560 O.3   412  KET412     -0.2856
      6  C4        45.3430   14.0190   44.0760 C.ar  412  KET412      0.0421
      7  C4A       46.1770   13.0790   43.3690 C.3   412  KET412      0.1547
      8  C5        44.0610   14.4240   43.6120 C.ar  412  KET412      0.0280
      9  C6        43.3210   15.3390   44.3000 C.ar  412  KET412      0.0965
     10  C5A       43.5470   13.9730   42.2130 C.3   412  KET412      0.1816
     11  OP4       43.3010   12.5740   42.1310 O.3   412  KET412     -0.2653
     12  P         42.4780   11.9660   40.9090 P.3   412  KET412      0.5329
     13  OP1       41.3350   11.1960   41.4430 O.3   412  KET412     -0.1145
     14  OP2       43.4300   10.9970   40.1470 O.3   412  KET412     -0.1145
     15  OP3       42.1630   13.1400   40.0980 O.2   412  KET412     -0.2224
     16  N         47.4360   13.1720   43.5860 N.2   412  KET412     -0.2627
     17  CA        48.3860   12.9210   42.6910 C.2   412  KET412      0.1449
     18  CB        48.1130   12.4730   41.2420 C.3   412  KET412      0.1660
     19  CG        48.1530   13.6160   40.2680 C.2   412  KET412      0.3710
     20  OD1       48.9510   14.5290   40.3610 O.co2 412  KET412     -0.2452
     21  OD2       47.2710   13.5120   39.3030 O.co2 412  KET412     -0.2452
     22  C         49.9010   13.1000   42.9970 C.2   412  KET412      0.4012
     23  O         50.3060   13.9760   43.7380 O.co2 412  KET412     -0.2392
     24  OXT       50.7030   12.2670   42.3730 O.co2 412  KET412     -0.2392
@<TRIPOS>BOND
     1    21    19   ar
     2    15    12    2
     3    14    12    1
     4    19    20   ar
     5    19    18    1
     6    12    13    1
     7    12    11    1
     8    18    17    1
     9    11    10    1
    10    10     8    1
    11    24    22   ar
    12    17    22    1
    13    17    16    2
    14    22    23   ar
    15     7    16    1
    16     7     6    1
    17     8     6   ar
    18     8     9   ar
    19     6     4   ar
    20     9     1   ar
    21     4     5    1
    22     4     2   ar
    23     1     2   ar
    24     2     3    1
