@<TRIPOS>MOLECULE
1maq_PGU_A_1.pdb
 25 25 0 0 0
SMALL
GASTEIGER

@<TRIPOS>ATOM
      1  N1        43.5090   15.9100   45.0340 N.ar  412  PGU412     -0.2452
      2  C2        44.7090   15.6220   45.5840 C.ar  412  PGU412      0.0981
      3  C2A       45.0760   16.2390   46.9050 C.3   412  PGU412      0.0555
      4  C3        45.5790   14.7580   44.8730 C.ar  412  PGU412      0.2103
      5  O3        46.7740   14.4870   45.4580 O.3   412  PGU412     -0.2853
      6  C4        45.2220   14.2200   43.6610 C.ar  412  PGU412      0.0587
      7  C4A       46.1400   13.3350   42.9700 C.2   412  PGU412      0.0967
      8  C5        43.9320   14.5740   43.1760 C.ar  412  PGU412      0.0316
      9  C6        43.1090   15.4280   43.8490 C.ar  412  PGU412      0.0968
     10  C5A       43.5040   14.0840   41.7880 C.3   412  PGU412      0.1819
     11  O4P       43.1100   12.7290   41.8390 O.3   412  PGU412     -0.2653
     12  P         42.3670   12.1240   40.5870 P.3   412  PGU412      0.5329
     13  O1P       42.0810   13.2690   39.7360 O.2   412  PGU412     -0.2224
     14  O2P       41.1950   11.3720   41.0940 O.3   412  PGU412     -0.1145
     15  O3P       43.3960   11.2100   39.8690 O.3   412  PGU412     -0.1145
     16  N         47.3900   13.4730   43.2410 N.2   412  PGU412     -0.2593
     17  CA        48.3910   12.9240   42.5610 C.3   412  PGU412      0.2062
     18  CB        48.2520   12.0720   41.2940 C.3   412  PGU412      0.0477
     19  CG        48.8850   12.8040   40.1030 C.3   412  PGU412      0.1166
     20  CD        48.1010   14.0300   39.7660 C.2   412  PGU412      0.3649
     21  OE1       46.9780   13.9610   39.3150 O.co2 412  PGU412     -0.2457
     22  OE2       48.7270   15.1600   40.0290 O.co2 412  PGU412     -0.2457
     23  C         49.8660   13.1990   42.8970 C.2   412  PGU412      0.3866
     24  O         50.1830   14.0910   43.6580 O.co2 412  PGU412     -0.2435
     25  OXT       50.7340   12.4930   42.2050 O.co2 412  PGU412     -0.2435
@<TRIPOS>BOND
     1    21    20   ar
     2    13    12    2
     3    20    22   ar
     4    20    19    1
     5    15    12    1
     6    19    18    1
     7    12    14    1
     8    12    11    1
     9    18    17    1
    10    10    11    1
    11    10     8    1
    12    25    23   ar
    13    17    23    1
    14    17    16    1
    15    23    24   ar
    16     7    16    2
    17     7     6    1
    18     8     6   ar
    19     8     9   ar
    20     6     4   ar
    21     9     1   ar
    22     4     5    1
    23     4     2   ar
    24     1     2   ar
    25     2     3    1
