@<TRIPOS>MOLECULE
1mar_NAP_A_1.pdb
 48 52 0 0 0
SMALL
GASTEIGER

@<TRIPOS>ATOM
      1  PA        72.8960  -36.2490    5.3230 P.3   350  NAP350      0.2189
      2  O1A       72.3900  -37.6210    5.1860 O.3   350  NAP350     -0.4371
      3  O2A       73.9440  -35.7890    4.3910 O.2   350  NAP350     -0.5170
      4  O5B       73.4900  -36.1080    6.8030 O.3   350  NAP350     -0.3112
      5  C5B       73.9240  -34.8320    7.3100 C.3   350  NAP350      0.1813
      6  C4B       74.2680  -34.8770    8.8000 C.3   350  NAP350      0.1820
      7  O4B       75.3330  -35.7930    9.0270 O.3   350  NAP350     -0.3136
      8  C3B       74.7140  -33.5250    9.3390 C.3   350  NAP350      0.2157
      9  O3B       74.0900  -33.3540   10.6180 O.3   350  NAP350     -0.2175
     10  C2B       76.2390  -33.6130    9.4880 C.3   350  NAP350      0.2314
     11  O2B       76.6860  -32.9090   10.6760 O.3   350  NAP350     -0.2630
     12  C1B       76.4100  -35.1250    9.6860 C.3   350  NAP350      0.3158
     13  N9A       77.6800  -35.6770    9.1700 N.pl3 350  NAP350     -0.1439
     14  C8A       78.2780  -35.5020    7.9480 C.3   350  NAP350      0.3377
     15  N7A       79.3760  -36.1790    7.7890 N.2   350  NAP350     -0.2095
     16  C5A       79.5220  -36.8550    8.9910 C.2   350  NAP350      0.2526
     17  C6A       80.5050  -37.7350    9.4590 C.2   350  NAP350      0.4393
     18  N6A       81.6110  -38.0260    8.7690 N.pl3 350  NAP350      0.2180
     19  N1A       80.3390  -38.2240   10.6960 N.2   350  NAP350      0.0021
     20  C2A       79.2810  -37.8610   11.4120 C.3   350  NAP350      0.5254
     21  N3A       78.2970  -37.0420   11.0930 N.2   350  NAP350     -0.0055
     22  C4A       78.4880  -36.5620    9.8400 C.2   350  NAP350      0.3518
     23  O3        71.6080  -35.2560    5.4810 O.3   350  NAP350     -0.2703
     24  PN        70.9580  -34.3530    4.2770 P.3   350  NAP350      0.2189
     25  O1N       71.4850  -32.9810    4.4340 O.3   350  NAP350     -0.4371
     26  O2N       69.5040  -34.5550    4.3840 O.2   350  NAP350     -0.5170
     27  O5D       71.3190  -34.9400    2.8100 O.3   350  NAP350     -0.3112
     28  C5D       72.4540  -34.4690    2.0820 C.3   350  NAP350      0.1813
     29  C4D       72.1330  -33.4630    0.9810 C.3   350  NAP350      0.1799
     30  O4D       71.2120  -34.0070    0.0290 O.3   350  NAP350     -0.3327
     31  C3D       71.4480  -32.2210    1.4970 C.3   350  NAP350      0.2158
     32  O3D       72.3490  -31.3170    2.1190 O.3   350  NAP350     -0.2175
     33  C2D       70.8340  -31.6640    0.2280 C.3   350  NAP350      0.2309
     34  O2D       71.8560  -30.9960   -0.5410 O.3   350  NAP350     -0.2158
     35  C1D       70.3890  -32.9430   -0.4870 C.3   350  NAP350      0.2263
     36  N1N       68.9400  -33.2430   -0.2660 N.pl3 350  NAP350     -0.2787
     37  C2N       68.0950  -33.1020   -1.3470 C.3   350  NAP350      0.1244
     38  C3N       66.6740  -33.2390   -1.1220 C.2   350  NAP350      0.0544
     39  C7N       65.7250  -33.1140   -2.2140 C.2   350  NAP350      0.2818
     40  O7N       64.5100  -33.1850   -2.0540 O.2   350  NAP350     -0.2670
     41  N7N       66.1650  -32.9300   -3.4590 N.am  350  NAP350     -0.0839
     42  C4N       66.2170  -33.5060    0.1300 C.2   350  NAP350      0.0033
     43  C5N       67.0720  -33.6780    1.1620 C.2   350  NAP350      0.0157
     44  C6N       68.4030  -33.5540    0.9710 C.2   350  NAP350      0.0633
     45  P2B       77.4460  -31.4970   10.4060 P.3   350  NAP350      0.5328
     46  O1X       76.9020  -30.9610    9.1400 O.2   350  NAP350     -0.2224
     47  O2X       77.0700  -30.7010   11.5970 O.3   350  NAP350     -0.1145
     48  O3X       78.8920  -31.8200   10.3730 O.3   350  NAP350     -0.1145
@<TRIPOS>BOND
     1    41    39   am
     2    39    40    2
     3    39    38    1
     4    37    38    1
     5    37    36    1
     6    38    42    2
     7    34    33    1
     8    35    36    1
     9    35    30    1
    10    35    33    1
    11    36    44    1
    12    30    29    1
    13    42    43    1
    14    33    31    1
    15    44    43    2
    16    29    31    1
    17    29    28    1
    18    31    32    1
    19    28    27    1
    20    27    24    1
    21    24    26    2
    22    24    25    1
    23    24    23    1
    24     3     1    2
    25     2     1    1
    26     1    23    1
    27     1     4    1
    28     4     5    1
    29     5     6    1
    30    15    14    1
    31    15    16    2
    32    14    13    1
    33    18    17    1
    34     6     7    1
    35     6     8    1
    36    16    17    1
    37    16    22    1
    38     7    12    1
    39    46    45    2
    40    13    12    1
    41    13    22    1
    42     8    10    1
    43     8     9    1
    44    17    19    2
    45    10    12    1
    46    10    11    1
    47    22    21    2
    48    48    45    1
    49    45    11    1
    50    45    47    1
    51    19    20    1
    52    21    20    1
