@<TRIPOS>MOLECULE
1mau_ATP_A_1.pdb
 31 33 0 0 0
SMALL
GASTEIGER

@<TRIPOS>ATOM
      1  PG        48.2340   21.6840   35.6150 P.3   400  ATP400      0.5373
      2  O1G       48.0940   22.3270   36.9440 O.3   400  ATP400     -0.1143
      3  O2G       47.8940   20.2540   35.7350 O.3   400  ATP400     -0.1143
      4  O3G       47.3930   22.3760   34.6200 O.2   400  ATP400     -0.2221
      5  PB        50.7020   23.0750   34.8690 P.3   400  ATP400      0.2277
      6  O1B       50.2880   24.3730   35.4560 O.3   400  ATP400     -0.4368
      7  O2B       50.8460   23.2570   33.4260 O.2   400  ATP400     -0.5168
      8  O3B       49.7580   21.8320   35.1470 O.3   400  ATP400     -0.2258
      9  PA        52.6450   22.2360   36.9410 P.3   400  ATP400      0.2189
     10  O1A       51.5640   22.5940   37.8690 O.3   400  ATP400     -0.4371
     11  O2A       53.1090   20.8330   36.9420 O.2   400  ATP400     -0.5170
     12  O3A       52.1400   22.6420   35.4620 O.3   400  ATP400     -0.2700
     13  O5'       53.8540   23.1790   37.2220 O.3   400  ATP400     -0.3112
     14  C5'       55.2470   22.7790   36.9580 C.3   400  ATP400      0.1813
     15  C4'       56.0970   23.9690   36.8190 C.3   400  ATP400      0.1821
     16  O4'       55.7680   24.7410   35.6510 O.3   400  ATP400     -0.3135
     17  C3'       56.1640   25.0010   37.9700 C.3   400  ATP400      0.2184
     18  O3'       57.4990   25.4720   38.1430 O.3   400  ATP400     -0.2174
     19  C2'       55.2440   26.0540   37.3770 C.3   400  ATP400      0.2570
     20  O2'       55.2300   27.3350   37.9540 O.3   400  ATP400     -0.2130
     21  C1'       55.7140   26.0930   35.9170 C.3   400  ATP400      0.3186
     22  N9        54.6580   26.6480   34.9860 N.pl3 400  ATP400     -0.1439
     23  C8        53.3480   26.2050   34.8590 C.3   400  ATP400      0.3377
     24  N7        52.6410   26.9170   33.9390 N.2   400  ATP400     -0.2095
     25  C5        53.5520   27.8320   33.4740 C.2   400  ATP400      0.2526
     26  C6        53.4070   28.8750   32.4820 C.2   400  ATP400      0.4393
     27  N6        52.2910   29.1220   31.8120 N.pl3 400  ATP400      0.2180
     28  N1        54.5430   29.6430   32.2360 N.2   400  ATP400      0.0021
     29  C2        55.7790   29.4540   32.8870 C.3   400  ATP400      0.5254
     30  N3        55.9000   28.4530   33.8420 N.2   400  ATP400     -0.0055
     31  C4        54.8050   27.6710   34.1150 C.2   400  ATP400      0.3518
@<TRIPOS>BOND
     1    27    26    1
     2    28    26    2
     3    28    29    1
     4    26    25    1
     5    29    30    1
     6     7     5    2
     7    25    24    2
     8    25    31    1
     9    30    31    2
    10    24    23    1
    11    31    22    1
    12     4     1    2
    13    23    22    1
    14     5     8    1
    15     5     6    1
    16     5    12    1
    17    22    21    1
    18     8     1    1
    19    12     9    1
    20     1     3    1
    21     1     2    1
    22    16    21    1
    23    16    15    1
    24    21    19    1
    25    15    14    1
    26    15    17    1
    27     9    11    2
    28     9    13    1
    29     9    10    1
    30    14    13    1
    31    19    20    1
    32    19    17    1
    33    17    18    1
