@<TRIPOS>MOLECULE
1mau_LTN_A_1.pdb
 15 16 0 0 0
SMALL
GASTEIGER

@<TRIPOS>ATOM
      1  NH3       52.8670   22.9280   43.1610 N.3   390  LTN390     -0.1226
      2  CA        53.7350   23.1410   41.9760 C.3   390  LTN390      0.1753
      3  CB        54.5020   21.8490   41.6480 C.3   390  LTN390      0.0564
      4  CG        55.3350   21.4390   42.8360 C.2   390  LTN390      0.0000
      5  CD2       56.5180   21.9970   43.2000 C.2   390  LTN390      0.0115
      6  CE2       56.8440   21.2690   44.3480 C.2   390  LTN390      0.0631
      7  CE3       57.3450   22.9980   42.7290 C.2   390  LTN390      0.0006
      8  CD1       54.9440   20.4500   43.6890 C.2   390  LTN390      0.0942
      9  NE1       55.8920   20.3760   44.5910 N.2   390  LTN390     -0.2482
     10  CZ2       58.0310   21.5410   45.0380 C.3   390  LTN390      0.0717
     11  CZ3       58.5230   23.2730   43.4090 C.2   390  LTN390     -0.0042
     12  CH2       58.8680   22.5500   44.5510 C.2   390  LTN390     -0.0198
     13  C         52.9270   23.5840   40.7760 C.2   390  LTN390      0.2785
     14  O         51.5500   23.4870   40.8310 O.2   390  LTN390     -0.2701
     15  N         53.4320   24.1050   39.7870 N.am  390  LTN390     -0.0865
@<TRIPOS>BOND
     1    15    13   am
     2    13    14    2
     3    13     2    1
     4     3     2    1
     5     3     4    1
     6     2     1    1
     7     7     5    2
     8     7    11    1
     9     4     5    1
    10     4     8    2
    11     5     6    1
    12    11    12    2
    13     8     9    1
    14     6     9    2
    15     6    10    1
    16    12    10    1
