@<TRIPOS>MOLECULE
1maw_ATP_A_1.pdb
 31 33 0 0 0
SMALL
GASTEIGER

@<TRIPOS>ATOM
      1  PG        33.0600   -6.4860   51.7170 P.3   400  ATP400      0.5373
      2  O1G       33.5700   -6.2970   50.3050 O.2   400  ATP400     -0.2221
      3  O2G       31.5580   -6.5400   51.8110 O.3   400  ATP400     -0.1143
      4  O3G       33.6930   -7.6950   52.3250 O.3   400  ATP400     -0.1143
      5  PB        34.5260   -5.0680   53.9480 P.3   400  ATP400      0.2277
      6  O1B       34.5290   -3.8140   54.6480 O.3   400  ATP400     -0.4368
      7  O2B       35.2590   -6.2320   54.4430 O.2   400  ATP400     -0.5168
      8  O3B       33.5230   -5.2290   52.6880 O.3   400  ATP400     -0.2258
      9  PA        35.8300   -3.5530   51.7140 P.3   400  ATP400      0.2189
     10  O1A       35.9180   -4.1990   50.4090 O.2   400  ATP400     -0.5170
     11  O2A       35.6370   -2.1020   51.9010 O.3   400  ATP400     -0.4371
     12  O3A       35.8010   -4.5060   52.9600 O.3   400  ATP400     -0.2700
     13  O5'       37.2890   -3.6120   51.5040 O.3   400  ATP400     -0.3112
     14  C5'       38.5200   -3.4550   51.7370 C.3   400  ATP400      0.1813
     15  C4'       39.6130   -2.5430   52.0910 C.3   400  ATP400      0.1821
     16  O4'       39.1900   -2.1990   53.4570 O.3   400  ATP400     -0.3135
     17  C3'       40.6670   -3.6020   52.0640 C.3   400  ATP400      0.2184
     18  O3'       41.5870   -3.5460   50.9440 O.3   400  ATP400     -0.2174
     19  C2'       41.2850   -3.4640   53.4990 C.3   400  ATP400      0.2570
     20  O2'       42.5030   -2.7400   53.4480 O.3   400  ATP400     -0.2130
     21  C1'       40.1890   -2.7390   54.3820 C.3   400  ATP400      0.3186
     22  N9        39.4560   -3.6560   55.3400 N.pl3 400  ATP400     -0.1439
     23  C8        38.0970   -4.0010   55.3870 C.3   400  ATP400      0.3377
     24  N7        37.7910   -4.8040   56.3610 N.2   400  ATP400     -0.2095
     25  C5        39.0200   -5.0050   56.9990 C.2   400  ATP400      0.2526
     26  C6        39.4090   -5.7640   58.1550 C.2   400  ATP400      0.4393
     27  N6        38.5370   -6.4930   58.8490 N.pl3 400  ATP400      0.2180
     28  N1        40.7590   -5.7470   58.5540 N.2   400  ATP400      0.0021
     29  C2        41.6550   -5.0280   57.8450 C.3   400  ATP400      0.5254
     30  N3        41.4150   -4.2890   56.7490 N.2   400  ATP400     -0.0055
     31  C4        40.0250   -4.3090   56.3810 C.2   400  ATP400      0.3518
@<TRIPOS>BOND
     1     2     1    2
     2    10     9    2
     3    18    17    1
     4    13     9    1
     5    13    14    1
     6     9    11    1
     7     9    12    1
     8     1     3    1
     9     1     4    1
    10     1     8    1
    11    14    15    1
    12    17    15    1
    13    17    19    1
    14    15    16    1
    15     8     5    1
    16    12     5    1
    17    20    19    1
    18    16    21    1
    19    19    21    1
    20     5     7    2
    21     5     6    1
    22    21    22    1
    23    22    23    1
    24    22    31    1
    25    23    24    1
    26    24    25    2
    27    31    30    2
    28    31    25    1
    29    30    29    1
    30    25    26    1
    31    29    28    1
    32    26    28    2
    33    26    27    1
