@<TRIPOS>MOLECULE
1max_ZAP_A_1.pdb
 24 25 0 0 0
SMALL
GASTEIGER

@<TRIPOS>ATOM
      1  C1        -2.2740   13.4770   15.3660 C.2   247  ZAP247      0.4766
      2  C2        -1.8890   14.1400   16.5340 C.ar  247  ZAP247      0.0975
      3  C3        -2.3030   15.4360   16.7620 C.ar  247  ZAP247      0.0077
      4  C4        -1.9650   16.1000   17.9240 C.ar  247  ZAP247     -0.0019
      5  C5        -1.1980   15.4980   18.8880 C.ar  247  ZAP247      0.0063
      6  C6        -0.7800   14.1960   18.7250 C.ar  247  ZAP247     -0.0019
      7  C7        -1.1350   13.5350   17.5370 C.ar  247  ZAP247      0.0077
      8  C8        -0.8150   16.4020   20.0640 C.3   247  ZAP247      0.1948
      9  C9         0.2740   18.4430   20.3320 C.2   247  ZAP247      0.4222
     10  C10        2.4470   19.1050   19.2270 C.3   247  ZAP247      0.2368
     11  C11        2.1560   20.0940   18.0880 C.ar  247  ZAP247      0.0213
     12  C12        3.2040   20.5990   17.3340 C.ar  247  ZAP247     -0.0007
     13  C13        2.9670   21.4830   16.2960 C.ar  247  ZAP247     -0.0002
     14  C14        1.6670   21.8600   15.9970 C.ar  247  ZAP247     -0.0000
     15  C15        0.6130   21.3680   16.7390 C.ar  247  ZAP247     -0.0002
     16  C16        0.8570   20.4850   17.7750 C.ar  247  ZAP247     -0.0007
     17  N1        -3.0220   14.0900   14.4380 N.pl3 247  ZAP247      0.2047
     18  N2        -1.8780   12.2390   15.0710 N.pl3 247  ZAP247      0.2047
     19  N3         0.3450   17.2190   19.8170 N.am  247  ZAP247     -0.1565
     20  O3        -0.7300   19.1230   20.1430 O.2   247  ZAP247     -0.2245
     21  O4         1.4870   19.1960   20.3220 O.3   247  ZAP247     -0.4285
     22  O1P       -0.2970   16.7620   22.7330 O.3   247  ZAP247     -0.1724
     23  O2P       -2.0240   15.1160   22.2120 O.3   247  ZAP247     -0.1724
     24  P         -0.7470   15.7310   21.7790 P.3   247  ZAP247      0.2795
@<TRIPOS>BOND
     1    17     1    2
     2    18     1    1
     3     1     2    1
     4    14    13   ar
     5    14    15   ar
     6    13    12   ar
     7     2     3   ar
     8     2     7   ar
     9    15    16   ar
    10     3     4   ar
    11    12    11   ar
    12     7     6   ar
    13    16    11   ar
    14     4     5   ar
    15    11    10    1
    16     6     5   ar
    17     5     8    1
    18    10    21    1
    19    19     8    1
    20    19     9   am
    21     8    24    1
    22    20     9    2
    23    21     9    1
    24    24    23    1
    25    24    22    1
