@<TRIPOS>MOLECULE
1may_ZAP_A_1.pdb
 24 25 0 0 0
SMALL
GASTEIGER

@<TRIPOS>ATOM
      1  C1        -2.1800   13.5730   15.6860 C.2   247  ZAP247      0.4766
      2  C2        -1.8150   14.2730   16.8270 C.ar  247  ZAP247      0.0975
      3  C3        -2.2210   15.5820   16.9660 C.ar  247  ZAP247      0.0077
      4  C4        -1.9120   16.2770   18.1020 C.ar  247  ZAP247     -0.0019
      5  C5        -1.1830   15.6750   19.0950 C.ar  247  ZAP247      0.0063
      6  C6        -0.7540   14.3770   18.9960 C.ar  247  ZAP247     -0.0019
      7  C7        -1.0750   13.6860   17.8450 C.ar  247  ZAP247      0.0077
      8  C8        -0.8360   16.5800   20.2630 C.3   247  ZAP247      0.1948
      9  C9         0.6320   18.3930   20.5280 C.2   247  ZAP247      0.4222
     10  C10        2.6400   18.9660   19.1510 C.3   247  ZAP247      0.2368
     11  C11        1.9890   20.0600   18.3150 C.ar  247  ZAP247      0.0213
     12  C12        2.0660   21.3820   18.7160 C.ar  247  ZAP247     -0.0007
     13  C13        1.4760   22.3610   17.9460 C.ar  247  ZAP247     -0.0002
     14  C14        0.8050   22.0330   16.7920 C.ar  247  ZAP247     -0.0000
     15  C15        0.7320   20.7170   16.3930 C.ar  247  ZAP247     -0.0002
     16  C16        1.3220   19.7230   17.1490 C.ar  247  ZAP247     -0.0007
     17  N1        -2.9260   14.1470   14.7500 N.pl3 247  ZAP247      0.2047
     18  N2        -1.8450   12.3020   15.5530 N.pl3 247  ZAP247      0.2047
     19  N3         0.4360   17.1940   20.0280 N.am  247  ZAP247     -0.1565
     20  O3        -0.2080   19.2750   20.3350 O.2   247  ZAP247     -0.2245
     21  O4         1.9970   18.7860   20.4420 O.3   247  ZAP247     -0.4285
     22  O1P       -0.2980   16.9340   22.8370 O.3   247  ZAP247     -0.1724
     23  O2P       -1.9690   15.2120   22.4140 O.3   247  ZAP247     -0.1724
     24  P         -0.7060   15.8340   21.9360 P.3   247  ZAP247      0.2795
@<TRIPOS>BOND
     1    17     1    2
     2    18     1    1
     3     1     2    1
     4    15    14   ar
     5    15    16   ar
     6    14    13   ar
     7     2     3   ar
     8     2     7   ar
     9     3     4   ar
    10    16    11   ar
    11     7     6   ar
    12    13    12   ar
    13     4     5   ar
    14    11    12   ar
    15    11    10    1
    16     6     5   ar
    17     5     8    1
    18    10    21    1
    19    19     8    1
    20    19     9   am
    21     8    24    1
    22    20     9    2
    23    21     9    1
    24    24    23    1
    25    24    22    1
