@<TRIPOS>MOLECULE
1mb2_TRP_A_1.pdb
 15 16 0 0 0
SMALL
GASTEIGER

@<TRIPOS>ATOM
      1  N         34.8700   -3.9010   42.3970 N.3   400  TRP400     -0.1205
      2  CA        36.0980   -3.2140   42.8440 C.3   400  TRP400      0.1984
      3  C         36.0600   -2.8180   44.4090 C.2   400  TRP400      0.3822
      4  O         34.8820   -2.6670   45.0360 O.co2 400  TRP400     -0.2440
      5  CB        36.0660   -2.1680   41.6880 C.3   400  TRP400      0.0549
      6  CG        36.8670   -0.9540   41.4120 C.2   400  TRP400     -0.0138
      7  CD1       36.3920   -0.0100   40.5830 C.2   400  TRP400      0.0907
      8  CD2       38.1250   -0.5410   41.8820 C.3   400  TRP400      0.0819
      9  NE1       37.2530    1.0120   40.4890 N.2   400  TRP400     -0.2482
     10  CE2       38.3330    0.7580   41.2800 C.2   400  TRP400      0.0665
     11  CE3       39.0620   -1.0870   42.7700 C.2   400  TRP400     -0.0164
     12  CZ2       39.4650    1.4880   41.5240 C.2   400  TRP400      0.0153
     13  CZ3       40.2040   -0.3530   43.0180 C.2   400  TRP400     -0.0038
     14  CH2       40.4360    0.9510   42.4190 C.2   400  TRP400      0.0009
     15  OXT       37.1810   -2.5950   45.0350 O.co2 400  TRP400     -0.2440
@<TRIPOS>BOND
     1     9     7    1
     2     9    10    2
     3     7     6    2
     4    10    12    1
     5    10     8    1
     6     6     5    1
     7     6     8    1
     8    12    14    2
     9     5     2    1
    10     8    11    1
    11     1     2    1
    12    14    13    1
    13    11    13    2
    14     2     3    1
    15     3    15   ar
    16     3     4   ar
