@<TRIPOS>MOLECULE
1mb4_NDP_A_1.pdb
 48 52 0 0 0
SMALL
GASTEIGER

@<TRIPOS>ATOM
      1  PA       143.7670    1.5810  -49.5560 P.3   502  NDP502      0.2189
      2  O1A      144.8800    1.0230  -50.3520 O.2   502  NDP502     -0.5170
      3  O2A      143.6560    1.1850  -48.1290 O.3   502  NDP502     -0.4371
      4  O5B      143.8260    3.1870  -49.6510 O.3   502  NDP502     -0.3112
      5  C5B      142.7540    3.9980  -49.1510 C.3   502  NDP502      0.1813
      6  C4B      143.3190    5.1720  -48.3270 C.3   502  NDP502      0.1820
      7  O4B      143.9530    4.7730  -47.0830 O.3   502  NDP502     -0.3136
      8  C3B      144.3840    6.0040  -49.0130 C.3   502  NDP502      0.2157
      9  O3B      143.7760    6.8640  -49.9780 O.3   502  NDP502     -0.2175
     10  C2B      144.9350    6.8210  -47.8680 C.3   502  NDP502      0.2314
     11  O2B      144.0910    7.9500  -47.6520 O.3   502  NDP502     -0.2630
     12  C1B      144.8140    5.8830  -46.6530 C.3   502  NDP502      0.3158
     13  N9A      146.1240    5.3130  -46.2110 N.pl3 502  NDP502     -0.1439
     14  C8A      146.4290    5.0300  -44.9420 C.3   502  NDP502      0.3377
     15  N7A      147.6670    4.5340  -44.8720 N.2   502  NDP502     -0.2095
     16  C5A      148.1570    4.4980  -46.1040 C.2   502  NDP502      0.2526
     17  C6A      149.3820    4.0900  -46.6430 C.2   502  NDP502      0.4393
     18  N6A      150.3250    3.5910  -45.8530 N.pl3 502  NDP502      0.2180
     19  N1A      149.5960    4.1860  -47.9770 N.2   502  NDP502      0.0021
     20  C2A      148.6420    4.6670  -48.7850 C.3   502  NDP502      0.5254
     21  N3A      147.4510    5.0640  -48.2900 N.2   502  NDP502     -0.0055
     22  C4A      147.1870    4.9920  -46.9610 C.2   502  NDP502      0.3518
     23  O3       142.3510    1.2080  -50.2750 O.3   502  NDP502     -0.2703
     24  PN       142.2700    0.5210  -51.7530 P.3   502  NDP502      0.2189
     25  O1N      142.7370   -0.8890  -51.6680 O.3   502  NDP502     -0.4371
     26  O2N      142.9030    1.4140  -52.7480 O.2   502  NDP502     -0.5170
     27  O5D      140.6700    0.4710  -52.0420 O.3   502  NDP502     -0.3112
     28  C5D      139.9310    1.6900  -52.1930 C.3   502  NDP502      0.1813
     29  C4D      138.5310    1.4600  -52.8070 C.3   502  NDP502      0.1799
     30  O4D      138.7020    0.7580  -54.0960 O.3   502  NDP502     -0.3327
     31  C3D      137.6160    0.5570  -51.9670 C.3   502  NDP502      0.2158
     32  O3D      136.2820    1.0940  -51.9550 O.3   502  NDP502     -0.2175
     33  C2D      137.6100   -0.7630  -52.6770 C.3   502  NDP502      0.2309
     34  O2D      136.3460   -1.4170  -52.5060 O.3   502  NDP502     -0.2158
     35  C1D      137.7700   -0.3550  -54.1260 C.3   502  NDP502      0.2263
     36  N1N      138.1640   -1.4380  -55.0450 N.pl3 502  NDP502     -0.2787
     37  C2N      139.3570   -2.1850  -54.8100 C.3   502  NDP502      0.1244
     38  C3N      139.7330   -3.1940  -55.7110 C.2   502  NDP502      0.0544
     39  C7N      141.0110   -4.0030  -55.4850 C.2   502  NDP502      0.2818
     40  O7N      141.3650   -4.8480  -56.3060 O.2   502  NDP502     -0.2670
     41  N7N      141.6830   -3.7180  -54.3660 N.am  502  NDP502     -0.0839
     42  C4N      138.9270   -3.4570  -56.8410 C.2   502  NDP502      0.0033
     43  C5N      137.7440   -2.7200  -57.0780 C.2   502  NDP502      0.0157
     44  C6N      137.3570   -1.7080  -56.1810 C.2   502  NDP502      0.0633
     45  P2B      144.6980    9.4170  -47.3380 P.3   502  NDP502      0.5328
     46  O1X      145.3210    9.2430  -45.8620 O.3   502  NDP502     -0.1145
     47  O2X      143.5650   10.3630  -47.2730 O.3   502  NDP502     -0.1145
     48  O3X      145.8040    9.6870  -48.2860 O.2   502  NDP502     -0.2224
@<TRIPOS>BOND
     1    43    42    1
     2    43    44    2
     3    42    38    2
     4    40    39    2
     5    44    36    1
     6    38    39    1
     7    38    37    1
     8    39    41   am
     9    36    37    1
    10    36    35    1
    11    35    30    1
    12    35    33    1
    13    30    29    1
    14    29    28    1
    15    29    31    1
    16    26    24    2
    17    33    34    1
    18    33    31    1
    19    28    27    1
    20    27    24    1
    21    31    32    1
    22    24    25    1
    23    24    23    1
    24     2     1    2
    25    23     1    1
    26     9     8    1
    27     4     1    1
    28     4     5    1
    29     1     3    1
    30     5     6    1
    31     8     6    1
    32     8    10    1
    33    20    21    1
    34    20    19    1
    35     6     7    1
    36    21    22    2
    37    48    45    2
    38    19    17    2
    39    10    11    1
    40    10    12    1
    41    11    45    1
    42    45    47    1
    43    45    46    1
    44     7    12    1
    45    22    13    1
    46    22    16    1
    47    12    13    1
    48    17    16    1
    49    17    18    1
    50    13    14    1
    51    16    15    2
    52    14    15    1
