@<TRIPOS>MOLECULE
1mb9_ATP_A_1.pdb
 31 33 0 0 0
SMALL
GASTEIGER

@<TRIPOS>ATOM
      1  PG        -0.9610   96.0540   60.5920 P.3   701  ATP701      0.5373
      2  O1G       -2.0190   95.0250   60.2670 O.3   701  ATP701     -0.1143
      3  O2G       -0.6480   96.8620   59.3870 O.2   701  ATP701     -0.2221
      4  O3G        0.3420   95.3070   61.1390 O.3   701  ATP701     -0.1143
      5  PB        -2.1740   96.3560   63.0620 P.3   701  ATP701      0.2277
      6  O1B       -1.9390   97.2620   64.2060 O.3   701  ATP701     -0.4368
      7  O2B       -3.5900   96.0500   62.8050 O.2   701  ATP701     -0.5168
      8  O3B       -1.5540   96.9760   61.7360 O.3   701  ATP701     -0.2258
      9  PA        -2.3620   93.3120   63.2490 P.3   701  ATP701      0.2189
     10  O1A       -3.0100   93.1170   61.8850 O.2   701  ATP701     -0.5170
     11  O2A       -1.4420   92.1020   63.4800 O.3   701  ATP701     -0.4371
     12  O3A       -1.3770   94.9200   63.3560 O.3   701  ATP701     -0.2700
     13  O5'       -3.6920   93.2350   64.2020 O.3   701  ATP701     -0.3112
     14  C5'       -4.4940   92.8430   65.0120 C.3   701  ATP701      0.1813
     15  C4'       -5.1310   93.9020   65.9730 C.3   701  ATP701      0.1821
     16  O4'       -4.9940   93.5270   67.3740 O.3   701  ATP701     -0.3135
     17  C3'       -4.6280   95.3480   65.8680 C.3   701  ATP701      0.2184
     18  O3'       -5.4760   96.2370   65.1910 O.3   701  ATP701     -0.2174
     19  C2'       -4.2470   95.7160   67.3150 C.3   701  ATP701      0.2570
     20  O2'       -5.0670   96.8270   67.7690 O.3   701  ATP701     -0.2130
     21  C1'       -4.4760   94.5340   68.2370 C.3   701  ATP701      0.3186
     22  N9        -3.1750   93.9510   68.8080 N.pl3 701  ATP701     -0.1439
     23  C8        -2.6210   92.6890   68.4920 C.3   701  ATP701      0.3377
     24  N7        -1.4890   92.3880   69.0950 N.2   701  ATP701     -0.2095
     25  C5        -1.2120   93.5000   69.8970 C.2   701  ATP701      0.2526
     26  C6        -0.0920   93.7810   70.8150 C.2   701  ATP701      0.4393
     27  N6         0.8380   93.0200   71.0270 N.pl3 701  ATP701      0.2180
     28  N1        -0.2010   95.0400   71.4390 N.2   701  ATP701      0.0021
     29  C2        -1.2380   95.9860   71.2590 C.3   701  ATP701      0.5254
     30  N3        -2.2610   95.7500   70.4300 N.2   701  ATP701     -0.0055
     31  C4        -2.2320   94.4930   69.7510 C.2   701  ATP701      0.3518
@<TRIPOS>BOND
     1     3     1    2
     2     2     1    1
     3     1     4    1
     4     1     8    1
     5     8     5    1
     6    10     9    2
     7     7     5    2
     8     5    12    1
     9     5     6    1
    10     9    12    1
    11     9    11    1
    12     9    13    1
    13    13    14    1
    14    14    15    1
    15    18    17    1
    16    17    15    1
    17    17    19    1
    18    15    16    1
    19    19    20    1
    20    19    21    1
    21    16    21    1
    22    21    22    1
    23    23    22    1
    24    23    24    1
    25    22    31    1
    26    24    25    2
    27    31    25    1
    28    31    30    2
    29    25    26    1
    30    30    29    1
    31    26    27    1
    32    26    28    2
    33    29    28    1
