@<TRIPOS>MOLECULE
1mb9_AMP_A_1.pdb
 23 25 0 0 0
SMALL
GASTEIGER

@<TRIPOS>ATOM
      1  P         -4.3590   91.4750   63.9300 P.3   706  AMP706      0.5888
      2  O1P       -5.4060   90.7590   63.1800 O.2   706  AMP706     -0.2114
      3  O2P       -3.8720   92.7070   63.2340 O.3   706  AMP706     -0.1039
      4  O3P       -3.2470   90.5760   64.4470 O.3   706  AMP706     -0.1039
      5  O5'       -5.1710   92.0020   65.2460 O.2   706  AMP706     -0.3937
      6  C5'       -5.1010   92.6460   66.3970 C.2   706  AMP706      0.2181
      7  C4'       -4.9890   93.7710   67.1230 C.2   706  AMP706      0.1906
      8  O4'       -5.1210   94.0740   68.5600 O.2   706  AMP706     -0.4379
      9  C3'       -4.7100   95.2170   66.3140 C.3   706  AMP706      0.2494
     10  O3'       -5.3950   95.8680   65.3010 O.3   706  AMP706     -0.2117
     11  C2'       -4.2900   96.1560   67.5630 C.3   706  AMP706      0.2757
     12  O2'       -4.8160   97.4630   67.4760 O.3   706  AMP706     -0.2112
     13  C1'       -4.3600   95.1050   68.9100 C.3   706  AMP706      0.3699
     14  N9        -3.1960   94.6680   68.9670 N.pl3 706  AMP706     -0.1327
     15  C8        -2.9350   93.3630   68.5260 C.3   706  AMP706      0.3386
     16  N7        -1.8190   92.7710   68.9980 N.2   706  AMP706     -0.2095
     17  C5        -1.3360   93.8130   69.7950 C.2   706  AMP706      0.2526
     18  C6        -0.2370   93.8480   70.6630 C.2   706  AMP706      0.4393
     19  N6         0.6470   92.7860   70.6720 N.pl3 706  AMP706      0.2180
     20  N1        -0.1400   94.9830   71.4390 N.2   706  AMP706      0.0021
     21  C2        -0.9940   96.0050   71.3480 C.3   706  AMP706      0.5254
     22  N3        -2.0420   96.0760   70.5270 N.2   706  AMP706     -0.0054
     23  C4        -2.1630   94.9610   69.7970 C.2   706  AMP706      0.3527
@<TRIPOS>BOND
     1     2     1    2
     2     3     1    1
     3     1     4    1
     4     1     5    1
     5     5     6    1
     6    10     9    1
     7     9     7    1
     8     9    11    1
     9     6     7    2
    10     7     8    1
    11    12    11    1
    12    11    13    1
    13    15    14    1
    14    15    16    1
    15     8    13    1
    16    13    14    1
    17    14    23    1
    18    16    17    2
    19    17    23    1
    20    17    18    1
    21    23    22    2
    22    22    21    1
    23    18    19    1
    24    18    20    2
    25    21    20    1
