@<TRIPOS>MOLECULE
1mba_HEM_A_1.pdb
 43 50 0 0 0
SMALL
GASTEIGER

@<TRIPOS>ATOM
      1 FE        -58.5410  -37.7820  -32.4650 Fe    148  HEM148      0.0000
      2  CHA      -59.1460  -34.3690  -32.4680 C.2   148  HEM148      0.0000
      3  CHB      -59.2550  -37.9640  -29.1450 C.2   148  HEM148      0.0000
      4  CHC      -57.3680  -41.0190  -32.3640 C.2   148  HEM148      0.0000
      5  CHD      -57.4290  -37.5220  -35.6570 C.2   148  HEM148      0.0000
      6  NA       -58.9990  -36.4040  -31.0580 N.2   148  HEM148      0.0000
      7  C1A      -59.3010  -35.0670  -31.2560 C.2   148  HEM148      0.0000
      8  C2A      -59.9350  -34.5180  -30.0480 C.2   148  HEM148      0.0000
      9  C3A      -59.9540  -35.5270  -29.1380 C.2   148  HEM148      0.0000
     10  C4A      -59.3890  -36.7050  -29.7670 C.2   148  HEM148      0.0000
     11  CMA      -60.4470  -35.5270  -27.6690 C.3   148  HEM148      0.0000
     12  CAA      -60.4350  -33.0390  -29.9350 C.3   148  HEM148      0.0000
     13  CBA      -59.3540  -32.1330  -29.3400 C.3   148  HEM148      0.0000
     14  CGA      -59.7920  -30.7050  -29.0950 C.2   148  HEM148      0.0000
     15  O1A      -60.1650  -30.3790  -27.9530 O.co2 148  HEM148      0.0000
     16  O2A      -59.8370  -29.9110  -30.0530 O.co2 148  HEM148      0.0000
     17  NB       -58.4220  -39.2290  -31.0640 N.ar  148  HEM148      0.0000
     18  C1B      -58.7630  -39.1080  -29.7160 C.ar  148  HEM148      0.0000
     19  C2B      -58.5930  -40.3790  -29.0380 C.ar  148  HEM148      0.0000
     20  C3B      -57.9420  -41.2070  -29.8690 C.ar  148  HEM148      0.0000
     21  C4B      -57.8940  -40.4900  -31.1860 C.ar  148  HEM148      0.0000
     22  CMB      -59.0710  -40.6720  -27.6030 C.3   148  HEM148      0.0000
     23  CAB      -57.6650  -42.7190  -29.6340 C.2   148  HEM148      0.0000
     24  CBB      -56.4750  -43.2770  -29.4840 C.2   148  HEM148      0.0000
     25  NC       -57.5970  -39.0210  -33.6990 N.2   148  HEM148      0.0000
     26  C1C      -57.2580  -40.3510  -33.5490 C.2   148  HEM148      0.0000
     27  C2C      -56.6700  -40.8950  -34.8030 C.2   148  HEM148      0.0000
     28  C3C      -56.6680  -39.8540  -35.6650 C.2   148  HEM148      0.0000
     29  C4C      -57.2390  -38.7120  -35.0010 C.2   148  HEM148      0.0000
     30  CMC      -56.1590  -42.3310  -35.0110 C.3   148  HEM148      0.0000
     31  CAC      -56.1890  -39.7940  -37.1160 C.2   148  HEM148      0.0000
     32  CBC      -55.6810  -40.8960  -37.6320 C.2   148  HEM148      0.0000
     33  ND       -58.3960  -36.2500  -33.8380 N.ar  148  HEM148      0.0000
     34  C1D      -57.9380  -36.3640  -35.1210 C.ar  148  HEM148      0.0000
     35  C2D      -58.0550  -35.1000  -35.8100 C.ar  148  HEM148      0.0000
     36  C3D      -58.5140  -34.2210  -34.9100 C.ar  148  HEM148      0.0000
     37  C4D      -58.7280  -34.9370  -33.6720 C.ar  148  HEM148      0.0000
     38  CMD      -57.6020  -34.7990  -37.2620 C.3   148  HEM148      0.0000
     39  CAD      -58.7520  -32.7190  -35.1090 C.3   148  HEM148      0.0000
     40  CBD      -58.0430  -31.7950  -34.1040 C.3   148  HEM148      0.0000
     41  CGD      -56.8680  -31.2390  -34.8280 C.2   148  HEM148      0.0000
     42  O1D      -56.1890  -32.0610  -35.4540 O.co2 148  HEM148      0.0000
     43  O2D      -56.5580  -30.0430  -34.7330 O.co2 148  HEM148      0.0000
@<TRIPOS>BOND
     1    32    31    2
     2    38    35    1
     3    31    28    1
     4    35    34   ar
     5    35    36   ar
     6    28    29    1
     7    28    27    2
     8     5    34    2
     9     5    29    1
    10    42    41   ar
    11    34    33   ar
    12    39    36    1
    13    39    40    1
    14    30    27    1
    15    29    25    2
    16    36    37   ar
    17    41    43   ar
    18    41    40    1
    19    27    26    1
    20    33    37   ar
    21    33     1    1
    22    25    26    1
    23    25     1    1
    24    37     2    2
    25    26     4    2
    26     2     7    1
    27     1    17    1
    28     1     6    1
    29     4    21    1
    30     7     6    2
    31     7     8    1
    32    21    17   ar
    33    21    20   ar
    34    17    18   ar
    35     6    10    1
    36    16    14   ar
    37     8    12    1
    38     8     9    2
    39    12    13    1
    40    20    23    1
    41    20    19   ar
    42    10     3    2
    43    10     9    1
    44    18     3    1
    45    18    19   ar
    46    23    24    2
    47    13    14    1
    48     9    11    1
    49    14    15   ar
    50    19    22    1
