@<TRIPOS>MOLECULE
1mbb_EEB_A_1.pdb
 45 47 0 0 0
SMALL
GASTEIGER

@<TRIPOS>ATOM
      1  N1U       16.4970   22.5710   13.9420 N.am  402  EEB402     -0.1766
      2  C2U       17.8800   22.6470   13.8630 C.1   402  EEB402      0.2845
      3  N3U       18.5290   21.4880   13.6610 N.2   402  EEB402     -0.2452
      4  C4U       17.9480   20.2810   13.5640 C.1   402  EEB402      0.2182
      5  C5U       16.4680   20.1690   13.6540 C.2   402  EEB402      0.1242
      6  C6U       15.7510   21.3040   13.8630 C.2   402  EEB402      0.0929
      7  O2U       18.4600   23.7040   13.9680 O.2   402  EEB402     -0.1918
      8  O4U       18.5970   19.2570   13.4100 O.2   402  EEB402     -0.2085
      9  C1D       15.7520   23.8070   14.1490 C.3   402  EEB402      0.2401
     10  C2D       15.1190   24.4070   12.8960 C.3   402  EEB402      0.2319
     11  O2D       15.9290   25.0150   11.9790 O.3   402  EEB402     -0.2157
     12  C3D       14.0530   25.2230   13.4860 C.3   402  EEB402      0.2158
     13  C4D       13.6710   24.4800   14.7670 C.3   402  EEB402      0.1799
     14  O4D       14.6690   23.5190   14.9910 O.3   402  EEB402     -0.3320
     15  O3D       14.3950   26.6140   13.4930 O.3   402  EEB402     -0.2175
     16  C5D       12.3170   23.7390   14.4290 C.3   402  EEB402      0.1813
     17  O5D       12.6050   22.8810   13.2560 O.3   402  EEB402     -0.3112
     18  PA        11.4190   22.1960   12.5160 P.3   402  EEB402      0.2189
     19  O1A       10.8820   23.4040   11.7610 O.3   402  EEB402     -0.4371
     20  O2A       12.2030   21.2860   11.5930 O.2   402  EEB402     -0.5170
     21  O3A       10.2680   21.4400   13.1280 O.3   402  EEB402     -0.2703
     22  PB        10.5020   20.7360   14.4920 P.3   402  EEB402      0.2208
     23  O1B       10.0710   21.6340   15.6290 O.3   402  EEB402     -0.4371
     24  O2B       11.9140   20.2060   14.6170 O.2   402  EEB402     -0.5170
     25  C1         8.2120   19.8700   14.6590 C.3   402  EEB402      0.2644
     26  C2         7.2890   18.6730   14.7900 C.3   402  EEB402      0.1940
     27  C3         7.2830   17.8900   13.4900 C.3   402  EEB402      0.2235
     28  C4         6.6200   19.0040   12.5380 C.3   402  EEB402      0.2230
     29  C5         7.4360   20.3170   12.4550 C.3   402  EEB402      0.1845
     30  C6         6.7080   21.4570   11.6790 C.3   402  EEB402      0.2142
     31  C7         6.9510   18.5010   17.3860 C.2   402  EEB402      0.2421
     32  C8         7.6650   17.5220   18.3390 C.3   402  EEB402      0.0964
     33  N2         7.4060   18.2780   16.1680 N.am  402  EEB402     -0.1981
     34  O1         9.5380   19.5780   14.3560 O.3   402  EEB402     -0.2864
     35  O3         6.5540   16.7650   13.8220 O.2   402  EEB402     -0.4684
     36  O4         6.4360   18.5420   11.2340 O.3   402  EEB402     -0.2165
     37  O5         7.5880   20.7710   13.7860 O.3   402  EEB402     -0.3259
     38  O6         5.5490   21.9940   12.2990 O.3   402  EEB402     -0.2176
     39  O7         6.1560   19.2800   17.7630 O.2   402  EEB402     -0.2733
     40  C1E        6.5720   14.4550   14.2990 C.2   402  EEB402      0.4207
     41  C2E        7.0270   15.5690   13.3890 C.2   402  EEB402      0.2138
     42  C3E        7.7960   15.4120   12.2720 C.2   402  EEB402      0.0179
     43  C4E        8.3450   14.1180   11.7580 C.3   402  EEB402      0.0342
     44  O1E        6.8650   13.2310   14.0310 O.co2 402  EEB402     -0.2371
     45  O2E        5.8800   14.7360   15.3490 O.co2 402  EEB402     -0.2371
@<TRIPOS>BOND
     1    36    28    1
     2    20    18    2
     3    30    38    1
     4    30    29    1
     5    43    42    1
     6    19    18    1
     7    11    10    1
     8    42    41    2
     9    29    28    1
    10    29    37    1
    11    18    21    1
    12    18    17    1
    13    28    27    1
    14    10    12    1
    15    10     9    1
    16    21    22    1
    17    17    16    1
    18    41    35    1
    19    41    40    1
    20     8     4    2
    21    12    15    1
    22    12    13    1
    23    27    35    1
    24    27    26    1
    25     4     5    1
    26     4     3    2
    27     5     6    2
    28     3     2    2
    29    37    25    1
    30     2     1   am
    31     2     7    2
    32     6     1    1
    33     1     9    1
    34    44    40   ar
    35     9    14    1
    36    40    45   ar
    37    34    22    1
    38    34    25    1
    39    16    13    1
    40    22    24    2
    41    22    23    1
    42    25    26    1
    43    13    14    1
    44    26    33    1
    45    33    31   am
    46    31    39    2
    47    31    32    1
