@<TRIPOS>MOLECULE
1mbc_HEM_A_1.pdb
 43 50 0 0 0
SMALL
GASTEIGER

@<TRIPOS>ATOM
      1 FE         14.7010   27.6940    4.7390 Fe    155  HEM155      0.0000
      2  CHA       16.1650   30.8090    5.0050 C.2   155  HEM155      0.0000
      3  CHB       14.0750   27.6940    8.0760 C.2   155  HEM155      0.0000
      4  CHC       13.4020   24.7340    4.3380 C.2   155  HEM155      0.0000
      5  CHD       15.4930   27.7250    1.2680 C.2   155  HEM155      0.0000
      6  NA        15.0640   29.0200    6.1730 N.2   155  HEM155      0.0000
      7  C1A       15.5960   30.2850    6.1070 C.2   155  HEM155      0.0000
      8  C2A       15.5380   30.9330    7.4420 C.2   155  HEM155      0.0000
      9  C3A       14.9260   30.0690    8.2420 C.2   155  HEM155      0.0000
     10  C4A       14.7400   28.8660    7.5420 C.2   155  HEM155      0.0000
     11  CMA       14.5640   30.1920    9.7440 C.3   155  HEM155      0.0000
     12  CAA       15.9660   32.3510    7.7420 C.3   155  HEM155      0.0000
     13  CBA       14.8180   33.3690    7.9420 C.3   155  HEM155      0.0000
     14  CGA       13.8660   33.3690    6.7740 C.2   155  HEM155      0.0000
     15  O1A       12.7830   32.7210    6.9740 O.co2 155  HEM155      0.0000
     16  O2A       14.1980   33.8310    5.6060 O.co2 155  HEM155      0.0000
     17  NB        13.8460   26.4920    5.9400 N.ar  155  HEM155      0.0000
     18  C1B       13.6410   26.5840    7.3410 C.ar  155  HEM155      0.0000
     19  C2B       12.9310   25.4430    7.8090 C.ar  155  HEM155      0.0000
     20  C3B       12.7660   24.6100    6.8070 C.ar  155  HEM155      0.0000
     21  C4B       13.2990   25.2580    5.6060 C.ar  155  HEM155      0.0000
     22  CMB       12.5050   25.2890    9.3100 C.3   155  HEM155      0.0000
     23  CAB       12.1520   23.2230    6.7070 C.3   155  HEM155      0.0000
     24  CBB       12.5010   22.3900    7.7420 C.3   155  HEM155      0.0000
     25  NC        14.4400   26.4920    3.1700 N.2   155  HEM155      0.0000
     26  C1C       13.9170   25.1960    3.2040 C.2   155  HEM155      0.0000
     27  C2C       14.1290   24.5180    2.0020 C.2   155  HEM155      0.0000
     28  C3C       14.7510   25.3810    1.1680 C.2   155  HEM155      0.0000
     29  C4C       14.8640   26.6460    1.9020 C.2   155  HEM155      0.0000
     30  CMC       13.7100   23.0680    1.6680 C.3   155  HEM155      0.0000
     31  CAC       15.2410   25.1960   -0.3340 C.2   155  HEM155      0.0000
     32  CBC       15.3830   23.9940   -0.8340 C.2   155  HEM155      0.0000
     33  ND        15.5830   28.9280    3.4370 N.ar  155  HEM155      0.0000
     34  C1D       15.8340   28.7430    2.1020 C.ar  155  HEM155      0.0000
     35  C2D       16.5720   29.9460    1.5350 C.ar  155  HEM155      0.0000
     36  C3D       16.7180   30.7470    2.6030 C.ar  155  HEM155      0.0000
     37  C4D       16.0760   30.1920    3.7370 C.ar  155  HEM155      0.0000
     38  CMD       16.9340   30.1310    0.0330 C.3   155  HEM155      0.0000
     39  CAD       17.4430   32.1040    2.5360 C.3   155  HEM155      0.0000
     40  CBD       18.7750   32.0740    3.2700 C.3   155  HEM155      0.0000
     41  CGD       19.7760   33.0910    3.1370 C.2   155  HEM155      0.0000
     42  O1D       20.1260   33.2760    1.9020 O.co2 155  HEM155      0.0000
     43  O2D       20.1340   33.6770    4.1380 O.co2 155  HEM155      0.0000
@<TRIPOS>BOND
     1    32    31    2
     2    31    28    1
     3    38    35    1
     4    28    29    1
     5    28    27    2
     6     5    29    1
     7     5    34    2
     8    35    34   ar
     9    35    36   ar
    10    30    27    1
    11    29    25    2
    12    42    41   ar
    13    27    26    1
    14    34    33   ar
    15    39    36    1
    16    39    40    1
    17    36    37   ar
    18    41    40    1
    19    41    43   ar
    20    25    26    1
    21    25     1    1
    22    26     4    2
    23    33    37   ar
    24    33     1    1
    25    37     2    2
    26     4    21    1
    27     1    17    1
    28     1     6    1
    29     2     7    1
    30    21    17   ar
    31    21    20   ar
    32    16    14   ar
    33    17    18   ar
    34     7     6    2
    35     7     8    1
    36     6    10    1
    37    23    20    1
    38    23    24    1
    39    14    15   ar
    40    14    13    1
    41    20    19   ar
    42    18    19   ar
    43    18     3    1
    44     8    12    1
    45     8     9    2
    46    10     3    2
    47    10     9    1
    48    12    13    1
    49    19    22    1
    50     9    11    1
