@<TRIPOS>MOLECULE
1mbd_HEM_A_1.pdb
 43 50 0 0 0
SMALL
GASTEIGER

@<TRIPOS>ATOM
      1 FE         15.2710   27.9620    0.6220 Fe    155  HEM155      0.0000
      2  CHA       16.8690   31.0300    0.4210 C.2   155  HEM155      0.0000
      3  CHB       15.6260   27.8500    4.0260 C.2   155  HEM155      0.0000
      4  CHC       14.2160   24.6820    0.6740 C.2   155  HEM155      0.0000
      5  CHD       15.5810   27.8050   -2.7630 C.2   155  HEM155      0.0000
      6  NA        16.2060   29.1330    1.9390 N.2   155  HEM155      0.0000
      7  C1A       16.7090   30.4870    1.6600 C.2   155  HEM155      0.0000
      8  C2A       16.8900   31.0860    2.9720 C.2   155  HEM155      0.0000
      9  C3A       16.5540   30.2380    4.0110 C.2   155  HEM155      0.0000
     10  C4A       16.0790   28.9500    3.3660 C.2   155  HEM155      0.0000
     11  CMA       16.5670   30.4740    5.5440 C.3   155  HEM155      0.0000
     12  CAA       17.3470   32.4880    3.1280 C.3   155  HEM155      0.0000
     13  CBA       16.2360   33.4670    3.6300 C.3   155  HEM155      0.0000
     14  CGA       15.1220   33.6060    2.5560 C.2   155  HEM155      0.0000
     15  O1A       15.2960   34.1510    1.4790 O.co2 155  HEM155      0.0000
     16  O2A       14.0610   33.1410    3.0710 O.co2 155  HEM155      0.0000
     17  NB        14.9100   26.6160    2.0090 N.ar  155  HEM155      0.0000
     18  C1B       15.1130   26.7510    3.3760 C.ar  155  HEM155      0.0000
     19  C2B       14.6520   25.5660    4.1080 C.ar  155  HEM155      0.0000
     20  C3B       14.3340   24.6220    3.1180 C.ar  155  HEM155      0.0000
     21  C4B       14.4860   25.3200    1.8510 C.ar  155  HEM155      0.0000
     22  CMB       14.6360   25.4890    5.6670 C.3   155  HEM155      0.0000
     23  CAB       13.8930   23.2030    3.3840 C.2   155  HEM155      0.0000
     24  CBB       14.4110   22.4590    4.3940 C.2   155  HEM155      0.0000
     25  NC        14.9380   26.5410   -0.7910 N.2   155  HEM155      0.0000
     26  C1C       14.4870   25.2530   -0.5820 C.2   155  HEM155      0.0000
     27  C2C       14.3600   24.5550   -1.8160 C.2   155  HEM155      0.0000
     28  C3C       14.8190   25.3930   -2.8790 C.2   155  HEM155      0.0000
     29  C4C       15.0960   26.6520   -2.1430 C.2   155  HEM155      0.0000
     30  CMC       13.9170   23.0850   -1.8740 C.3   155  HEM155      0.0000
     31  CAC       14.9210   25.1110   -4.3670 C.2   155  HEM155      0.0000
     32  CBC       14.6370   23.9480   -5.0000 C.2   155  HEM155      0.0000
     33  ND        16.1600   29.1640   -0.8370 N.ar  155  HEM155      0.0000
     34  C1D       16.0630   29.0030   -2.1390 C.ar  155  HEM155      0.0000
     35  C2D       16.5800   30.1360   -2.9420 C.ar  155  HEM155      0.0000
     36  C3D       16.9980   30.9830   -1.9860 C.ar  155  HEM155      0.0000
     37  C4D       16.6830   30.4140   -0.7140 C.ar  155  HEM155      0.0000
     38  CMD       16.6190   30.2350   -4.4510 C.3   155  HEM155      0.0000
     39  CAD       17.6890   32.3160   -2.2100 C.3   155  HEM155      0.0000
     40  CBD       19.2300   32.0630   -2.3060 C.3   155  HEM155      0.0000
     41  CGD       20.0630   33.2910   -2.7230 C.2   155  HEM155      0.0000
     42  O1D       20.0260   33.7090   -3.8460 O.co2 155  HEM155      0.0000
     43  O2D       20.6190   33.8150   -1.8050 O.co2 155  HEM155      0.0000
@<TRIPOS>BOND
     1    32    31    2
     2    38    35    1
     3    31    28    1
     4    42    41   ar
     5    35    34   ar
     6    35    36   ar
     7    28    29    1
     8    28    27    2
     9     5    29    1
    10     5    34    2
    11    41    40    1
    12    41    43   ar
    13    40    39    1
    14    39    36    1
    15    29    25    2
    16    34    33   ar
    17    36    37   ar
    18    30    27    1
    19    27    26    1
    20    33    37   ar
    21    33     1    1
    22    25    26    1
    23    25     1    1
    24    37     2    2
    25    26     4    2
    26     2     7    1
    27     1     6    1
    28     1    17    1
    29     4    21    1
    30    15    14   ar
    31     7     6    2
    32     7     8    1
    33    21    17   ar
    34    21    20   ar
    35     6    10    1
    36    17    18   ar
    37    14    16   ar
    38    14    13    1
    39     8    12    1
    40     8     9    2
    41    20    23    1
    42    20    19   ar
    43    12    13    1
    44    10     9    1
    45    10     3    2
    46    18     3    1
    47    18    19   ar
    48    23    24    2
    49     9    11    1
    50    19    22    1
