@<TRIPOS>MOLECULE
1mbi_HEM_A_1.pdb
 43 50 0 0 0
SMALL
GASTEIGER

@<TRIPOS>ATOM
      1 FE         14.7080   28.0980    4.7070 Fe    154  HEM154      0.0000
      2  CHA       15.8380   31.2550    5.0250 C.2   154  HEM154      0.0000
      3  CHB       13.9660   27.9530    8.1250 C.2   154  HEM154      0.0000
      4  CHC       13.3990   24.9640    4.5030 C.2   154  HEM154      0.0000
      5  CHD       15.6840   27.9950    1.5090 C.2   154  HEM154      0.0000
      6  NA        14.8310   29.2140    6.2150 N.2   154  HEM154      0.0000
      7  C1A       15.4000   30.5060    6.0880 C.2   154  HEM154      0.0000
      8  C2A       15.1810   31.1940    7.3370 C.2   154  HEM154      0.0000
      9  C3A       14.8920   30.2970    8.3120 C.2   154  HEM154      0.0000
     10  C4A       14.4980   29.0850    7.5770 C.2   154  HEM154      0.0000
     11  CMA       14.5150   30.6670    9.7490 C.3   154  HEM154      0.0000
     12  CAA       15.7870   32.6260    7.4860 C.3   154  HEM154      0.0000
     13  CBA       14.8180   33.7360    7.9100 C.3   154  HEM154      0.0000
     14  CGA       13.8320   33.8810    6.7860 C.2   154  HEM154      0.0000
     15  O1A       14.2920   34.3230    5.7230 O.co2 154  HEM154      0.0000
     16  O2A       12.6260   33.5040    6.8910 O.co2 154  HEM154      0.0000
     17  NB        13.9380   26.7980    5.9840 N.ar  154  HEM154      0.0000
     18  C1B       13.5500   26.9730    7.2970 C.ar  154  HEM154      0.0000
     19  C2B       13.0600   25.7800    7.9410 C.ar  154  HEM154      0.0000
     20  C3B       12.9100   24.8840    6.9540 C.ar  154  HEM154      0.0000
     21  C4B       13.3820   25.5730    5.7310 C.ar  154  HEM154      0.0000
     22  CMB       12.4870   25.7850    9.3820 C.3   154  HEM154      0.0000
     23  CAB       12.0600   23.6050    7.0560 C.2   154  HEM154      0.0000
     24  CBB       12.4770   22.6450    7.8770 C.2   154  HEM154      0.0000
     25  NC        14.5540   26.7440    3.2880 N.2   154  HEM154      0.0000
     26  C1C       13.9870   25.4890    3.3660 C.2   154  HEM154      0.0000
     27  C2C       14.3280   24.7200    2.1680 C.2   154  HEM154      0.0000
     28  C3C       14.8720   25.6170    1.2860 C.2   154  HEM154      0.0000
     29  C4C       15.0050   26.8960    1.9860 C.2   154  HEM154      0.0000
     30  CMC       13.8450   23.2730    1.9250 C.3   154  HEM154      0.0000
     31  CAC       15.4310   25.4090   -0.1290 C.2   154  HEM154      0.0000
     32  CBC       15.4890   24.1900   -0.6530 C.2   154  HEM154      0.0000
     33  ND        15.6170   29.3980    3.5800 N.ar  154  HEM154      0.0000
     34  C1D       15.9520   29.1440    2.2480 C.ar  154  HEM154      0.0000
     35  C2D       16.3780   30.3730    1.5930 C.ar  154  HEM154      0.0000
     36  C3D       16.5630   31.2670    2.5890 C.ar  154  HEM154      0.0000
     37  C4D       15.9250   30.7280    3.7920 C.ar  154  HEM154      0.0000
     38  CMD       16.9310   30.4650    0.1480 C.3   154  HEM154      0.0000
     39  CAD       17.5120   32.4630    2.5220 C.3   154  HEM154      0.0000
     40  CBD       18.9500   32.1760    2.9970 C.3   154  HEM154      0.0000
     41  CGD       19.8560   33.3830    2.8460 C.2   154  HEM154      0.0000
     42  O1D       20.7670   33.3240    2.0010 O.co2 154  HEM154      0.0000
     43  O2D       19.6270   34.3960    3.5410 O.co2 154  HEM154      0.0000
@<TRIPOS>BOND
     1    32    31    2
     2    31    28    1
     3    38    35    1
     4    28    29    1
     5    28    27    2
     6     5    29    1
     7     5    34    2
     8    35    34   ar
     9    35    36   ar
    10    30    27    1
    11    29    25    2
    12    42    41   ar
    13    27    26    1
    14    34    33   ar
    15    39    36    1
    16    39    40    1
    17    36    37   ar
    18    41    40    1
    19    41    43   ar
    20    25    26    1
    21    25     1    1
    22    26     4    2
    23    33    37   ar
    24    33     1    1
    25    37     2    2
    26     4    21    1
    27     1    17    1
    28     1     6    1
    29     2     7    1
    30    15    14   ar
    31    21    17   ar
    32    21    20   ar
    33    17    18   ar
    34     7     6    2
    35     7     8    1
    36     6    10    1
    37    14    16   ar
    38    14    13    1
    39    20    23    1
    40    20    19   ar
    41    23    24    2
    42    18    19   ar
    43    18     3    1
    44     8    12    1
    45     8     9    2
    46    12    13    1
    47    10     3    2
    48    10     9    1
    49    19    22    1
    50     9    11    1
