@<TRIPOS>MOLECULE
1mbn_HEM_A_1.pdb
 43 51 0 0 0
SMALL
GASTEIGER

@<TRIPOS>ATOM
      1 FE         14.8000   28.1000    4.8000 Fe    155  HEM155      0.0000
      2  CHA       16.3000   31.3000    5.1000 C.2   155  HEM155      0.0000
      3  CHB       14.0000   28.2000    8.2000 C.2   155  HEM155      0.0000
      4  CHC       13.8000   24.8000    4.7000 C.2   155  HEM155      0.0000
      5  CHD       16.1000   27.9000    1.6000 C.2   155  HEM155      0.0000
      6  NA        15.1000   29.4000    6.3000 N.2   155  HEM155      0.0000
      7  C1A       15.7000   30.7000    6.3000 C.2   155  HEM155      0.0000
      8  C2A       15.5000   31.5000    7.5000 C.2   155  HEM155      0.0000
      9  C3A       14.9000   30.5000    8.4000 C.2   155  HEM155      0.0000
     10  C4A       14.6000   29.3000    7.7000 C.2   155  HEM155      0.0000
     11  CMA       14.5000   30.7000    9.8000 C.3   155  HEM155      0.0000
     12  CAA       16.0000   32.8000    7.7000 C.3   155  HEM155      0.0000
     13  CBA       15.0000   34.0000    8.1000 C.3   155  HEM155      0.0000
     14  CGA       14.1000   33.7000    7.0000 C.2   155  HEM155      0.0000
     15  O1A       14.4000   33.9000    5.8000 O.co2 155  HEM155      0.0000
     16  O2A       12.9000   33.2000    7.3000 O.co2 155  HEM155      0.0000
     17  NB        14.1000   26.8000    6.1000 N.ar  155  HEM155      0.0000
     18  C1B       13.7000   27.0000    7.5000 C.ar  155  HEM155      0.0000
     19  C2B       13.1000   25.8000    8.1000 C.ar  155  HEM155      0.0000
     20  C3B       13.0000   24.8000    7.1000 C.ar  155  HEM155      0.0000
     21  C4B       13.6000   25.4000    5.9000 C.ar  155  HEM155      0.0000
     22  CMB       12.6000   25.8000    9.5000 C.3   155  HEM155      0.0000
     23  CAB       12.4000   23.5000    7.1000 C.2   155  HEM155      0.0000
     24  CBB       12.8000   22.5000    7.6000 C.2   155  HEM155      0.0000
     25  NC        14.9000   26.6000    3.4000 N.2   155  HEM155      0.0000
     26  C1C       14.4000   25.3000    3.5000 C.2   155  HEM155      0.0000
     27  C2C       14.5000   24.6000    2.3000 C.2   155  HEM155      0.0000
     28  C3C       15.2000   25.5000    1.3000 C.2   155  HEM155      0.0000
     29  C4C       15.4000   26.7000    2.1000 C.2   155  HEM155      0.0000
     30  CMC       14.0000   23.2000    2.0000 C.3   155  HEM155      0.0000
     31  CAC       15.6000   25.4000    0.0000 C.3   155  HEM155      0.0000
     32  CBC       14.6000   24.4000   -0.7000 C.3   155  HEM155      0.0000
     33  ND        16.0000   29.3000    3.6000 N.pl3 155  HEM155      0.0000
     34  C1D       16.3000   29.1000    2.3000 C.2   155  HEM155      0.0000
     35  C2D       17.0000   30.2000    1.7000 C.2   155  HEM155      0.0000
     36  C3D       17.1000   31.2000    2.7000 C.2   155  HEM155      0.0000
     37  C4D       16.4000   30.6000    3.8000 C.2   155  HEM155      0.0000
     38  CMD       17.5000   30.3000    0.3000 C.3   155  HEM155      0.0000
     39  CAD       17.6000   32.6000    2.7000 C.3   155  HEM155      0.0000
     40  CBD       18.8000   31.6000    2.6000 C.3   155  HEM155      0.0000
     41  CGD       19.7000   32.8000    3.0000 C.2   155  HEM155      0.0000
     42  O1D       20.4000   33.3000    2.1000 O.co2 155  HEM155      0.0000
     43  O2D       19.6000   33.3000    4.1000 O.co2 155  HEM155      0.0000
@<TRIPOS>BOND
     1    32    31    1
     2    31    28    1
     3    38    35    1
     4    28    29    1
     5    28    27    2
     6     5    29    1
     7     5    34    2
     8    35    34    1
     9    35    36    2
    10    30    27    1
    11    29    25    2
    12    42    41   ar
    13    27    26    1
    14    34    33    1
    15    40    39    1
    16    40    36    1
    17    40    41    1
    18    39    36    1
    19    36    37    1
    20    41    43   ar
    21    25    26    1
    22    25     1    1
    23    26     4    2
    24    33    37    1
    25    33     1    1
    26    37     2    2
    27     4    21    1
    28     1    17    1
    29     1     6    1
    30     2     7    1
    31    15    14   ar
    32    21    17   ar
    33    21    20   ar
    34    17    18   ar
    35     6     7    2
    36     6    10    1
    37     7     8    1
    38    14    16   ar
    39    14    13    1
    40    23    20    1
    41    23    24    2
    42    20    19   ar
    43    18    19   ar
    44    18     3    1
    45     8    12    1
    46     8     9    2
    47    12    13    1
    48    10     3    2
    49    10     9    1
    50    19    22    1
    51     9    11    1
