@<TRIPOS>MOLECULE
1mbo_HEM_A_1.pdb
 43 50 0 0 0
SMALL
GASTEIGER

@<TRIPOS>ATOM
      1  CHA       16.9070   31.1400    0.4480 C.2   155  HEM155      0.0000
      2  CHB       15.5620   27.9780    3.9770 C.2   155  HEM155      0.0000
      3  CHC       14.1240   24.7600    0.6390 C.2   155  HEM155      0.0000
      4  CHD       15.4160   28.0280   -2.7860 C.2   155  HEM155      0.0000
      5  C1A       16.7380   30.4840    1.7070 C.2   155  HEM155      0.0000
      6  C2A       16.9130   31.1130    2.9780 C.2   155  HEM155      0.0000
      7  C3A       16.5030   30.2220    3.9520 C.2   155  HEM155      0.0000
      8  C4A       16.0650   28.9820    3.3000 C.2   155  HEM155      0.0000
      9  CMA       16.4330   30.5320    5.4190 C.3   155  HEM155      0.0000
     10  CAA       17.3520   32.5520    3.0990 C.3   155  HEM155      0.0000
     11  CBA       16.2470   33.5680    3.4770 C.3   155  HEM155      0.0000
     12  CGA       15.0880   33.5600    2.4560 C.2   155  HEM155      0.0000
     13  O1A       15.0760   34.2880    1.4580 O.co2 155  HEM155      0.0000
     14  O2A       14.0680   33.1640    2.9960 O.co2 155  HEM155      0.0000
     15  C1B       15.0490   26.8690    3.3600 C.ar  155  HEM155      0.0000
     16  C2B       14.6280   25.6790    4.1000 C.ar  155  HEM155      0.0000
     17  C3B       14.3130   24.7130    3.1250 C.ar  155  HEM155      0.0000
     18  C4B       14.4580   25.3720    1.8400 C.ar  155  HEM155      0.0000
     19  CMB       14.6260   25.5170    5.6440 C.3   155  HEM155      0.0000
     20  CAB       13.9300   23.2610    3.2860 C.3   155  HEM155      0.0000
     21  CBB       14.3900   22.4880    4.3910 C.3   155  HEM155      0.0000
     22  C1C       14.3900   25.3720   -0.5890 C.2   155  HEM155      0.0000
     23  C2C       14.2580   24.6590   -1.8240 C.2   155  HEM155      0.0000
     24  C3C       14.7330   25.5290   -2.8520 C.2   155  HEM155      0.0000
     25  C4C       15.0110   26.8120   -2.1470 C.2   155  HEM155      0.0000
     26  CMC       13.7050   23.2240   -1.8820 C.3   155  HEM155      0.0000
     27  CAC       14.9070   25.2660   -4.3580 C.3   155  HEM155      0.0000
     28  CBC       14.5490   24.0340   -5.0440 C.3   155  HEM155      0.0000
     29  C1D       15.9440   29.1240   -2.1510 C.ar  155  HEM155      0.0000
     30  C2D       16.5200   30.2080   -2.8820 C.ar  155  HEM155      0.0000
     31  C3D       16.9780   31.0480   -1.9820 C.ar  155  HEM155      0.0000
     32  C4D       16.6310   30.4790   -0.7020 C.ar  155  HEM155      0.0000
     33  CMD       16.5690   30.2250   -4.3700 C.3   155  HEM155      0.0000
     34  CAD       17.7480   32.3340   -2.2540 C.3   155  HEM155      0.0000
     35  CBD       19.2220   31.9840   -2.3620 C.3   155  HEM155      0.0000
     36  CGD       20.0690   33.2070   -2.7180 C.2   155  HEM155      0.0000
     37  O1D       19.8730   33.8280   -3.7600 O.co2 155  HEM155      0.0000
     38  O2D       20.6320   33.7260   -1.7920 O.co2 155  HEM155      0.0000
     39  NA        16.3860   29.0370    1.9120 N.2   155  HEM155      0.0000
     40  NB        14.8940   26.7440    1.9450 N.ar  155  HEM155      0.0000
     41  NC        14.8820   26.6590   -0.7560 N.2   155  HEM155      0.0000
     42  ND        16.0500   29.1960   -0.8470 N.ar  155  HEM155      0.0000
     43 FE         15.3680   27.9570    0.5660 Fe    155  HEM155      0.0000
@<TRIPOS>BOND
     1    28    27    1
     2    33    30    1
     3    27    24    1
     4    37    36   ar
     5    30    29   ar
     6    30    31   ar
     7    24    25    1
     8    24    23    2
     9     4    29    2
    10     4    25    1
    11    36    35    1
    12    36    38   ar
    13    35    34    1
    14    34    31    1
    15    29    42   ar
    16    25    41    2
    17    31    32   ar
    18    26    23    1
    19    23    22    1
    20    42    32   ar
    21    42    43    1
    22    41    22    1
    23    41    43    1
    24    32     1    2
    25    22     3    2
    26     1     5    1
    27    43    39    1
    28    43    40    1
    29     3    18    1
    30    13    12   ar
    31     5    39    2
    32     5     6    1
    33    18    40   ar
    34    18    17   ar
    35    39     8    1
    36    40    15   ar
    37    12    14   ar
    38    12    11    1
    39     6    10    1
    40     6     7    2
    41    10    11    1
    42    17    20    1
    43    17    16   ar
    44    20    21    1
    45     8     7    1
    46     8     2    2
    47    15     2    1
    48    15    16   ar
    49     7     9    1
    50    16    19    1
