@<TRIPOS>MOLECULE
1mbs_HEM_A_1.pdb
 43 49 0 0 0
SMALL
GASTEIGER

@<TRIPOS>ATOM
      1  CHA        9.5960  -13.1000   10.3680 C.2   154  HEM154      0.0000
      2  CHB       11.5410  -10.2000    7.3360 C.2   154  HEM154      0.0000
      3  CHC        9.5040   -6.5000    9.3900 C.2   154  HEM154      0.0000
      4  CHD        7.2600   -9.3000   12.4220 C.2   154  HEM154      0.0000
      5  C1A       10.3830  -12.6000    9.4880 C.ar  154  HEM154      0.0000
      6  C2A       10.9700  -13.5000    8.6070 C.ar  154  HEM154      0.0000
      7  C3A       11.5370  -12.6000    7.8250 C.ar  154  HEM154      0.0000
      8  C4A       11.2950  -11.3000    8.0200 C.ar  154  HEM154      0.0000
      9  CMA       12.6280  -13.1000    6.4550 C.3   154  HEM154      0.0000
     10  CAA       11.2500  -15.0000    8.7050 C.3   154  HEM154      0.0000
     11  CBA        9.8700  -15.6000    8.6070 C.3   154  HEM154      0.0000
     12  CGA        8.8990  -14.7000    7.5310 C.3   154  HEM154      0.0000
     13  O1A        8.3370  -14.4000    7.8250 O.3   154  HEM154      0.0000
     14  O2A        9.0620  -14.7000    7.2380 O.3   154  HEM154      0.0000
     15  C1B       11.1780   -8.9000    7.6290 C.2   154  HEM154      0.0000
     16  C2B       11.7450   -7.8000    6.8470 C.2   154  HEM154      0.0000
     17  C3B       11.0200   -6.8000    7.4340 C.2   154  HEM154      0.0000
     18  C4B       10.3700   -7.2000    8.6070 C.2   154  HEM154      0.0000
     19  CMB       12.6150   -7.8000    5.5750 C.3   154  HEM154      0.0000
     20  CAB       11.2030   -5.3000    7.0420 C.2   154  HEM154      0.0000
     21  CBB       11.9110   -4.8000    6.0640 C.2   154  HEM154      0.0000
     22  C1C        8.8170   -6.9000   10.2700 C.ar  154  HEM154      0.0000
     23  C2C        8.1300   -6.1000   11.1500 C.ar  154  HEM154      0.0000
     24  C3C        7.5430   -6.9000   12.0310 C.ar  154  HEM154      0.0000
     25  C4C        7.8050   -8.2000   11.7370 C.ar  154  HEM154      0.0000
     26  CMC        8.0510   -4.6000   11.0530 C.3   154  HEM154      0.0000
     27  CAC        6.4140   -6.5000   13.1070 C.3   154  HEM154      0.0000
     28  CBC        6.1930   -5.1000   13.2040 C.3   154  HEM154      0.0000
     29  C1D        7.8430  -10.6000   12.0310 C.2   154  HEM154      0.0000
     30  C2D        7.2560  -11.7000   12.9110 C.2   154  HEM154      0.0000
     31  C3D        8.1010  -12.8000   12.2260 C.2   154  HEM154      0.0000
     32  C4D        8.8090  -12.3000   11.2480 C.2   154  HEM154      0.0000
     33  CMD        6.4270  -11.8000   13.9870 C.3   154  HEM154      0.0000
     34  CAD        7.8970  -14.2000   12.7150 C.3   154  HEM154      0.0000
     35  CBD        8.0850  -14.2000   14.1820 C.3   154  HEM154      0.0000
     36  CGD        9.0230  -15.5000   14.4760 C.2   154  HEM154      0.0000
     37  O1D        8.8980  -15.8000   15.0630 O.co2 154  HEM154      0.0000
     38  O2D        9.5270  -15.6000   13.9870 O.co2 154  HEM154      0.0000
     39  NA        10.4870  -11.3000    8.9990 N.ar  154  HEM154      0.0000
     40  NB        10.5700   -8.6000    8.6070 N.2   154  HEM154      0.0000
     41  NC         8.6130   -8.2000   10.7590 N.ar  154  HEM154      0.0000
     42  ND         8.7090  -10.9000   11.2480 N.2   154  HEM154      0.0000
     43 FE          9.6210   -9.8000    9.7810 Fe    154  HEM154      0.0000
@<TRIPOS>BOND
     1    19    16    1
     2    21    20    2
     3     9     7    1
     4    16    17    2
     5    16    15    1
     6    20    17    1
     7     2    15    1
     8     2     8    2
     9    17    18    1
    10    12    13    1
    11    12    11    1
    12    15    40    2
    13     7     8   ar
    14     7     6   ar
    15     8    39   ar
    16    11    10    1
    17     6    10    1
    18     6     5   ar
    19    18    40    1
    20    18     3    2
    21    40    43    1
    22    39     5   ar
    23    39    43    1
    24     3    22    1
    25     5     1    2
    26    43    41    1
    27    43    42    1
    28    22    41   ar
    29    22    23   ar
    30     1    32    1
    31    41    25   ar
    32    26    23    1
    33    23    24   ar
    34    42    32    2
    35    42    29    1
    36    32    31    1
    37    25    24   ar
    38    25     4    1
    39    24    27    1
    40    29     4    2
    41    29    30    1
    42    31    34    1
    43    31    30    2
    44    34    35    1
    45    30    33    1
    46    27    28    1
    47    38    36   ar
    48    35    36    1
    49    36    37   ar
