@<TRIPOS>MOLECULE
1mbu_YBT_A_1.pdb
 15 18 0 0 0
SMALL
GASTEIGER

@<TRIPOS>ATOM
      1  Y1        33.0450   15.4070   14.1010 Y     143  YBT143      0.0000
      2  O1        31.3950   17.0660   13.9180 O.3   143  YBT143      0.0000
      3  O2        31.0020   14.3520   13.5590 O.3   143  YBT143      0.0000
      4  O3        28.1280   16.9230   16.5130 O.3   143  YBT143      0.0000
      5  O4        33.3830   13.6270   15.5840 O.3   143  YBT143      0.0000
      6  O5        33.7580   16.7260   15.8900 O.3   143  YBT143      0.0000
      7  N1        31.2910   15.3890   16.1150 N.4   143  YBT143      0.0000
      8  C1        29.9620   15.6530   15.3550 C.3   143  YBT143      0.0000
      9  C2        30.0710   16.9400   14.5520 C.3   143  YBT143      0.0000
     10  C3        29.7960   14.4810   14.3370 C.3   143  YBT143      0.0000
     11  C4        28.6590   15.6140   16.2110 C.3   143  YBT143      0.0000
     12  C5        31.3840   14.0980   16.8960 C.3   143  YBT143      0.0000
     13  C6        32.2290   13.0380   16.2390 C.3   143  YBT143      0.0000
     14  C7        31.6700   16.5340   17.0290 C.3   143  YBT143      0.0000
     15  C8        33.1640   16.5970   17.2000 C.3   143  YBT143      0.0000
@<TRIPOS>BOND
     1     3     1    1
     2     3    10    1
     3     2     1    1
     4     2     9    1
     5     1     5    1
     6     1     6    1
     7     1     7    1
     8    10     8    1
     9     9     8    1
    10     8     7    1
    11     8    11    1
    12     5    13    1
    13     6    15    1
    14     7    12    1
    15     7    14    1
    16    11     4    1
    17    13    12    1
    18    14    15    1
