@<TRIPOS>MOLECULE
1mbx_YBT_A_1.pdb
 15 18 0 0 0
SMALL
GASTEIGER

@<TRIPOS>ATOM
      1  Y1        32.3690   15.8210   13.3670 Y     211  YBT211      0.0000
      2  O1        30.8720   17.6490   13.2730 O.3   211  YBT211      0.0000
      3  O2        30.3050   14.9970   12.5640 O.3   211  YBT211      0.0000
      4  O3        27.5890   17.4120   15.8740 O.3   211  YBT211      0.0000
      5  O4        32.4510   13.8780   14.6490 O.3   211  YBT211      0.0000
      6  O5        33.0720   16.9060   15.3130 O.3   211  YBT211      0.0000
      7  N1        30.4770   15.7810   15.2480 N.4   211  YBT211      0.0000
      8  C1        29.2230   16.2260   14.4200 C.3   211  YBT211      0.0000
      9  C2        29.4980   17.5820   13.7860 C.3   211  YBT211      0.0000
     10  C3        29.0500   15.1650   13.2610 C.3   211  YBT211      0.0000
     11  C4        27.8540   16.2060   15.1450 C.3   211  YBT211      0.0000
     12  C5        30.4280   14.4190   15.9010 C.3   211  YBT211      0.0000
     13  C6        31.2050   13.3460   15.1730 C.3   211  YBT211      0.0000
     14  C7        30.8930   16.8050   16.2970 C.3   211  YBT211      0.0000
     15  C8        32.3780   16.7180   16.5710 C.3   211  YBT211      0.0000
@<TRIPOS>BOND
     1     3    10    1
     2     3     1    1
     3    10     8    1
     4     2     1    1
     5     2     9    1
     6     1     5    1
     7     1     7    1
     8     1     6    1
     9     9     8    1
    10     8    11    1
    11     8     7    1
    12     5    13    1
    13    11     4    1
    14    13    12    1
    15     7    12    1
    16     7    14    1
    17     6    15    1
    18    14    15    1
