@<TRIPOS>MOLECULE
1mbz_IOT_A_1.pdb
 38 40 0 0 0
SMALL
GASTEIGER

@<TRIPOS>ATOM
      1  PA        -2.6100   92.6090   63.6170 P.3   606  IOT606      0.2723
      2  O1A       -3.1080   93.4800   62.4550 O.2   606  IOT606     -0.5082
      3  O2A       -1.1050   92.6340   63.9710 O.3   606  IOT606     -0.4273
      4  O5'       -2.8850   92.6620   65.0030 O.3   606  IOT606     -0.3024
      5  C5'       -4.2140   93.1580   65.4470 C.3   606  IOT606      0.1823
      6  C4'       -4.7360   94.2160   66.2680 C.3   606  IOT606      0.1822
      7  O4'       -4.3890   93.7470   67.5890 O.3   606  IOT606     -0.3135
      8  C3'       -4.1580   95.6580   66.1430 C.3   606  IOT606      0.2184
      9  O3'       -4.8870   96.6340   65.5310 O.3   606  IOT606     -0.2174
     10  C2'       -3.7170   95.9370   67.5710 C.3   606  IOT606      0.2570
     11  O2'       -4.6790   96.8850   68.1330 O.3   606  IOT606     -0.2130
     12  C1'       -3.7260   94.7150   68.4060 C.3   606  IOT606      0.3186
     13  N9        -2.3740   94.3630   68.6400 N.pl3 606  IOT606     -0.1439
     14  C8        -1.4310   93.7360   67.7660 C.3   606  IOT606      0.3377
     15  N7        -0.2350   93.5220   68.2670 N.2   606  IOT606     -0.2095
     16  C5        -0.3130   94.0270   69.5590 C.2   606  IOT606      0.2526
     17  C6         0.6910   94.1000   70.6770 C.2   606  IOT606      0.4393
     18  N6         1.8520   93.6920   70.5960 N.pl3 606  IOT606      0.2180
     19  N1         0.1650   94.7180   71.8640 N.2   606  IOT606      0.0021
     20  C2        -1.1740   95.2160   72.0580 C.3   606  IOT606      0.5254
     21  N3        -2.0940   95.1460   71.0520 N.2   606  IOT606     -0.0055
     22  C4        -1.6430   94.5440   69.8190 C.2   606  IOT606      0.3518
     23  CX        -4.0580   89.1610   63.1700 C.3   606  IOT606      0.1991
     24  CW        -3.2970   89.9780   62.9930 C.2   606  IOT606      0.3389
     25  OX1       -2.2670   89.8350   62.1060 O.2   606  IOT606     -0.2482
     26  OX2       -3.0850   91.1070   63.7450 O.3   606  IOT606     -0.4091
     27  NX        -5.6330   89.7740   62.9210 N.3   606  IOT606     -0.1969
     28  CA        -6.1500   90.0000   61.5280 C.3   606  IOT606      0.1763
     29  CB        -7.2100   88.9230   61.1850 C.3   606  IOT606      0.0326
     30  CG        -6.7790   87.9300   60.1430 C.3   606  IOT606      0.0489
     31  CD        -7.8570   86.9380   59.9410 C.3   606  IOT606      0.2205
     32  NE        -8.7780   87.3190   58.9180 N.pl3 606  IOT606     -0.0865
     33  CZ        -9.7380   86.5350   58.4480 C.cat 606  IOT606      0.5346
     34  NH1      -10.8030   86.1890   59.1730 N.pl3 606  IOT606      0.1354
     35  NH2       -9.6090   86.0820   57.2290 N.pl3 606  IOT606      0.1354
     36  C         -6.7990   91.3900   61.4300 C.2   606  IOT606      0.3803
     37  O         -6.8140   92.1030   62.4600 O.co2 606  IOT606     -0.2441
     38  OX3       -7.2830   91.7590   60.3410 O.co2 606  IOT606     -0.2441
@<TRIPOS>BOND
     1    35    33    1
     2    33    32    2
     3    33    34    1
     4    32    31    1
     5    31    30    1
     6    30    29    1
     7    38    36   ar
     8    29    28    1
     9    36    28    1
    10    36    37   ar
    11    28    27    1
    12    25    24    2
    13     2     1    2
    14    27    23    1
    15    24    23    1
    16    24    26    1
    17     1    26    1
    18     1     3    1
    19     1     4    1
    20     4     5    1
    21     5     6    1
    22     9     8    1
    23     8     6    1
    24     8    10    1
    25     6     7    1
    26    10    11    1
    27    10    12    1
    28     7    12    1
    29    14    15    1
    30    14    13    1
    31    15    16    2
    32    12    13    1
    33    13    22    1
    34    16    22    1
    35    16    17    1
    36    22    21    2
    37    18    17    1
    38    17    19    2
    39    21    20    1
    40    19    20    1
