@<TRIPOS>MOLECULE
1mc0_PCG_A_1.pdb
 23 26 0 0 0
SMALL
GASTEIGER

@<TRIPOS>ATOM
      1  PA       132.5050   56.8360  117.4630 P.3   160  PCG160      0.2141
      2  O1A      132.7330   58.0380  116.5450 O.2   160  PCG160     -0.5172
      3  O2A      133.9060   56.3210  117.7960 O.3   160  PCG160     -0.4373
      4  O5'      131.7210   55.8380  116.6560 O.3   160  PCG160     -0.3114
      5  C5'      130.4050   56.0910  116.0630 C.3   160  PCG160      0.1812
      6  C4'      129.7010   57.1570  116.8630 C.3   160  PCG160      0.1771
      7  O4'      128.2460   57.2890  116.7530 O.3   160  PCG160     -0.3327
      8  C3'      130.0290   56.9720  118.3300 C.3   160  PCG160      0.1857
      9  O3'      131.5100   56.8240  118.6000 O.3   160  PCG160     -0.3112
     10  C2'      129.1600   58.1810  118.7290 C.3   160  PCG160      0.2282
     11  O2'      129.5960   59.5180  118.4620 O.3   160  PCG160     -0.2159
     12  C1'      127.8470   57.9410  117.9680 C.3   160  PCG160      0.2292
     13  N9       126.9600   57.0340  118.7050 N.pl3 160  PCG160     -0.2354
     14  C8       127.0560   55.8190  119.3910 C.3   160  PCG160      0.2246
     15  N7       125.8320   55.5710  119.8170 N.2   160  PCG160     -0.2322
     16  C5       124.9420   56.4420  119.5120 C.2   160  PCG160      0.2182
     17  C6       123.5170   56.5950  119.7440 C.1   160  PCG160      0.2372
     18  O6       122.7390   55.8080  120.3750 O.2   160  PCG160     -0.2069
     19  N1       122.9910   57.7880  119.1690 N.2   160  PCG160     -0.2485
     20  C2       123.7070   58.7540  118.4450 C.1   160  PCG160      0.2531
     21  N2       123.0060   59.8140  117.9810 N.pl3 160  PCG160     -0.0226
     22  N3       125.0460   58.6530  118.1990 N.2   160  PCG160     -0.3074
     23  C4       125.6130   57.4710  118.7600 C.2   160  PCG160      0.2300
@<TRIPOS>BOND
     1     5     4    1
     2     5     6    1
     3     2     1    2
     4     4     1    1
     5     7     6    1
     6     7    12    1
     7     6     8    1
     8     1     3    1
     9     1     9    1
    10    12    13    1
    11    12    10    1
    12    21    20    1
    13    22    20    2
    14    22    23    2
    15     8     9    1
    16     8    10    1
    17    20    19    2
    18    11    10    1
    19    13    23    1
    20    13    14    1
    21    23    16    1
    22    19    17    2
    23    14    15    1
    24    16    17    1
    25    16    15    2
    26    17    18    2
