@<TRIPOS>MOLECULE
1mc1_PCX_A_1.pdb
 16 17 0 0 0
SMALL
GASTEIGER

@<TRIPOS>ATOM
      1  N1        -5.6550   89.6350   61.8030 N.3   703  PCX703     -0.2395
      2  C1        -6.3860   89.7380   61.1030 C.3   703  PCX703      0.1638
      3  C2        -7.2840   88.6090   61.6660 C.3   703  PCX703      0.0313
      4  C4        -7.3750   87.3900   60.7630 C.3   703  PCX703      0.0489
      5  C5        -8.7950   87.0190   60.4500 C.3   703  PCX703      0.2205
      6  N2        -8.9280   86.3180   59.1820 N.pl3 703  PCX703     -0.0865
      7  C6       -10.0790   85.8690   58.6710 C.cat 703  PCX703      0.5346
      8  N3       -11.2480   86.0340   59.3160 N.pl3 703  PCX703      0.1354
      9  N4       -10.0580   85.2440   57.5030 N.pl3 703  PCX703      0.1354
     10  C3        -7.1120   91.0870   61.3050 C.2   703  PCX703      0.3790
     11  O1        -8.0770   91.2510   60.3910 O.co2 703  PCX703     -0.2442
     12  O2        -6.7310   91.8140   62.2430 O.co2 703  PCX703     -0.2442
     13  C8        -4.3240   89.8060   61.3930 C.3   703  PCX703      0.1893
     14  C9        -3.8340   89.4050   62.6570 C.3   703  PCX703      0.0675
     15  O4        -3.7520   90.1300   60.4750 O.3   703  PCX703     -0.2075
     16  C7        -5.1810   89.2050   63.0500 C.3   703  PCX703      0.1062
@<TRIPOS>BOND
     1     9     7    1
     2     7     6    2
     3     7     8    1
     4     6     5    1
     5    11    10   ar
     6     5     4    1
     7    15    13    1
     8     4     3    1
     9     2    10    1
    10     2     3    1
    11     2     1    1
    12    10    12   ar
    13    13     1    1
    14    13    14    1
    15    13    16    1
    16     1    16    1
    17    14    16    1
