@<TRIPOS>MOLECULE
1mc1_AMP_A_1.pdb
 23 25 0 0 0
SMALL
GASTEIGER

@<TRIPOS>ATOM
      1  P         -3.4390   92.5730   63.5990 P.3   702  AMP702      0.5327
      2  O1P       -3.8570   92.9660   62.2500 O.2   702  AMP702     -0.2224
      3  O2P       -2.2130   93.2870   64.0620 O.3   702  AMP702     -0.1145
      4  O3P       -3.2820   91.0640   63.7430 O.3   702  AMP702     -0.1145
      5  O5'       -4.6950   93.0260   64.5670 O.3   702  AMP702     -0.2675
      6  C5'       -4.5840   92.7620   65.9980 C.3   702  AMP702      0.1860
      7  C4'       -5.2210   93.9510   66.7710 C.3   702  AMP702      0.1823
      8  O4'       -5.0570   93.6580   68.2160 O.3   702  AMP702     -0.3135
      9  C3'       -4.4680   95.4190   66.4640 C.3   702  AMP702      0.2184
     10  O3'       -5.3790   96.1750   65.5410 O.3   702  AMP702     -0.2174
     11  C2'       -4.3630   95.9980   67.9500 C.3   702  AMP702      0.2570
     12  O2'       -5.4800   96.7850   68.3240 O.3   702  AMP702     -0.2130
     13  C1'       -4.3140   94.6980   68.9040 C.3   702  AMP702      0.3186
     14  N9        -2.8920   94.2500   69.1340 N.pl3 702  AMP702     -0.1439
     15  C8        -2.0340   93.5540   68.2640 C.3   702  AMP702      0.3377
     16  N7        -0.7910   93.2600   68.6910 N.2   702  AMP702     -0.2095
     17  C5        -0.8670   93.8270   69.9590 C.2   702  AMP702      0.2526
     18  C6         0.1030   93.8940   70.9890 C.2   702  AMP702      0.4393
     19  N6         1.3390   93.3270   70.7670 N.pl3 702  AMP702      0.2180
     20  N1        -0.2930   94.5460   72.1600 N.2   702  AMP702      0.0021
     21  C2        -1.5240   95.0870   72.3250 C.3   702  AMP702      0.5254
     22  N3        -2.5150   95.0670   71.3940 N.2   702  AMP702     -0.0055
     23  C4        -2.1310   94.4340   70.2520 C.2   702  AMP702      0.3518
@<TRIPOS>BOND
     1     2     1    2
     2     1     4    1
     3     1     3    1
     4     1     5    1
     5     5     6    1
     6    10     9    1
     7     6     7    1
     8     9     7    1
     9     9    11    1
    10     7     8    1
    11    11    12    1
    12    11    13    1
    13     8    13    1
    14    15    16    1
    15    15    14    1
    16    16    17    2
    17    13    14    1
    18    14    23    1
    19    17    23    1
    20    17    18    1
    21    23    22    2
    22    19    18    1
    23    18    20    2
    24    22    21    1
    25    20    21    1
