@<TRIPOS>MOLECULE
1mc3_TTP_A_1.pdb
 29 30 0 0 0
SMALL
GASTEIGER

@<TRIPOS>ATOM
      1  PA        51.8850    3.6480    6.1840 P.3   294  TTP294      0.2189
      2  O1A       51.9360    3.1480    4.8000 O.2   294  TTP294     -0.5170
      3  O2A       53.1230    4.2020    6.7940 O.3   294  TTP294     -0.4371
      4  O3A       51.3500    2.4950    7.1360 O.3   294  TTP294     -0.2700
      5  PB        50.3770    1.3360    6.7040 P.3   294  TTP294      0.2277
      6  O1B       49.4380    1.1970    7.8170 O.3   294  TTP294     -0.4368
      7  O2B       50.0080    1.5310    5.2890 O.2   294  TTP294     -0.5168
      8  O3B       51.1560   -0.0920    6.7440 O.3   294  TTP294     -0.2258
      9  PG        52.1790   -0.6660    5.6170 P.3   294  TTP294      0.5373
     10  O1G       53.4660   -1.0370    6.2500 O.3   294  TTP294     -0.1143
     11  O2G       51.5800   -1.9250    5.1210 O.3   294  TTP294     -0.1143
     12  O3G       52.3940    0.3460    4.5440 O.2   294  TTP294     -0.2221
     13  O5'       50.7830    4.7720    6.1810 O.3   294  TTP294     -0.3112
     14  C5'       51.1540    5.8950    6.9840 C.3   294  TTP294      0.1812
     15  C4'       50.2710    6.1650    8.1120 C.3   294  TTP294      0.1773
     16  O4'       48.9150    6.3450    7.7080 O.3   294  TTP294     -0.3339
     17  C3'       50.1370    5.1050    9.0030 C.3   294  TTP294      0.1857
     18  O3'       50.1930    5.6890   10.3200 O.3   294  TTP294     -0.2203
     19  C2'       48.9320    4.4140    8.7110 C.3   294  TTP294      0.0874
     20  C1'       48.0420    5.4200    8.3440 C.3   294  TTP294      0.2090
     21  N1        47.0220    5.0430    7.4580 N.am  294  TTP294     -0.1794
     22  C2        45.6820    5.2460    7.7370 C.1   294  TTP294      0.2844
     23  O2        45.4280    5.7460    8.8300 O.2   294  TTP294     -0.1918
     24  N3        44.7360    4.8720    6.8260 N.2   294  TTP294     -0.2455
     25  C4        45.1190    4.3180    5.6240 C.1   294  TTP294      0.2134
     26  O4        44.2860    3.9670    4.7480 O.2   294  TTP294     -0.2088
     27  C5        46.4980    4.1310    5.3690 C.2   294  TTP294      0.0891
     28  C5M       46.9640    3.5150    4.0520 C.3   294  TTP294      0.0462
     29  C6        47.4460    4.5210    6.3100 C.2   294  TTP294      0.0877
@<TRIPOS>BOND
     1    28    27    1
     2    12     9    2
     3    26    25    2
     4     2     1    2
     5    11     9    1
     6     7     5    2
     7    27    25    1
     8    27    29    2
     9     9    10    1
    10     9     8    1
    11    25    24    2
    12    13     1    1
    13    13    14    1
    14     1     3    1
    15     1     4    1
    16    29    21    1
    17     5     8    1
    18     5     4    1
    19     5     6    1
    20    24    22    2
    21    14    15    1
    22    21    22   am
    23    21    20    1
    24    16    15    1
    25    16    20    1
    26    22    23    2
    27    15    17    1
    28    20    19    1
    29    19    17    1
    30    17    18    1
