@<TRIPOS>MOLECULE
1mc5_AHE_A_1.pdb
 22 21 0 0 0
SMALL
GASTEIGER

@<TRIPOS>ATOM
      1  N1        48.7380   22.8250    0.2300 N.3   404  AHE404     -0.1208
      2  CA1       49.0100   22.3740    1.6030 C.3   404  AHE404      0.1948
      3  CB1       50.3820   22.9100    2.0230 C.3   404  AHE404      0.0402
      4  CG1       51.4880   22.0670    1.3710 C.3   404  AHE404      0.0889
      5  CD1       52.8440   22.5700    1.8090 C.2   404  AHE404      0.2418
      6  OE1       53.0890   22.6790    2.9980 O.2   404  AHE404     -0.2733
      7  N2        53.7800   22.9120    0.8770 N.am  404  AHE404     -0.1969
      8  CA2       55.1430   23.3180    1.2760 C.3   404  AHE404      0.1835
      9  CB2       56.1680   22.7040    0.3000 C.3   404  AHE404      0.0911
     10  SG2       56.1580   20.8960    0.4430 S.3   404  AHE404     -0.1031
     11  CD2       57.5760   20.4820   -0.5920 C.3   404  AHE404      0.2401
     12  OE2       57.1820   19.4930   -1.5420 O.3   404  AHE404     -0.2073
     13  C2        55.2130   24.8330    1.2470 C.2   404  AHE404      0.2626
     14  O2        55.8420   25.4180    0.3800 O.2   404  AHE404     -0.2714
     15  N3        54.5430   25.5260    2.2040 N.am  404  AHE404     -0.1917
     16  CA3       54.3390   26.9820    2.1130 C.3   404  AHE404      0.2285
     17  C3        52.9880   27.2780    1.5060 C.2   404  AHE404      0.3865
     18  O31       52.2530   26.3690    1.1650 O.co2 404  AHE404     -0.2437
     19  O32       52.6050   28.5520    1.3430 O.co2 404  AHE404     -0.2437
     20  C1        47.9430   22.9080    2.5370 C.2   404  AHE404      0.3819
     21  O11       47.3180   23.9040    2.2360 O.co2 404  AHE404     -0.2441
     22  O12       47.6860   22.2850    3.6970 O.co2 404  AHE404     -0.2441
@<TRIPOS>BOND
     1    12    11    1
     2    11    10    1
     3     1     2    1
     4     9    10    1
     5     9     8    1
     6    14    13    2
     7     7     8    1
     8     7     5   am
     9    18    17   ar
    10    13     8    1
    11    13    15   am
    12    19    17   ar
    13     4     5    1
    14     4     3    1
    15    17    16    1
    16     2     3    1
    17     2    20    1
    18     5     6    2
    19    16    15    1
    20    21    20   ar
    21    20    22   ar
