@<TRIPOS>MOLECULE
1mc5_NAD_A_1.pdb
 44 48 0 0 0
SMALL
GASTEIGER

@<TRIPOS>ATOM
      1  PA        59.4610    9.7020    1.2940 P.3   500  NAD500      0.2189
      2  O1A       58.5540    8.6880    0.7010 O.2   500  NAD500     -0.5170
      3  O2A       60.8480    9.3760    0.8760 O.3   500  NAD500     -0.4371
      4  O5B       59.3500    9.7490    2.9130 O.3   500  NAD500     -0.3112
      5  C5B       58.5660    8.7330    3.6130 C.3   500  NAD500      0.1813
      6  C4B       59.4880    7.9210    4.5190 C.3   500  NAD500      0.1821
      7  O4B       58.9530    7.9410    5.8540 O.3   500  NAD500     -0.3135
      8  C3B       59.5730    6.4530    4.0460 C.3   500  NAD500      0.2184
      9  O3B       60.7740    5.8610    4.5550 O.3   500  NAD500     -0.2174
     10  C2B       58.3620    5.9410    4.8530 C.3   500  NAD500      0.2570
     11  O2B       58.4240    4.5120    4.9830 O.3   500  NAD500     -0.2130
     12  C1B       58.6760    6.5980    6.2070 C.3   500  NAD500      0.3186
     13  N9A       57.5130    6.5320    7.0660 N.pl3 500  NAD500     -0.1439
     14  C8A       56.1760    6.5780    6.6880 C.3   500  NAD500      0.3377
     15  N7A       55.3070    6.3990    7.7550 N.2   500  NAD500     -0.2095
     16  C5A       56.1590    6.2370    8.8220 C.2   500  NAD500      0.2526
     17  C6A       55.8350    6.0360   10.1510 C.2   500  NAD500      0.4393
     18  N6A       54.5550    5.9140   10.5730 N.pl3 500  NAD500      0.2180
     19  N1A       56.8860    5.9240   11.0540 N.2   500  NAD500      0.0021
     20  C2A       58.2180    6.0120   10.6180 C.3   500  NAD500      0.5254
     21  N3A       58.5530    6.2140    9.2760 N.2   500  NAD500     -0.0055
     22  C4A       57.4620    6.3180    8.4240 C.2   500  NAD500      0.3518
     23  O3        59.0320   11.1890    0.8350 O.3   500  NAD500     -0.2703
     24  PN        59.9470   12.5160    0.8760 P.3   500  NAD500      0.2189
     25  O1N       60.2050   13.0190   -0.5050 O.2   500  NAD500     -0.5170
     26  O2N       61.2160   12.3060    1.6120 O.3   500  NAD500     -0.4371
     27  O5D       59.0420   13.5510    1.7210 O.3   500  NAD500     -0.3112
     28  C5D       58.7230   13.3250    3.1420 C.3   500  NAD500      0.1813
     29  C4D       57.6430   14.2080    3.7790 C.3   500  NAD500      0.1799
     30  O4D       58.0610   15.5900    3.8090 O.3   500  NAD500     -0.3327
     31  C3D       56.3630   14.2220    2.9180 C.3   500  NAD500      0.2158
     32  O3D       55.2630   14.6020    3.7470 O.3   500  NAD500     -0.2175
     33  C2D       56.7190   15.3850    1.9480 C.3   500  NAD500      0.2309
     34  O2D       55.5360   15.8710    1.2990 O.3   500  NAD500     -0.2158
     35  C1D       57.2010   16.4150    2.9850 C.3   500  NAD500      0.2263
     36  N1N       58.0130   17.5070    2.3990 N.pl3 500  NAD500     -0.2787
     37  C2N       57.9320   18.7350    2.9170 C.3   500  NAD500      0.1244
     38  C3N       58.7440   19.7080    2.4510 C.2   500  NAD500      0.0544
     39  C7N       58.7060   20.9560    2.9750 C.2   500  NAD500      0.2818
     40  O7N       59.1670   21.9310    2.3410 O.2   500  NAD500     -0.2670
     41  N7N       58.1850   21.1720    4.1850 N.am  500  NAD500     -0.0839
     42  C4N       59.6220   19.4410    1.4590 C.2   500  NAD500      0.0033
     43  C5N       59.7270   18.2360    0.9030 C.2   500  NAD500      0.0157
     44  C6N       58.8840   17.2570    1.4150 C.2   500  NAD500      0.0633
@<TRIPOS>BOND
     1    25    24    2
     2     2     1    2
     3    23    24    1
     4    23     1    1
     5     3     1    1
     6    24    26    1
     7    24    27    1
     8    43    44    2
     9    43    42    1
    10     1     4    1
    11    34    33    1
    12    44    36    1
    13    42    38    2
    14    27    28    1
    15    33    31    1
    16    33    35    1
    17    40    39    2
    18    36    37    1
    19    36    35    1
    20    38    37    1
    21    38    39    1
    22     4     5    1
    23    31    32    1
    24    31    29    1
    25    39    41   am
    26    35    30    1
    27    28    29    1
    28     5     6    1
    29    29    30    1
    30     8     6    1
    31     8     9    1
    32     8    10    1
    33     6     7    1
    34    10    11    1
    35    10    12    1
    36     7    12    1
    37    12    13    1
    38    14    13    1
    39    14    15    1
    40    13    22    1
    41    15    16    2
    42    22    16    1
    43    22    21    2
    44    16    17    1
    45    21    20    1
    46    17    18    1
    47    17    19    2
    48    20    19    1
