@<TRIPOS>MOLECULE
1mcb_III_P_1.pdb
 41 43 0 0 0
SMALL
GASTEIGER

@<TRIPOS>ATOM
      1  C         29.1480  -24.0460   91.0240 C.2     0  ACE0        0.2423
      2  O         29.5070  -25.1800   91.3920 O.2     0  ACE0       -0.2733
      3  CH3       30.1200  -22.9590   90.6490 C.3     0  ACE0        0.0964
      4  N         27.8650  -23.7310   90.9180 N.am    1  GLN1       -0.1978
      5  CA        26.8240  -24.6740   91.2300 C.3     1  GLN1        0.1732
      6  C         26.7390  -25.7990   90.1950 C.2     1  GLN1        0.2616
      7  O         25.6130  -26.1410   89.7620 O.2     1  GLN1       -0.2715
      8  CB        25.4750  -23.9770   91.2990 C.3     1  GLN1        0.0408
      9  CG        25.4500  -22.7350   92.1860 C.3     1  GLN1        0.0908
     10  CD        23.9660  -22.4150   92.4000 C.2     1  GLN1        0.2608
     11  OE1       23.2410  -22.5010   91.4110 O.2     1  GLN1       -0.2717
     12  NE2       23.6030  -22.1550   93.6340 N.am    1  GLN1       -0.0878
     13  N         27.8740  -26.3770   89.8980 N.am    2  DPN2       -0.1960
     14  CA        27.9930  -27.3490   88.7690 C.3     2  DPN2        0.1771
     15  C         27.5840  -26.5480   87.5290 C.2     2  DPN2        0.2620
     16  O         28.2950  -25.6510   87.0900 O.2     2  DPN2       -0.2715
     17  CB        29.3730  -27.9130   88.7040 C.3     2  DPN2        0.0574
     18  CG        29.8320  -28.5250   87.4270 C.ar    2  DPN2       -0.0200
     19  CD1       29.0530  -29.4470   86.7470 C.ar    2  DPN2       -0.0042
     20  CD2       31.0480  -28.1310   86.8640 C.ar    2  DPN2       -0.0042
     21  CE1       29.4710  -29.9790   85.5380 C.ar    2  DPN2       -0.0003
     22  CE2       31.4800  -28.6310   85.6550 C.ar    2  DPN2       -0.0003
     23  CZ        30.6930  -29.5660   84.9900 C.ar    2  DPN2       -0.0000
     24  N         26.3700  -26.8370   87.0610 N.am    3  DHI3       -0.1960
     25  CA        25.6450  -25.8460   86.1850 C.3     3  DHI3        0.1769
     26  C         26.3630  -25.8460   84.8580 C.2     3  DHI3        0.2462
     27  O         26.6200  -24.7940   84.2610 O.2     3  DHI3       -0.2730
     28  CB        25.5890  -24.4650   86.8510 C.3     3  DHI3        0.0744
     29  CG        24.3780  -24.3140   87.7370 C.2     3  DHI3        0.0653
     30  ND1       23.6180  -25.3570   88.1850 N.2     3  DHI3       -0.2310
     31  CD2       23.8470  -23.1800   88.2750 C.3     3  DHI3        0.1683
     32  CE1       22.6500  -24.8710   88.9570 C.2     3  DHI3        0.1939
     33  NE2       22.7730  -23.5580   89.0260 N.2     3  DHI3       -0.2440
     34  N         26.2550  -26.8860   83.9510 N.am    4  DPR4       -0.2699
     35  CA        27.5150  -27.7000   83.7610 C.3     4  DPR4        0.1791
     36  CB        27.8560  -27.6340   82.3850 C.3     4  DPR4        0.0332
     37  CG        26.5040  -27.5480   81.7230 C.3     4  DPR4        0.0238
     38  CD        25.7460  -26.6640   82.5820 C.3     4  DPR4        0.0940
     39  C         26.8560  -29.0970   84.1550 C.2     4  DPR4        0.3825
     40  O         25.6510  -28.9810   84.5700 O.co2   4  DPR4       -0.2438
     41  OXT       27.2930  -30.1500   83.9300 O.co2   4  DPR4       -0.2438
@<TRIPOS>BOND
     1    37    36    1
     2    37    38    1
     3    36    35    1
     4    38    34    1
     5    35    34    1
     6    35    39    1
     7    41    39   ar
     8    34    26   am
     9    39    40   ar
    10    27    26    2
    11    26    25    1
    12    23    21   ar
    13    23    22   ar
    14    21    19   ar
    15    22    20   ar
    16    25    28    1
    17    25    24    1
    18    19    18   ar
    19    28    29    1
    20    20    18   ar
    21    24    15   am
    22    16    15    2
    23    18    17    1
    24    15    14    1
    25    29    30    2
    26    29    31    1
    27    30    32    1
    28    31    33    1
    29    17    14    1
    30    14    13    1
    31    32    33    2
    32     7     6    2
    33    13     6   am
    34     6     5    1
    35     3     1    1
    36     4     1   am
    37     4     5    1
    38     1     2    2
    39     5     8    1
    40     8     9    1
    41    11    10    2
    42     9    10    1
    43    10    12   am
