@<TRIPOS>MOLECULE
1mcc_III_P_1.pdb
 41 43 0 0 0
SMALL
GASTEIGER

@<TRIPOS>ATOM
      1  C         32.5530  -24.0710   89.0110 C.2     0  ACE0        0.2423
      2  O         33.0050  -23.0190   89.4890 O.2     0  ACE0       -0.2733
      3  CH3       33.4110  -25.2150   88.5350 C.3     0  ACE0        0.0964
      4  N         31.2490  -24.2550   88.8620 N.am    1  GLN1       -0.1978
      5  CA        30.2550  -23.2910   89.2880 C.3     1  GLN1        0.1732
      6  C         28.9080  -24.0370   89.1410 C.2     1  GLN1        0.2616
      7  O         27.8880  -23.5710   88.6150 O.2     1  GLN1       -0.2715
      8  CB        30.2990  -22.0200   88.4770 C.3     1  GLN1        0.0408
      9  CG        29.2250  -21.0180   88.8170 C.3     1  GLN1        0.0908
     10  CD        28.7820  -20.1850   87.6440 C.2     1  GLN1        0.2608
     11  OE1       27.5980  -19.9440   87.4210 O.2     1  GLN1       -0.2717
     12  NE2       29.7510  -19.7150   86.8620 N.am    1  GLN1       -0.0878
     13  N         29.0150  -25.3000   89.5280 N.am    2  DPN2       -0.1960
     14  CA        27.8790  -26.1630   89.8050 C.3     2  DPN2        0.1771
     15  C         27.1240  -26.7120   88.6190 C.2     2  DPN2        0.2620
     16  O         26.5490  -27.8320   88.6930 O.2     2  DPN2       -0.2715
     17  CB        28.2480  -27.2800   90.7380 C.3     2  DPN2        0.0574
     18  CG        29.5870  -27.9230   90.5950 C.ar    2  DPN2       -0.0200
     19  CD1       30.1600  -28.1640   89.3620 C.ar    2  DPN2       -0.0042
     20  CD2       30.2760  -28.3300   91.7440 C.ar    2  DPN2       -0.0042
     21  CE1       31.3850  -28.7970   89.2470 C.ar    2  DPN2       -0.0003
     22  CE2       31.4960  -28.9640   91.6520 C.ar    2  DPN2       -0.0003
     23  CZ        32.0520  -29.2020   90.4030 C.ar    2  DPN2       -0.0000
     24  N         27.0940  -25.9240   87.5290 N.am    3  HIS3       -0.1960
     25  CA        25.9900  -26.1390   86.5460 C.3     3  HIS3        0.1769
     26  C         26.4260  -26.5150   85.1660 C.2     3  HIS3        0.2462
     27  O         26.9610  -25.6750   84.4190 O.2     3  HIS3       -0.2730
     28  CB        24.9090  -25.0760   86.5980 C.3     3  HIS3        0.0744
     29  CG        25.3400  -23.6520   86.5830 C.2     3  HIS3        0.0653
     30  ND1       24.5550  -22.6120   87.0480 N.2     3  HIS3       -0.2310
     31  CD2       26.4740  -23.0830   86.1240 C.3     3  HIS3        0.1683
     32  CE1       25.2050  -21.4730   86.8640 C.2     3  HIS3        0.1939
     33  NE2       26.3700  -21.7360   86.3100 N.2     3  HIS3       -0.2440
     34  N         25.7300  -27.4390   84.3780 N.am    4  DPR4       -0.2715
     35  CA        26.4880  -28.7250   84.0920 C.3     4  DPR4        0.1552
     36  CB        26.0360  -29.2000   82.8200 C.3     4  DPR4        0.0311
     37  CG        24.9510  -28.2490   82.3780 C.3     4  DPR4        0.0237
     38  CD        25.3200  -26.9860   83.0040 C.3     4  DPR4        0.0939
     39  C         25.9080  -29.6370   85.3170 C.2     4  DPR4        0.2788
     40  O         24.7650  -29.1440   85.7330 O.2     4  DPR4       -0.2699
     41  N         26.4710  -30.5650   85.9490 N.am    5  NH25       -0.0863
@<TRIPOS>BOND
     1    37    36    1
     2    37    38    1
     3    36    35    1
     4    38    34    1
     5    35    34    1
     6    35    39    1
     7    34    26   am
     8    27    26    2
     9    26    25    1
    10    39    40    2
    11    39    41   am
    12    31    33    1
    13    31    29    1
    14    33    32    2
    15    25    28    1
    16    25    24    1
    17    29    28    1
    18    29    30    2
    19    12    10   am
    20    32    30    1
    21    11    10    2
    22    24    15   am
    23    10     9    1
    24     8     9    1
    25     8     5    1
    26     3     1    1
    27     7     6    2
    28    15    16    2
    29    15    14    1
    30     4     1   am
    31     4     5    1
    32     1     2    2
    33     6     5    1
    34     6    13   am
    35    21    19   ar
    36    21    23   ar
    37    19    18   ar
    38    13    14    1
    39    14    17    1
    40    23    22   ar
    41    18    17    1
    42    18    20   ar
    43    22    20   ar
