@<TRIPOS>MOLECULE
1mcd_DPN_P_1.pdb
 11 11 0 0 0
SMALL
GASTEIGER

@<TRIPOS>ATOM
      1  N         30.2430  -23.3940   89.2520 N.3     7  DPN7       -0.1241
      2  CA        30.3910  -24.6870   89.2730 C.3     7  DPN7        0.1605
      3  C         29.0260  -25.3220   88.8010 C.2     7  DPN7        0.2264
      4  O         28.6300  -25.0510   87.6700 O.2     7  DPN7       -0.2867
      5  CB        31.4390  -25.5550   88.5530 C.3     7  DPN7        0.0534
      6  CG        31.2330  -27.0250   88.8340 C.ar    7  DPN7       -0.0203
      7  CD1       30.3780  -27.7810   88.0310 C.ar    7  DPN7       -0.0042
      8  CD2       31.8330  -27.6460   89.9140 C.ar    7  DPN7       -0.0042
      9  CE1       30.1210  -29.1100   88.2970 C.ar    7  DPN7       -0.0003
     10  CE2       31.6070  -28.9840   90.2060 C.ar    7  DPN7       -0.0003
     11  CZ        30.7380  -29.7180   89.3920 C.ar    7  DPN7       -0.0000
@<TRIPOS>BOND
     1     4     3    2
     2     7     9   ar
     3     7     6   ar
     4     9    11   ar
     5     5     6    1
     6     5     2    1
     7     3     2    1
     8     6     8   ar
     9     1     2    1
    10    11    10   ar
    11     8    10   ar
