@<TRIPOS>MOLECULE
1mce_DPN_P_1.pdb
 11 11 0 0 0
SMALL
GASTEIGER

@<TRIPOS>ATOM
      1  N         28.8440  -23.5000   89.9220 N.3     9  DPN9       -0.1241
      2  CA        29.1420  -24.8130   89.2990 C.3     9  DPN9        0.1605
      3  C         28.4110  -24.9570   87.9750 C.2     9  DPN9        0.2264
      4  O         28.8980  -24.7970   86.8560 O.2     9  DPN9       -0.2867
      5  CB        30.5770  -24.9470   89.2260 C.3     9  DPN9        0.0534
      6  CG        31.6070  -25.4940   88.3710 C.ar    9  DPN9       -0.0203
      7  CD1       31.5640  -26.7620   87.8150 C.ar    9  DPN9       -0.0042
      8  CD2       32.7900  -24.7420   88.1610 C.ar    9  DPN9       -0.0042
      9  CE1       32.6100  -27.2690   87.0480 C.ar    9  DPN9       -0.0003
     10  CE2       33.8480  -25.2310   87.4180 C.ar    9  DPN9       -0.0003
     11  CZ        33.7530  -26.4860   86.8470 C.ar    9  DPN9       -0.0000
@<TRIPOS>BOND
     1    11     9   ar
     2    11    10   ar
     3     4     3    2
     4     9     7   ar
     5    10     8   ar
     6     7     6   ar
     7     3     2    1
     8     8     6   ar
     9     6     5    1
    10     5     2    1
    11     2     1    1
