@<TRIPOS>MOLECULE
1mce_HIS_P_1.pdb
 10 10 0 0 0
SMALL
GASTEIGER

@<TRIPOS>ATOM
      1  N         27.1400  -25.2770   88.0830 N.3     6  HIS6       -0.1241
      2  CA        26.0870  -25.4190   87.1570 C.3     6  HIS6        0.1618
      3  C         26.3290  -26.0590   85.7890 C.2     6  HIS6        0.2264
      4  O         26.9570  -25.5340   84.8970 O.2     6  HIS6       -0.2867
      5  CB        25.2100  -24.1580   86.9100 C.3     6  HIS6        0.0704
      6  CG        25.9240  -22.9690   86.3690 C.2     6  HIS6        0.0649
      7  ND1       26.6610  -22.9250   85.2240 N.2     6  HIS6       -0.2310
      8  CD2       25.9280  -21.7010   86.8710 C.3     6  HIS6        0.1683
      9  CE1       27.1090  -21.6990   85.0400 C.2     6  HIS6        0.1939
     10  NE2       26.6870  -20.9410   86.0330 N.2     6  HIS6       -0.2440
@<TRIPOS>BOND
     1     4     3    2
     2     9     7    1
     3     9    10    2
     4     7     6    2
     5     3     2    1
     6    10     8    1
     7     6     8    1
     8     6     5    1
     9     5     2    1
    10     2     1    1
