@<TRIPOS>MOLECULE
1mcf_DPN_P_1.pdb
 11 11 0 0 0
SMALL
GASTEIGER

@<TRIPOS>ATOM
      1  N         28.8630  -25.1340   89.6220 N.3    11  DPN11      -0.1241
      2  CA        29.1470  -26.4120   88.9870 C.3    11  DPN11       0.1605
      3  C         27.8870  -26.5130   88.0440 C.2    11  DPN11       0.2264
      4  O         27.0880  -27.4370   88.1520 O.2    11  DPN11      -0.2867
      5  CB        30.3190  -26.7630   88.2390 C.3    11  DPN11       0.0534
      6  CG        31.6530  -26.1420   88.1690 C.ar   11  DPN11      -0.0203
      7  CD1       32.1200  -25.1960   89.0700 C.ar   11  DPN11      -0.0042
      8  CD2       32.5210  -26.5120   87.1130 C.ar   11  DPN11      -0.0042
      9  CE1       33.3640  -24.5970   88.9310 C.ar   11  DPN11      -0.0003
     10  CE2       33.7660  -25.9420   86.9570 C.ar   11  DPN11      -0.0003
     11  CZ        34.1870  -24.9840   87.8710 C.ar   11  DPN11      -0.0000
@<TRIPOS>BOND
     1    10     8   ar
     2    10    11   ar
     3     8     6   ar
     4    11     9   ar
     5     3     4    2
     6     3     2    1
     7     6     5    1
     8     6     7   ar
     9     5     2    1
    10     9     7   ar
    11     2     1    1
