@<TRIPOS>MOLECULE
1mcf_HIS_P_1.pdb
 10 10 0 0 0
SMALL
GASTEIGER

@<TRIPOS>ATOM
      1  N         27.7360  -25.4240   87.2950 N.3     7  HIS7       -0.1241
      2  CA        26.5200  -25.1970   86.4960 C.3     7  HIS7        0.1618
      3  C         26.5440  -26.0600   85.2390 C.2     7  HIS7        0.2264
      4  O         27.2410  -25.8000   84.2650 O.2     7  HIS7       -0.2867
      5  CB        26.2670  -23.7340   86.1330 C.3     7  HIS7        0.0704
      6  CG        24.9830  -23.2010   86.7110 C.2     7  HIS7        0.0649
      7  ND1       24.5690  -21.9000   86.5720 N.2     7  HIS7       -0.2310
      8  CD2       24.0130  -23.8450   87.4030 C.3     7  HIS7        0.1683
      9  CE1       23.3870  -21.7810   87.1520 C.2     7  HIS7        0.1939
     10  NE2       23.0350  -22.9340   87.6670 N.2     7  HIS7       -0.2440
@<TRIPOS>BOND
     1     4     3    2
     2     3     2    1
     3     5     2    1
     4     5     6    1
     5     2     1    1
     6     7     6    2
     7     7     9    1
     8     6     8    1
     9     9    10    2
    10     8    10    1
