@<TRIPOS>MOLECULE
1mci_III_P_1.pdb
 32 34 0 0 0
SMALL
GASTEIGER

@<TRIPOS>ATOM
      1  C         31.3900  -23.2750   89.0740 C.2     0  ACE0        0.2423
      2  O         32.1930  -24.1510   88.7000 O.2     0  ACE0       -0.2733
      3  CH3       31.6710  -21.8100   88.9660 C.3     0  ACE0        0.0964
      4  N         30.2080  -23.5720   89.6170 N.am    1  DPN1       -0.1974
      5  CA        29.6710  -24.9480   89.6170 C.3     1  DPN1        0.1770
      6  C         28.2070  -24.8410   89.1670 C.2     1  DPN1        0.2620
      7  O         27.4540  -23.9660   89.6520 O.2     1  DPN1       -0.2715
      8  CB        30.4240  -25.8690   88.7410 C.3     1  DPN1        0.0574
      9  CG        30.1430  -27.3080   88.6020 C.ar    1  DPN1       -0.0200
     10  CD1       30.7460  -28.2400   89.4380 C.ar    1  DPN1       -0.0042
     11  CD2       29.3310  -27.7830   87.5720 C.ar    1  DPN1       -0.0042
     12  CE1       30.5230  -29.5920   89.2840 C.ar    1  DPN1       -0.0003
     13  CE2       29.0780  -29.1350   87.3970 C.ar    1  DPN1       -0.0003
     14  CZ        29.6950  -30.0410   88.2560 C.ar    1  DPN1       -0.0000
     15  N         27.8270  -25.6080   88.1740 N.am    2  HIS2       -0.1960
     16  CA        26.4590  -25.9750   87.8400 C.3     2  HIS2        0.1769
     17  C         26.3900  -26.2560   86.3260 C.2     2  HIS2        0.2462
     18  O         26.8610  -25.4680   85.5230 O.2     2  HIS2       -0.2730
     19  CB        25.3180  -25.0810   88.2600 C.3     2  HIS2        0.0744
     20  CG        25.1740  -23.7660   87.5720 C.2     2  HIS2        0.0653
     21  ND1       26.2090  -23.0090   87.1000 N.2     2  HIS2       -0.2310
     22  CD2       24.0400  -23.0400   87.3600 C.3     2  HIS2        0.1683
     23  CE1       25.7250  -21.8800   86.6000 C.2     2  HIS2        0.1939
     24  NE2       24.4200  -21.8780   86.7470 N.2     2  HIS2       -0.2440
     25  N         25.5870  -27.3420   86.0120 N.am    3  DPR3       -0.2699
     26  CA        26.0250  -28.1430   84.8130 C.3     3  DPR3        0.1791
     27  CB        24.8820  -28.0100   83.9280 C.3     3  DPR3        0.0332
     28  CG        23.7250  -28.1170   84.8580 C.3     3  DPR3        0.0238
     29  CD        24.1650  -27.5600   86.1090 C.3     3  DPR3        0.0940
     30  C         26.3680  -29.5670   85.2330 C.2     3  DPR3        0.3825
     31  O         25.6440  -30.2560   85.9660 O.co2   3  DPR3       -0.2438
     32  OXT       27.3960  -30.1050   84.8480 O.co2   3  DPR3       -0.2438
@<TRIPOS>BOND
     1    27    26    1
     2    27    28    1
     3    26    30    1
     4    26    25    1
     5    32    30   ar
     6    28    29    1
     7    30    31   ar
     8    18    17    2
     9    25    29    1
    10    25    17   am
    11    17    16    1
    12    23    24    2
    13    23    21    1
    14    24    22    1
    15    21    20    2
    16    22    20    1
    17    13    11   ar
    18    13    14   ar
    19    11     9   ar
    20    20    19    1
    21    16    15    1
    22    16    19    1
    23    15     6   am
    24    14    12   ar
    25     9     8    1
    26     9    10   ar
    27     2     1    2
    28     8     5    1
    29     3     1    1
    30     1     4   am
    31     6     5    1
    32     6     7    2
    33    12    10   ar
    34     5     4    1
