@<TRIPOS>MOLECULE
1mcj_DPN_P_1.pdb
 11 11 0 0 0
SMALL
GASTEIGER

@<TRIPOS>ATOM
      1  N         29.4360  -22.7460   89.0390 N.3     5  DPN5       -0.1241
      2  CA        29.0670  -24.0440   89.6170 C.3     5  DPN5        0.1605
      3  C         27.5310  -24.1340   89.7750 C.2     5  DPN5        0.2264
      4  O         26.8200  -23.1950   90.1350 O.2     5  DPN5       -0.2867
      5  CB        29.4190  -25.1710   88.6890 C.3     5  DPN5        0.0534
      6  CG        30.4570  -26.1610   89.0390 C.ar    5  DPN5       -0.0203
      7  CD1       31.8090  -25.8450   88.9200 C.ar    5  DPN5       -0.0042
      8  CD2       30.1150  -27.4470   89.4230 C.ar    5  DPN5       -0.0042
      9  CE1       32.8010  -26.7500   89.2150 C.ar    5  DPN5       -0.0003
     10  CE2       31.0920  -28.3830   89.7340 C.ar    5  DPN5       -0.0003
     11  CZ        32.4400  -28.0290   89.6170 C.ar    5  DPN5       -0.0000
@<TRIPOS>BOND
     1     5     6    1
     2     5     2    1
     3     7     6   ar
     4     7     9   ar
     5     1     2    1
     6     6     8   ar
     7     9    11   ar
     8     8    10   ar
     9     2     3    1
    10    11    10   ar
    11     3     4    2
