@<TRIPOS>MOLECULE
1mcj_HIS_P_1.pdb
 10 10 0 0 0
SMALL
GASTEIGER

@<TRIPOS>ATOM
      1  N         27.0560  -25.3390   89.5050 N.3     2  HIS2       -0.1241
      2  CA        25.6830  -25.6530   89.0870 C.3     2  HIS2        0.1618
      3  C         25.7790  -25.8740   87.5440 C.2     2  HIS2        0.2264
      4  O         26.5080  -25.1440   86.8750 O.2     2  HIS2       -0.2867
      5  CB        24.5850  -24.6550   89.4120 C.3     2  HIS2        0.0704
      6  CG        24.1340  -23.8040   88.2600 C.2     2  HIS2        0.0649
      7  ND1       24.9380  -22.8870   87.6390 N.2     2  HIS2       -0.2310
      8  CD2       22.9430  -23.7710   87.6090 C.3     2  HIS2        0.1683
      9  CE1       24.2480  -22.3040   86.6720 C.2     2  HIS2        0.1939
     10  NE2       23.0410  -22.8290   86.6330 N.2     2  HIS2       -0.2440
@<TRIPOS>BOND
     1    10     9    2
     2    10     8    1
     3     9     7    1
     4     4     3    2
     5     3     2    1
     6     8     6    1
     7     7     6    2
     8     6     5    1
     9     2     5    1
    10     2     1    1
