@<TRIPOS>MOLECULE
1mck_III_P_1.pdb
 30 31 0 0 0
SMALL
GASTEIGER

@<TRIPOS>ATOM
      1  C         27.9330  -24.1960   89.2490 C.2     0  ACE0        0.2423
      2  O         27.5470  -24.8610   90.2400 O.2     0  ACE0       -0.2733
      3  CH3       27.5600  -22.7560   89.0520 C.3     0  ACE0        0.0964
      4  N         28.7120  -24.7150   88.2890 N.am    1  DGL1       -0.1978
      5  CA        28.9870  -26.1590   88.3020 C.3     1  DGL1        0.1733
      6  C         28.3300  -26.7990   87.0830 C.2     1  DGL1        0.2616
      7  O         28.9570  -27.4100   86.2000 O.2     1  DGL1       -0.2715
      8  CB        30.4590  -26.4480   88.3340 C.3     1  DGL1        0.0429
      9  CG        30.9900  -27.2630   89.4980 C.3     1  DGL1        0.1163
     10  CD        31.3640  -28.6830   89.2670 C.2     1  DGL1        0.3649
     11  OE1       31.2280  -29.0510   88.0740 O.co2   1  DGL1       -0.2457
     12  OE2       31.7830  -29.4180   90.1580 O.co2   1  DGL1       -0.2457
     13  N         26.9950  -26.6140   87.0680 N.am    2  HIS2       -0.1960
     14  CA        26.1490  -27.3350   86.1030 C.3     2  HIS2        0.1769
     15  C         26.3960  -26.8140   84.6900 C.2     2  HIS2        0.2462
     16  O         26.6270  -25.6400   84.4750 O.2     2  HIS2       -0.2730
     17  CB        24.6680  -27.4650   86.4040 C.3     2  HIS2        0.0744
     18  CG        24.2970  -28.9270   86.5090 C.2     2  HIS2        0.0653
     19  ND1       24.5170  -29.6930   87.6200 N.2     2  HIS2       -0.2310
     20  CD2       23.7440  -29.7320   85.5720 C.3     2  HIS2        0.1683
     21  CE1       24.0800  -30.9240   87.3750 C.2     2  HIS2        0.1939
     22  NE2       23.6120  -30.9700   86.1400 N.2     2  HIS2       -0.2440
     23  N         26.1190  -27.7210   83.6850 N.am    3  DPR3       -0.2715
     24  CA        27.2380  -27.8090   82.6360 C.3     3  DPR3        0.1552
     25  CB        26.6620  -28.5340   81.5470 C.3     3  DPR3        0.0311
     26  CG        25.3510  -29.0670   82.0300 C.3     3  DPR3        0.0237
     27  CD        24.9130  -27.9700   82.9150 C.3     3  DPR3        0.0939
     28  C         28.3360  -28.5940   83.3970 C.2     3  DPR3        0.2788
     29  O         28.0050  -29.3310   84.3500 O.2     3  DPR3       -0.2699
     30  N         29.5850  -28.4950   83.1230 N.am    4  NH24       -0.0863
@<TRIPOS>BOND
     1    25    26    1
     2    25    24    1
     3    26    27    1
     4    24    28    1
     5    24    23    1
     6    27    23    1
     7    30    28   am
     8    28    29    2
     9    23    15   am
    10    16    15    2
    11    15    14    1
    12    20    22    1
    13    20    18    1
    14    14    17    1
    15    14    13    1
    16    22    21    2
    17     7     6    2
    18    17    18    1
    19    18    19    2
    20    13     6   am
    21     6     5    1
    22    21    19    1
    23    11    10   ar
    24     4     5    1
    25     4     1   am
    26     5     8    1
    27     8     9    1
    28     3     1    1
    29     1     2    2
    30    10     9    1
    31    10    12   ar
