@<TRIPOS>MOLECULE
1mcl_III_P_1.pdb
 21 22 0 0 0
SMALL
GASTEIGER

@<TRIPOS>ATOM
      1  C         26.1440  -28.0650   89.7260 C.2     0  ACE0        0.2423
      2  O         27.1400  -28.3220   90.4220 O.2     0  ACE0       -0.2733
      3  CH3       25.3270  -29.1350   89.0680 C.3     0  ACE0        0.0964
      4  N         25.7490  -26.8140   89.5000 N.am    1  DHI1       -0.1974
      5  CA        26.4060  -25.6750   90.0910 C.3     1  DHI1        0.1768
      6  C         27.3590  -24.8860   89.1870 C.2     1  DHI1        0.2462
      7  O         27.0310  -24.2060   88.2110 O.2     1  DHI1       -0.2730
      8  CB        25.3720  -24.6350   90.5820 C.3     1  DHI1        0.0744
      9  CG        24.1070  -24.6690   89.7900 C.2     1  DHI1        0.0653
     10  ND1       24.0090  -24.9850   88.4680 N.2     1  DHI1       -0.2310
     11  CD2       22.8360  -24.3820   90.1990 C.3     1  DHI1        0.1683
     12  CE1       22.7400  -24.9050   88.0940 C.2     1  DHI1        0.1939
     13  NE2       22.0150  -24.5400   89.1150 N.2     1  DHI1       -0.2440
     14  N         28.6350  -25.0960   89.5520 N.am    2  PRO2       -0.2699
     15  CA        29.6730  -24.0410   89.5440 C.3     2  PRO2        0.1791
     16  C         29.3570  -22.6470   89.1740 C.2     2  PRO2        0.3825
     17  O         28.3010  -22.1300   89.6410 O.co2   2  PRO2       -0.2438
     18  CB        30.7970  -24.7450   88.7670 C.3     2  PRO2        0.0332
     19  CG        30.7460  -26.1560   89.3250 C.3     2  PRO2        0.0238
     20  CD        29.3090  -26.4120   89.8320 C.3     2  PRO2        0.0940
     21  OXT       30.1870  -21.9620   88.5270 O.co2   2  PRO2       -0.2438
@<TRIPOS>BOND
     1    12    10    1
     2    12    13    2
     3     7     6    2
     4    10     9    2
     5    21    16   ar
     6    18    19    1
     7    18    15    1
     8     3     1    1
     9    13    11    1
    10    16    15    1
    11    16    17   ar
    12     6    14   am
    13     6     5    1
    14    19    20    1
    15     4     1   am
    16     4     5    1
    17    15    14    1
    18    14    20    1
    19     1     2    2
    20     9    11    1
    21     9     8    1
    22     5     8    1
