@<TRIPOS>MOLECULE
1mcn_III_P_1.pdb
 21 22 0 0 0
SMALL
GASTEIGER

@<TRIPOS>ATOM
      1  C         30.1300  -28.1510   88.4400 C.2     0  ACE0        0.2423
      2  O         30.5100  -28.2440   89.6170 O.2     0  ACE0       -0.2733
      3  CH3       30.6350  -29.0390   87.3300 C.3     0  ACE0        0.0964
      4  N         29.2800  -27.1940   88.0390 N.am    1  DHI1       -0.1974
      5  CA        28.6370  -26.2780   88.9400 C.3     1  DHI1        0.1768
      6  C         28.9560  -24.8050   88.8190 C.2     1  DHI1        0.2462
      7  O         28.0400  -23.9740   88.7060 O.2     1  DHI1       -0.2730
      8  CB        27.0790  -26.3670   88.7560 C.3     1  DHI1        0.0744
      9  CG        26.6240  -26.5040   87.3410 C.2     1  DHI1        0.0653
     10  ND1       25.3940  -27.0030   86.9830 N.2     1  DHI1       -0.2310
     11  CD2       27.2490  -26.2310   86.1610 C.3     1  DHI1        0.1683
     12  CE1       25.2880  -27.0180   85.6520 C.2     1  DHI1        0.1939
     13  NE2       26.3960  -26.5590   85.1460 N.2     1  DHI1       -0.2440
     14  N         30.2510  -24.4330   88.8060 N.am    2  PRO2       -0.2715
     15  CA        30.6860  -23.0720   89.1670 C.3     2  PRO2        0.1552
     16  C         30.0930  -21.8750   88.4810 C.2     2  PRO2        0.2788
     17  O         30.8100  -20.8090   88.4830 O.2     2  PRO2       -0.2699
     18  CB        32.2280  -23.1150   89.0160 C.3     2  PRO2        0.0311
     19  CG        32.5630  -24.5380   89.3600 C.3     2  PRO2        0.0237
     20  CD        31.4280  -25.3500   88.7430 C.3     2  PRO2        0.0939
     21  N         28.8780  -21.8810   87.9510 N.am    3  NH23       -0.0863
@<TRIPOS>BOND
     1    13    12    2
     2    13    11    1
     3    12    10    1
     4    11     9    1
     5    10     9    2
     6     3     1    1
     7     9     8    1
     8    21    16   am
     9     4     1   am
    10     4     5    1
    11     1     2    2
    12    16    17    2
    13    16    15    1
    14     7     6    2
    15    20    14    1
    16    20    19    1
    17     8     5    1
    18    14     6   am
    19    14    15    1
    20     6     5    1
    21    18    15    1
    22    18    19    1
