@<TRIPOS>MOLECULE
1mco_GUP_H_1.pdb
 11 11 0 0 0
SMALL
GASTEIGER

@<TRIPOS>ATOM
      1  O5        -1.6920    5.7890  142.6120 O.2   437  GUP437     -0.4642
      2  C1        -2.5650    6.9320  143.3580 C.3   437  GUP437      0.2414
      3  C2        -1.7200    7.1850  144.5080 C.3   437  GUP437      0.2285
      4  O2        -1.8680    8.5170  145.0240 O.3   437  GUP437     -0.2163
      5  C3        -2.1640    6.0110  145.4430 C.3   437  GUP437      0.2241
      6  O3        -3.5470    6.0120  145.5540 O.3   437  GUP437     -0.2170
      7  C4        -1.6660    4.6490  144.8840 C.3   437  GUP437      0.2512
      8  O4        -0.3060    4.4440  145.2070 O.3   437  GUP437     -0.2112
      9  C5        -1.7870    4.4910  143.2820 C.2   437  GUP437      0.2230
     10  C6        -1.2260    3.3380  142.5030 C.1   437  GUP437      0.1688
     11  O6        -0.9290    2.3450  141.4590 O.2   437  GUP437     -0.2282
@<TRIPOS>BOND
     1    11    10    2
     2    10     9    2
     3     1     9    1
     4     1     2    1
     5     9     7    1
     6     2     3    1
     7     3     4    1
     8     3     5    1
     9     7     8    1
    10     7     5    1
    11     5     6    1
