@<TRIPOS>MOLECULE
1mco_BMA_H_1.pdb
 11 11 0 0 0
SMALL
GASTEIGER

@<TRIPOS>ATOM
      1  C1        -5.2940    5.8260  139.3730 C.3   432  BMA432      0.1777
      2  C2        -4.1490    6.0040  140.4080 C.3   432  BMA432      0.2141
      3  C3        -4.3240    7.2650  141.3070 C.3   432  BMA432      0.2173
      4  C4        -5.4400    8.2840  140.6730 C.3   432  BMA432      0.2142
      5  C5        -6.8090    7.5130  140.4980 C.3   432  BMA432      0.1810
      6  C6        -8.1570    8.3210  140.1360 C.3   432  BMA432      0.2141
      7  O2        -2.8340    6.0650  139.8330 O.3   432  BMA432     -0.2176
      8  O3        -3.0070    7.4330  141.7690 O.3   432  BMA432     -0.2175
      9  O4        -5.7150    9.4980  141.3540 O.3   432  BMA432     -0.2176
     10  O5        -6.5790    6.5170  139.4700 O.3   432  BMA432     -0.3481
     11  O6        -8.7270    9.2670  141.1360 O.3   432  BMA432     -0.2176
@<TRIPOS>BOND
     1     1    10    1
     2     1     2    1
     3    10     5    1
     4     7     2    1
     5     6     5    1
     6     6    11    1
     7     2     3    1
     8     5     4    1
     9     4     3    1
    10     4     9    1
    11     3     8    1
