@<TRIPOS>MOLECULE
1mco_GAL_H_1.pdb
 11 11 0 0 0
SMALL
GASTEIGER

@<TRIPOS>ATOM
      1  C1       -17.7640    9.6700  145.1260 C.3   435  GAL435      0.1777
      2  C2       -18.9850    8.6510  145.3480 C.3   435  GAL435      0.2141
      3  C3       -20.4340    9.2440  145.4400 C.3   435  GAL435      0.2173
      4  C4       -20.2700   10.6680  146.3150 C.3   435  GAL435      0.2142
      5  C5       -18.8500   11.1090  146.9530 C.3   435  GAL435      0.1810
      6  C6       -18.2120   10.5810  148.3370 C.3   435  GAL435      0.2141
      7  O2       -19.1000    7.7970  144.2180 O.3   435  GAL435     -0.2176
      8  O3       -21.4790    8.1940  145.8910 O.3   435  GAL435     -0.2175
      9  O4       -21.0830   10.7860  147.3880 O.3   435  GAL435     -0.2176
     10  O5       -17.8640   10.9300  145.8480 O.3   435  GAL435     -0.3481
     11  O6       -16.9540   11.1260  148.5220 O.3   435  GAL435     -0.2176
@<TRIPOS>BOND
     1     7     2    1
     2     1     2    1
     3     1    10    1
     4     2     3    1
     5     3     8    1
     6     3     4    1
     7    10     5    1
     8     4     5    1
     9     4     9    1
    10     5     6    1
    11     6    11    1
