@<TRIPOS>MOLECULE
1mco_MAN_H_1.pdb
 11 11 0 0 0
SMALL
GASTEIGER

@<TRIPOS>ATOM
      1  C1        -9.9510   10.0970  140.8860 C.3   433  MAN433      0.1777
      2  C2       -11.2180    9.2340  140.5970 C.3   433  MAN433      0.2141
      3  C3       -11.3290    9.0100  139.0850 C.3   433  MAN433      0.2173
      4  C4       -11.6020   10.4750  138.5220 C.3   433  MAN433      0.2142
      5  C5       -10.2150   11.1990  138.6360 C.3   433  MAN433      0.1810
      6  C6       -10.1680   12.6590  138.1360 C.3   433  MAN433      0.2141
      7  O2       -12.4630    9.9060  141.0550 O.3   433  MAN433     -0.2176
      8  O3       -12.2930    8.1000  138.8910 O.3   433  MAN433     -0.2175
      9  O4       -12.1450   10.4680  137.2460 O.3   433  MAN433     -0.2176
     10  O5        -9.7930   11.2480  140.0070 O.3   433  MAN433     -0.3481
     11  O6       -10.9110   13.5030  139.0030 O.3   433  MAN433     -0.2176
@<TRIPOS>BOND
     1     9     4    1
     2     6     5    1
     3     6    11    1
     4     4     5    1
     5     4     3    1
     6     5    10    1
     7     8     3    1
     8     3     2    1
     9    10     1    1
    10     2     1    1
    11     2     7    1
