@<TRIPOS>MOLECULE
1mco_SIA_H_1.pdb
 20 20 0 0 0
SMALL
GASTEIGER

@<TRIPOS>ATOM
      1  C1       -20.6290    7.5300  148.0980 C.2   436  SIA436      0.3914
      2  C2       -21.8920    7.7140  147.2420 C.3   436  SIA436      0.2203
      3  C3       -22.8850    6.3860  147.1990 C.3   436  SIA436      0.0760
      4  C4       -23.5210    6.1160  148.6150 C.3   436  SIA436      0.1773
      5  C5       -24.3920    7.3220  148.9960 C.3   436  SIA436      0.1552
      6  C6       -24.0200    8.7360  148.3330 C.3   436  SIA436      0.1710
      7  C7       -24.7180    9.4670  147.2010 C.3   436  SIA436      0.2134
      8  C8       -26.2000    9.8850  147.5130 C.3   436  SIA436      0.2173
      9  C9       -26.5160   10.7410  148.8150 C.3   436  SIA436      0.2175
     10  C10      -25.2320    7.7440  151.3240 C.2   436  SIA436      0.2420
     11  C11      -24.7320    8.3710  152.6300 C.3   436  SIA436      0.0964
     12  N5       -24.2710    7.5520  150.4340 N.am  436  SIA436     -0.2020
     13  O1A      -20.5540    6.6380  148.9360 O.co2 436  SIA436     -0.2430
     14  O1B      -19.8190    8.4200  148.0110 O.co2 436  SIA436     -0.2430
     15  O4       -24.3260    4.9430  148.6730 O.3   436  SIA436     -0.2211
     16  O6       -22.6310    8.8100  147.9010 O.3   436  SIA436     -0.3429
     17  O7       -24.0200   10.6780  146.8910 O.3   436  SIA436     -0.2176
     18  O8       -26.6550   10.7040  146.4770 O.3   436  SIA436     -0.2175
     19  O9       -27.9060   11.0360  148.7940 O.3   436  SIA436     -0.2175
     20  O10      -26.4290    7.6200  151.0980 O.2   436  SIA436     -0.2733
@<TRIPOS>BOND
     1    18     8    1
     2    17     7    1
     3     3     2    1
     4     3     4    1
     5     7     8    1
     6     7     6    1
     7     2    16    1
     8     2     1    1
     9     8     9    1
    10    16     6    1
    11    14     1   ar
    12     1    13   ar
    13     6     5    1
    14     4    15    1
    15     4     5    1
    16    19     9    1
    17     5    12    1
    18    12    10   am
    19    20    10    2
    20    10    11    1
