@<TRIPOS>MOLECULE
1mco_FUL_H_1.pdb
 10 10 0 0 0
SMALL
GASTEIGER

@<TRIPOS>ATOM
      1  C1       -11.2770    6.5570  129.7850 C.3   430  FUL430      0.1776
      2  C2       -12.4750    5.5520  129.7220 C.3   430  FUL430      0.2141
      3  O2       -12.2980    4.5710  130.7180 O.3   430  FUL430     -0.2176
      4  C3       -13.8420    6.2710  129.9680 C.3   430  FUL430      0.2172
      5  O3       -14.9320    5.3890  129.8090 O.3   430  FUL430     -0.2175
      6  C4       -13.9720    7.4430  128.9850 C.3   430  FUL430      0.2116
      7  O4       -13.9870    6.9770  127.6490 O.3   430  FUL430     -0.2177
      8  C5       -12.7910    8.4270  129.2070 C.3   430  FUL430      0.1483
      9  C6       -12.8020    9.6920  128.3560 C.3   430  FUL430      0.0349
     10  O5       -11.5340    7.7250  128.9570 O.3   430  FUL430     -0.3508
@<TRIPOS>BOND
     1     7     6    1
     2     9     8    1
     3    10     8    1
     4    10     1    1
     5     6     8    1
     6     6     4    1
     7     2     1    1
     8     2     4    1
     9     2     3    1
    10     5     4    1
