@<TRIPOS>MOLECULE
1mcq_III_P_1.pdb
 21 22 0 0 0
SMALL
GASTEIGER

@<TRIPOS>ATOM
      1  C         26.5450  -27.5940   88.5610 C.2     0  ACE0        0.2423
      2  O         26.8510  -28.0250   87.4490 O.2     0  ACE0       -0.2733
      3  CH3       25.1280  -27.5210   89.0520 C.3     0  ACE0        0.0964
      4  N         27.4790  -27.2030   89.3990 N.am    1  HIS1       -0.1974
      5  CA        28.8800  -27.0790   89.1840 C.3     1  HIS1        0.1768
      6  C         29.3500  -25.7150   88.6650 C.2     1  HIS1        0.2462
      7  O         30.0620  -25.6190   87.6670 O.2     1  HIS1       -0.2730
      8  CB        29.6010  -28.2160   88.4720 C.3     1  HIS1        0.0744
      9  CG        29.4690  -28.4910   87.0270 C.2     1  HIS1        0.0653
     10  ND1       29.6180  -29.7430   86.4620 N.2     1  HIS1       -0.2310
     11  CD2       29.1800  -27.6730   85.9750 C.3     1  HIS1        0.1683
     12  CE1       29.4410  -29.6580   85.1550 C.2     1  HIS1        0.1939
     13  NE2       29.1750  -28.4050   84.8300 N.2     1  HIS1       -0.2440
     14  N         28.9230  -24.6330   89.3810 N.am    2  DPR2       -0.2715
     15  CA        29.6630  -23.3370   89.2600 C.3     2  DPR2        0.1552
     16  CB        28.7290  -22.6300   88.3580 C.3     2  DPR2        0.0311
     17  CG        27.4270  -22.9000   89.0590 C.3     2  DPR2        0.0237
     18  CD        27.6110  -24.1420   89.8030 C.3     2  DPR2        0.0939
     19  C         31.0990  -23.3150   88.9070 C.2     2  DPR2        0.2788
     20  O         31.7720  -22.2350   89.0070 O.2     2  DPR2       -0.2699
     21  N         31.8360  -24.3290   88.5400 N.am    3  NH23       -0.0863
@<TRIPOS>BOND
     1    13    12    2
     2    13    11    1
     3    12    10    1
     4    11     9    1
     5    10     9    2
     6     9     8    1
     7     2     1    2
     8     7     6    2
     9    16    17    1
    10    16    15    1
    11     8     5    1
    12    21    19   am
    13     1     3    1
    14     1     4   am
    15     6     5    1
    16     6    14   am
    17    19    20    2
    18    19    15    1
    19    17    18    1
    20     5     4    1
    21    15    14    1
    22    14    18    1
