@<TRIPOS>MOLECULE
1mcr_III_P_1.pdb
 21 22 0 0 0
SMALL
GASTEIGER

@<TRIPOS>ATOM
      1  C         26.1570  -26.3230   87.3580 C.2     0  ACE0        0.2423
      2  O         25.1720  -26.7300   87.9940 O.2     0  ACE0       -0.2733
      3  CH3       26.2020  -26.2590   85.8600 C.3     0  ACE0        0.0964
      4  N         27.2630  -25.9640   88.0030 N.am    1  HIS1       -0.1974
      5  CA        27.3350  -25.8170   89.4420 C.3     1  HIS1        0.1768
      6  C         28.4480  -24.7740   89.7150 C.2     1  HIS1        0.2462
      7  O         29.4870  -25.0650   90.2880 O.2     1  HIS1       -0.2730
      8  CB        27.6350  -27.0920   90.2280 C.3     1  HIS1        0.0744
      9  CG        26.9820  -28.3110   89.6540 C.2     1  HIS1        0.0653
     10  ND1       25.6860  -28.6840   89.9070 N.2     1  HIS1       -0.2310
     11  CD2       27.4790  -29.2050   88.7580 C.3     1  HIS1        0.1683
     12  CE1       25.4200  -29.7720   89.2020 C.2     1  HIS1        0.1939
     13  NE2       26.4890  -30.1050   88.4980 N.2     1  HIS1       -0.2440
     14  N         28.0840  -23.5460   89.2230 N.am    2  DPR2       -0.2699
     15  CA        29.0320  -22.4180   89.3320 C.3     2  DPR2        0.1791
     16  CB        28.4380  -21.3700   88.4830 C.3     2  DPR2        0.0332
     17  CG        27.1850  -21.9320   87.9230 C.3     2  DPR2        0.0238
     18  CD        26.7960  -22.9330   88.8970 C.3     2  DPR2        0.0940
     19  C         30.4760  -22.7260   88.9830 C.2     2  DPR2        0.3825
     20  O         30.8490  -23.6010   88.2040 O.co2   2  DPR2       -0.2438
     21  OXT       31.3970  -22.0490   89.4660 O.co2   2  DPR2       -0.2438
@<TRIPOS>BOND
     1     3     1    1
     2     1     2    2
     3     1     4   am
     4    17    16    1
     5    17    18    1
     6     4     5    1
     7    20    19   ar
     8    16    15    1
     9    13    11    1
    10    13    12    2
    11    11     9    1
    12    18    14    1
    13    19    15    1
    14    19    21   ar
    15    12    10    1
    16    14    15    1
    17    14     6   am
    18     5     6    1
    19     5     8    1
    20     9    10    2
    21     9     8    1
    22     6     7    2
