@<TRIPOS>MOLECULE
1mcs_III_P_1.pdb
 41 43 0 0 0
SMALL
GASTEIGER

@<TRIPOS>ATOM
      1  C         31.2990  -23.3320   89.1520 C.2     0  ACE0        0.2423
      2  O         31.3850  -22.0970   89.2620 O.2     0  ACE0       -0.2733
      3  CH3       32.4980  -24.2030   88.9530 C.3     0  ACE0        0.0964
      4  N         30.1240  -23.9420   89.1950 N.am    1  GLN1       -0.1978
      5  CA        28.8900  -23.2350   89.5070 C.3     1  GLN1        0.1732
      6  C         27.8800  -24.3370   89.9160 C.2     1  GLN1        0.2616
      7  O         27.1950  -24.3150   90.9370 O.2     1  GLN1       -0.2715
      8  CB        28.3010  -22.5110   88.3080 C.3     1  GLN1        0.0408
      9  CG        28.7330  -21.0800   88.0910 C.3     1  GLN1        0.0908
     10  CD        28.2040  -20.5010   86.7930 C.2     1  GLN1        0.2608
     11  OE1       27.0540  -20.6980   86.3880 O.2     1  GLN1       -0.2717
     12  NE2       29.1040  -19.7780   86.1220 N.am    1  GLN1       -0.0878
     13  N         27.8390  -25.2590   88.9680 N.am    2  DPN2       -0.1960
     14  CA        27.1450  -26.5440   89.1970 C.3     2  DPN2        0.1771
     15  C         26.6830  -27.1180   87.8580 C.2     2  DPN2        0.2620
     16  O         26.4920  -28.3130   87.6670 O.2     2  DPN2       -0.2715
     17  CB        28.0260  -27.5040   89.8640 C.3     2  DPN2        0.0574
     18  CG        29.4380  -27.6210   89.3840 C.ar    2  DPN2       -0.0200
     19  CD1       29.7400  -28.2560   88.1980 C.ar    2  DPN2       -0.0042
     20  CD2       30.4730  -27.1460   90.1890 C.ar    2  DPN2       -0.0042
     21  CE1       31.0580  -28.4210   87.7950 C.ar    2  DPN2       -0.0003
     22  CE2       31.7910  -27.3060   89.8120 C.ar    2  DPN2       -0.0003
     23  CZ        32.0880  -27.9310   88.6110 C.ar    2  DPN2       -0.0000
     24  N         26.6000  -26.1790   86.9440 N.am    3  HIS3       -0.1960
     25  CA        25.7930  -26.2650   85.7260 C.3     3  HIS3        0.1769
     26  C         26.1710  -27.3110   84.7410 C.2     3  HIS3        0.2462
     27  O         27.3330  -27.5790   84.3860 O.2     3  HIS3       -0.2730
     28  CB        25.6270  -24.8170   85.1760 C.3     3  HIS3        0.0744
     29  CG        24.9300  -24.0070   86.2610 C.2     3  HIS3        0.0653
     30  ND1       25.3570  -22.8290   86.7840 N.2     3  HIS3       -0.2310
     31  CD2       23.7870  -24.3350   86.9270 C.3     3  HIS3        0.1683
     32  CE1       24.4930  -22.4310   87.7060 C.2     3  HIS3        0.1939
     33  NE2       23.5420  -23.3300   87.8140 N.2     3  HIS3       -0.2440
     34  N         25.1510  -27.8360   83.9260 N.am    4  DPR4       -0.2699
     35  CA        25.0650  -29.3830   84.0530 C.3     4  DPR4        0.1791
     36  CB        24.3920  -29.7990   82.8780 C.3     4  DPR4        0.0332
     37  CG        24.8620  -28.8190   81.8410 C.3     4  DPR4        0.0238
     38  CD        24.8360  -27.5590   82.5580 C.3     4  DPR4        0.0940
     39  C         24.2770  -29.4610   85.3880 C.2     4  DPR4        0.3825
     40  O         24.5130  -30.2090   86.2950 O.co2   4  DPR4       -0.2438
     41  OXT       23.4380  -28.5560   85.5460 O.co2   4  DPR4       -0.2438
@<TRIPOS>BOND
     1    37    38    1
     2    37    36    1
     3    38    34    1
     4    36    35    1
     5    34    35    1
     6    34    26   am
     7    35    39    1
     8    27    26    2
     9    26    25    1
    10    28    25    1
    11    28    29    1
    12    39    41   ar
    13    39    40   ar
    14    25    24    1
    15    12    10   am
    16    29    30    2
    17    29    31    1
    18    11    10    2
    19    30    32    1
    20    10     9    1
    21    31    33    1
    22    24    15   am
    23    16    15    2
    24    32    33    2
    25    21    19   ar
    26    21    23   ar
    27    15    14    1
    28     9     8    1
    29    19    18   ar
    30     8     5    1
    31    23    22   ar
    32     3     1    1
    33    13    14    1
    34    13     6   am
    35     1     4   am
    36     1     2    2
    37     4     5    1
    38    14    17    1
    39    18    17    1
    40    18    20   ar
    41     5     6    1
    42    22    20   ar
    43     6     7    2
