@<TRIPOS>MOLECULE
1mcy_HEM_A_1.pdb
 43 50 0 0 0
SMALL
GASTEIGER

@<TRIPOS>ATOM
      1  CHA       37.9370    2.3200   11.3540 C.2   154  HEM154      0.0000
      2  CHB       37.1530    5.3070    7.6610 C.2   154  HEM154      0.0000
      3  CHC       32.7340    6.2240    9.1740 C.2   154  HEM154      0.0000
      4  CHD       33.4380    3.1410   12.8620 C.2   154  HEM154      0.0000
      5  C1A       38.1160    3.1000   10.2040 C.ar  154  HEM154      0.0000
      6  C2A       39.3630    3.1600    9.3840 C.ar  154  HEM154      0.0000
      7  C3A       39.1640    3.9920    8.3090 C.ar  154  HEM154      0.0000
      8  C4A       37.7840    4.4600    8.5370 C.ar  154  HEM154      0.0000
      9  CMA       40.1360    4.3500    7.1640 C.3   154  HEM154      0.0000
     10  CAA       40.6120    2.3200    9.6500 C.3   154  HEM154      0.0000
     11  CBA       40.7530    1.0080    8.8630 C.3   154  HEM154      0.0000
     12  CGA       39.4920    0.1900    8.8660 C.2   154  HEM154      0.0000
     13  O1A       39.1450   -0.3840    9.9300 O.co2 154  HEM154      0.0000
     14  O2A       38.7920    0.1780    7.8230 O.co2 154  HEM154      0.0000
     15  C1B       35.8680    5.7660    7.7340 C.2   154  HEM154      0.0000
     16  C2B       35.3480    6.7650    6.7390 C.2   154  HEM154      0.0000
     17  C3B       34.1110    7.0440    7.2130 C.2   154  HEM154      0.0000
     18  C4B       33.8920    6.2040    8.4100 C.2   154  HEM154      0.0000
     19  CMB       36.0480    7.3030    5.4370 C.3   154  HEM154      0.0000
     20  CAB       33.1530    7.9180    6.6220 C.3   154  HEM154      0.0000
     21  CBB       33.4450    9.2640    6.0760 C.3   154  HEM154      0.0000
     22  C1C       32.5830    5.4700   10.3630 C.ar  154  HEM154      0.0000
     23  C2C       31.4120    5.6390   11.2560 C.ar  154  HEM154      0.0000
     24  C3C       31.5640    4.7310   12.3220 C.ar  154  HEM154      0.0000
     25  C4C       32.8390    4.0590   11.9810 C.ar  154  HEM154      0.0000
     26  CMC       30.2290    6.5130   10.9000 C.3   154  HEM154      0.0000
     27  CAC       30.7570    4.4610   13.5300 C.3   154  HEM154      0.0000
     28  CBC       29.6660    5.1640   14.0720 C.3   154  HEM154      0.0000
     29  C1D       34.7050    2.6290   12.7880 C.2   154  HEM154      0.0000
     30  C2D       35.2810    1.6860   13.7730 C.2   154  HEM154      0.0000
     31  C3D       36.5650    1.5840   13.3820 C.2   154  HEM154      0.0000
     32  C4D       36.7660    2.3350   12.1400 C.2   154  HEM154      0.0000
     33  CMD       34.5810    1.0210   14.9410 C.3   154  HEM154      0.0000
     34  CAD       37.7050    0.9640   14.1160 C.3   154  HEM154      0.0000
     35  CBD       38.4830    1.9570   15.0100 C.3   154  HEM154      0.0000
     36  CGD       39.5320    1.2450   15.8580 C.2   154  HEM154      0.0000
     37  O1D       39.2660    0.9550   17.0360 O.co2 154  HEM154      0.0000
     38  O2D       40.6080    0.9310   15.3520 O.co2 154  HEM154      0.0000
     39  NA        37.1190    3.9260    9.7140 N.ar  154  HEM154      0.0000
     40  NB        34.9730    5.4760    8.7240 N.2   154  HEM154      0.0000
     41  NC        33.4860    4.5440   10.8000 N.ar  154  HEM154      0.0000
     42  ND        35.6440    2.9540   11.7980 N.2   154  HEM154      0.0000
     43 FE         35.3140    4.2550   10.2730 Fe    154  HEM154      0.0000
@<TRIPOS>BOND
     1    19    16    1
     2    21    20    1
     3    20    17    1
     4    16    17    2
     5    16    15    1
     6     9     7    1
     7    17    18    1
     8     2    15    1
     9     2     8    2
    10    15    40    2
    11    14    12   ar
    12     7     8   ar
    13     7     6   ar
    14    18    40    1
    15    18     3    2
    16     8    39   ar
    17    40    43    1
    18    11    12    1
    19    11    10    1
    20    12    13   ar
    21     3    22    1
    22     6    10    1
    23     6     5   ar
    24    39     5   ar
    25    39    43    1
    26     5     1    2
    27    43    41    1
    28    43    42    1
    29    22    41   ar
    30    22    23   ar
    31    41    25   ar
    32    26    23    1
    33    23    24   ar
    34     1    32    1
    35    42    32    2
    36    42    29    1
    37    25    24   ar
    38    25     4    1
    39    32    31    1
    40    24    27    1
    41    29     4    2
    42    29    30    1
    43    31    30    2
    44    31    34    1
    45    27    28    1
    46    30    33    1
    47    34    35    1
    48    35    36    1
    49    38    36   ar
    50    36    37   ar
