@<TRIPOS>MOLECULE
1mcz_TDP_A_1.pdb
 26 27 0 0 0
SMALL
GASTEIGER

@<TRIPOS>ATOM
      1  N1'       34.4390   21.6820   -1.0610 N.2   533  TDP533     -0.1861
      2  C2'       34.9750   21.1890   -2.2340 C.1   533  TDP533      0.0663
      3  C2A       36.4510   21.0790   -2.4200 C.3   533  TDP533      0.1291
      4  N3'       34.1970   20.8010   -3.2310 N.2   533  TDP533     -0.3368
      5  C4'       32.8070   20.8810   -3.1100 C.2   533  TDP533      0.2292
      6  N4'       32.1060   20.4680   -4.1550 N.pl3 533  TDP533     -0.0925
      7  C5'       32.2120   21.3860   -1.9200 C.2   533  TDP533      0.0654
      8  C6'       33.0780   21.7610   -0.9460 C.2   533  TDP533      0.1115
      9  C35       30.7140   21.4900   -1.7390 C.3   533  TDP533      0.1237
     10  N3        30.0580   22.6100   -2.5660 N.pl3 533  TDP533     -0.2970
     11  C2        29.4240   22.2770   -3.6800 C.3   533  TDP533      0.1543
     12  S1        28.7170   23.5200   -4.5440 S.3   533  TDP533     -0.0951
     13  C5        29.2770   24.6530   -3.3630 C.2   533  TDP533      0.0164
     14  C4        29.9980   23.9900   -2.3430 C.2   533  TDP533      0.0279
     15  C4A       30.6180   24.6600   -1.1720 C.3   533  TDP533      0.0473
     16  C5A       28.9540   26.0960   -3.5490 C.3   533  TDP533      0.0661
     17  C5B       29.9510   26.9350   -4.3110 C.3   533  TDP533      0.1544
     18  O5G       29.3050   28.0200   -4.9110 O.3   533  TDP533     -0.3134
     19  P1        29.7580   29.2180   -5.8120 P.3   533  TDP533      0.2230
     20  O11       28.4540   29.5350   -6.6220 O.3   533  TDP533     -0.2261
     21  O12       30.1330   30.3890   -5.0380 O.3   533  TDP533     -0.4370
     22  O13       30.7580   28.6730   -6.7730 O.2   533  TDP533     -0.5169
     23  P2        26.9290   29.0150   -6.7360 P.3   533  TDP533      0.5373
     24  O21       26.0970   30.1480   -6.1580 O.3   533  TDP533     -0.1143
     25  O22       26.7840   28.5660   -8.0830 O.2   533  TDP533     -0.2221
     26  O23       26.8200   27.8820   -5.7530 O.3   533  TDP533     -0.1143
@<TRIPOS>BOND
     1    25    23    2
     2    22    19    2
     3    23    20    1
     4    23    24    1
     5    23    26    1
     6    20    19    1
     7    19    21    1
     8    19    18    1
     9    18    17    1
    10    12    11    1
    11    12    13    1
    12    17    16    1
    13     6     5    1
    14    11    10    1
    15    16    13    1
    16    13    14    2
    17     4     5    2
    18     4     2    2
    19     5     7    1
    20    10    14    1
    21    10     9    1
    22     3     2    1
    23    14    15    1
    24     2     1    2
    25     7     9    1
    26     7     8    2
    27     1     8    1
