@<TRIPOS>MOLECULE
1mcz_RMN_A_1.pdb
 11 11 0 0 0
SMALL
GASTEIGER

@<TRIPOS>ATOM
      1  C1        28.2540   19.7270   -6.0120 C.ar  534  RMN534      0.0188
      2  C2        29.3280   19.7880   -6.9420 C.ar  534  RMN534     -0.0013
      3  C3        29.2050   20.5450   -8.1190 C.ar  534  RMN534     -0.0002
      4  C4        28.0140   21.2530   -8.3920 C.ar  534  RMN534     -0.0000
      5  C5        26.9320   21.2170   -7.4960 C.ar  534  RMN534     -0.0002
      6  C6        27.0530   20.4580   -6.3120 C.ar  534  RMN534     -0.0013
      7  C7        28.3950   18.8740   -4.6920 C.3   534  RMN534      0.2763
      8  C10       27.3290   19.1640   -3.6630 C.2   534  RMN534      0.3989
      9  O8        29.7060   19.0580   -4.0780 O.3   534  RMN534     -0.2060
     10  O11       26.2610   18.6740   -3.9100 O.co2 534  RMN534     -0.2424
     11  O12       27.5880   19.8240   -2.6890 O.co2 534  RMN534     -0.2424
@<TRIPOS>BOND
     1     4     3   ar
     2     4     5   ar
     3     3     2   ar
     4     5     6   ar
     5     2     1   ar
     6     6     1   ar
     7     1     7    1
     8     7     9    1
     9     7     8    1
    10    10     8   ar
    11     8    11   ar
