@<TRIPOS>MOLECULE
1md2_233_D_1.pdb
 24 24 0 0 0
SMALL
GASTEIGER

@<TRIPOS>ATOM
      1  C1       -11.2510   19.6650    2.2490 C.3   2201  2332201     0.2446
      2  C2       -11.0100   18.4420    3.1300 C.3   2201  2332201     0.2326
      3  C3       -11.3960   18.7550    4.5860 C.3   2201  2332201     0.2190
      4  C4       -10.6580   20.0290    5.1000 C.3   2201  2332201     0.2144
      5  C5       -10.8690   21.1710    4.1010 C.3   2201  2332201     0.1828
      6  C6       -10.0350   22.4240    4.4320 C.3   2201  2332201     0.2142
      7  O2       -11.8450   17.3720    2.6400 O.3   2201  2332201    -0.2157
      8  O3       -11.0010   17.6610    5.3980 O.3   2201  2332201    -0.2174
      9  O4        -9.2310   19.7460    5.1280 O.3   2201  2332201    -0.2176
     10  O5       -10.4650   20.7670    2.7880 O.3   2201  2332201    -0.3315
     11  O6       -10.4120   23.5360    3.6260 O.3   2201  2332201    -0.2176
     12  N1       -10.6430   19.4980    0.9200 N.am  2201  2332201    -0.1751
     13  O7       -12.2160   20.7980   -0.0440 O.2   2201  2332201    -0.2733
     14  C7       -11.1900   20.1070   -0.1180 C.2   2201  2332201     0.2435
     15  C8       -10.4820   19.8640   -1.4370 C.3   2201  2332201     0.0869
     16  C9       -10.4380   21.1460   -2.2600 C.3   2201  2332201     0.0100
     17  C10       -9.4770   22.1710   -1.6700 C.3   2201  2332201     0.0066
     18  C11       -8.6210   22.7980   -2.7740 C.3   2201  2332201     0.0444
     19  C12       -9.1330   24.1370   -3.2590 C.2   2201  2332201     0.0657
     20  N13      -10.2870   24.1360   -4.0910 N.am  2201  2332201    -0.1458
     21  C14      -11.1220   25.0120   -4.6070 C.2   2201  2332201     0.4253
     22  O15      -10.8440   26.4100   -4.3710 O.2   2201  2332201    -0.2242
     23  O16      -12.2340   24.7050   -5.4280 O.3   2201  2332201    -0.4292
     24  C17      -13.4590   24.1040   -4.9580 C.3   2201  2332201     0.2574
@<TRIPOS>BOND
     1    23    24    1
     2    23    21    1
     3    21    22    2
     4    21    20    1
     5    20    19    2
     6    19    18    1
     7    18    17    1
     8    16    17    1
     9    16    15    1
    10    15    14    1
    11    14    13    2
    12    14    12   am
    13    12     1    1
    14     1    10    1
    15     1     2    1
    16     7     2    1
    17    10     5    1
    18     2     3    1
    19    11     6    1
    20     5     6    1
    21     5     4    1
    22     3     4    1
    23     3     8    1
    24     4     9    1
