@<TRIPOS>MOLECULE
1md3_GSH_A_1.pdb
 20 19 0 0 0
SMALL
GASTEIGER

@<TRIPOS>ATOM
      1  N1        14.5900   11.1250   23.0060 N.3   3001  GSH3001    -0.1208
      2  CA1       14.4430   10.3080   24.2410 C.3   3001  GSH3001     0.1948
      3  C1        15.5700    9.2190   24.2810 C.2   3001  GSH3001     0.3819
      4  O11       15.9980    8.8390   25.3890 O.co2 3001  GSH3001    -0.2441
      5  O12       16.0280    8.7840   23.2050 O.co2 3001  GSH3001    -0.2441
      6  CB1       13.0610    9.6440   24.2540 C.3   3001  GSH3001     0.0402
      7  CG1       12.7310    9.0540   25.6220 C.3   3001  GSH3001     0.0889
      8  CD1       11.3590    8.3960   25.7130 C.2   3001  GSH3001     0.2418
      9  OE1       10.5680    8.3440   24.7490 O.2   3001  GSH3001    -0.2733
     10  N2        11.0900    7.8800   26.9010 N.am  3001  GSH3001    -0.1968
     11  CA2        9.8310    7.1660   27.1960 C.3   3001  GSH3001     0.1843
     12  C2         9.2190    7.7290   28.4730 C.2   3001  GSH3001     0.2627
     13  O2         9.9620    8.1170   29.3950 O.2   3001  GSH3001    -0.2714
     14  CB2       10.1720    5.6510   27.3900 C.3   3001  GSH3001     0.0997
     15  SG2       11.2170    4.9480   26.0020 S.3   3001  GSH3001    -0.0797
     16  N3         7.8810    7.7490   28.5380 N.am  3001  GSH3001    -0.1917
     17  CA3        7.2140    8.2520   29.7500 C.3   3001  GSH3001     0.2285
     18  C3         6.6990    9.6870   29.6740 C.2   3001  GSH3001     0.3865
     19  O31        6.0040   10.1030   30.6310 O.co2 3001  GSH3001    -0.2437
     20  O32        6.9840   10.3860   28.6530 O.co2 3001  GSH3001    -0.2437
@<TRIPOS>BOND
     1     1     2    1
     2     5     3   ar
     3     2     6    1
     4     2     3    1
     5     6     7    1
     6     3     4   ar
     7     9     8    2
     8     7     8    1
     9     8    10   am
    10    15    14    1
    11    10    11    1
    12    11    14    1
    13    11    12    1
    14    12    16   am
    15    12    13    2
    16    16    17    1
    17    20    18   ar
    18    18    17    1
    19    18    19   ar
