@<TRIPOS>MOLECULE
1md4_GSH_A_1.pdb
 20 19 0 0 0
SMALL
GASTEIGER

@<TRIPOS>ATOM
      1  N1        14.3980   10.9860   22.9630 N.3   3001  GSH3001    -0.1208
      2  CA1       14.2760   10.1580   24.1890 C.3   3001  GSH3001     0.1948
      3  C1        15.3820    9.0700   24.2030 C.2   3001  GSH3001     0.3819
      4  O11       15.7710    8.6260   25.3060 O.co2 3001  GSH3001    -0.2441
      5  O12       15.8620    8.6750   23.1150 O.co2 3001  GSH3001    -0.2441
      6  CB1       12.8840    9.5270   24.2360 C.3   3001  GSH3001     0.0402
      7  CG1       12.5390    8.9000   25.5970 C.3   3001  GSH3001     0.0889
      8  CD1       11.1480    8.2770   25.6780 C.2   3001  GSH3001     0.2418
      9  OE1       10.3620    8.2870   24.7090 O.2   3001  GSH3001    -0.2733
     10  N2        10.8480    7.7290   26.8680 N.am  3001  GSH3001    -0.1968
     11  CA2        9.5610    7.0750   27.1620 C.3   3001  GSH3001     0.1843
     12  C2         8.9760    7.6650   28.4500 C.2   3001  GSH3001     0.2627
     13  O2         9.7290    8.1040   29.3410 O.2   3001  GSH3001    -0.2714
     14  CB2        9.7610    5.5430   27.3490 C.3   3001  GSH3001     0.0997
     15  SG2       10.8140    4.7460   26.0570 S.3   3001  GSH3001    -0.0797
     16  N3         7.6350    7.6650   28.5340 N.am  3001  GSH3001    -0.1917
     17  CA3        6.9320    8.1890   29.7120 C.3   3001  GSH3001     0.2285
     18  C3         6.4570    9.6280   29.6320 C.2   3001  GSH3001     0.3865
     19  O31        5.5490    9.9980   30.4110 O.co2 3001  GSH3001    -0.2437
     20  O32        6.9910   10.3880   28.7940 O.co2 3001  GSH3001    -0.2437
@<TRIPOS>BOND
     1     1     2    1
     2     5     3   ar
     3     2     3    1
     4     2     6    1
     5     3     4   ar
     6     6     7    1
     7     9     8    2
     8     7     8    1
     9     8    10   am
    10    15    14    1
    11    10    11    1
    12    11    14    1
    13    11    12    1
    14    12    16   am
    15    12    13    2
    16    16    17    1
    17    20    18   ar
    18    18    17    1
    19    18    19   ar
