@<TRIPOS>MOLECULE
1md9_AMP_A_1.pdb
 23 25 0 0 0
SMALL
GASTEIGER

@<TRIPOS>ATOM
      1  P         -0.6430   21.2570   36.0470 P.3   600  AMP600      0.5327
      2  O1P       -0.3890   19.7610   36.0970 O.2   600  AMP600     -0.2224
      3  O2P       -1.6740   21.6980   37.0400 O.3   600  AMP600     -0.1145
      4  O3P        0.6020   22.1010   36.2020 O.3   600  AMP600     -0.1145
      5  O5'       -1.4420   21.7190   34.6650 O.3   600  AMP600     -0.2675
      6  C5'       -1.0070   21.5770   33.2640 C.3   600  AMP600      0.1860
      7  C4'        0.3340   20.8670   33.1810 C.3   600  AMP600      0.1823
      8  O4'        0.3650   19.4790   33.4120 O.3   600  AMP600     -0.3135
      9  C3'        1.0730   21.0030   31.8330 C.3   600  AMP600      0.2184
     10  O3'        1.6470   22.3020   31.6220 O.3   600  AMP600     -0.2174
     11  C2'        2.1400   19.9390   31.9010 C.3   600  AMP600      0.2570
     12  O2'        3.3370   20.4530   32.5530 O.3   600  AMP600     -0.2130
     13  C1'        1.4290   18.8530   32.6660 C.3   600  AMP600      0.3186
     14  N9         0.8410   17.7880   31.4980 N.pl3 600  AMP600     -0.1439
     15  C8        -0.4820   17.5690   31.2730 C.3   600  AMP600      0.3377
     16  N7        -0.6700   16.6520   30.3040 N.2   600  AMP600     -0.2095
     17  C5         0.5570   16.3180   29.9410 C.2   600  AMP600      0.2526
     18  C6         0.8860   15.3750   28.9680 C.2   600  AMP600      0.4393
     19  N6        -0.0450   14.7040   28.2970 N.pl3 600  AMP600      0.2180
     20  N1         2.2430   15.1710   28.7420 N.2   600  AMP600      0.0021
     21  C2         3.2120   15.8470   29.4260 C.3   600  AMP600      0.5254
     22  N3         2.8800   16.7570   30.3760 N.2   600  AMP600     -0.0055
     23  C4         1.5510   17.0080   30.6520 C.2   600  AMP600      0.3518
@<TRIPOS>BOND
     1    19    18    1
     2    20    18    2
     3    20    21    1
     4    18    17    1
     5    21    22    1
     6    17    16    2
     7    17    23    1
     8    16    15    1
     9    22    23    2
    10    23    14    1
    11    15    14    1
    12    14    13    1
    13    10     9    1
    14     9    11    1
    15     9     7    1
    16    11    12    1
    17    11    13    1
    18    13     8    1
    19     7     6    1
    20     7     8    1
    21     6     5    1
    22     5     1    1
    23     1     2    2
    24     1     4    1
    25     1     3    1
