@<TRIPOS>MOLECULE
1md9_DBH_A_1.pdb
 11 11 0 0 0
SMALL
GASTEIGER

@<TRIPOS>ATOM
      1  O17       -2.6790   18.9960   33.3950 O.co2 601  DBH601     -0.2404
      2  C21       -4.0750   19.1830   33.1440 C.2   601  DBH601      0.3910
      3  O9        -4.6980   19.8830   33.9180 O.co2 601  DBH601     -0.2404
      4  C18       -4.8310   18.5570   31.9740 C.ar  601  DBH601      0.1218
      5  C15       -4.4440   17.2940   31.4510 C.ar  601  DBH601      0.0100
      6  C12       -5.1490   16.7120   30.3580 C.ar  601  DBH601      0.0037
      7  C3        -5.9330   19.2330   31.3780 C.ar  601  DBH601      0.2405
      8  O3        -6.3510   20.4930   31.8580 O.3   601  DBH601     -0.2829
      9  C6        -6.6370   18.6430   30.2910 C.ar  601  DBH601      0.2345
     10  C9        -6.2450   17.4020   29.7890 C.ar  601  DBH601      0.0454
     11  O6        -7.7260   19.3020   29.7030 O.3   601  DBH601     -0.2831
@<TRIPOS>BOND
     1    11     9    1
     2    10     9   ar
     3    10     6   ar
     4     9     7   ar
     5     6     5   ar
     6     7     8    1
     7     7     4   ar
     8     5     4   ar
     9     4     2    1
    10     2     1   ar
    11     2     3   ar
