@<TRIPOS>MOLECULE
1mdb_AMP_A_1.pdb
 23 25 0 0 0
SMALL
GASTEIGER

@<TRIPOS>ATOM
      1  P         -3.6550   20.8700   34.7240 P.3   600  AMP600      0.5327
      2  O1P       -4.2520   22.2520   34.6920 O.3   600  AMP600     -0.1145
      3  O2P       -3.6440   20.2320   36.0730 O.3   600  AMP600     -0.1145
      4  O3P       -4.2580   19.9670   33.6790 O.2   600  AMP600     -0.2224
      5  O5'       -2.0380   20.9930   34.4010 O.3   600  AMP600     -0.2675
      6  C5'       -1.5240   21.2300   33.0590 C.3   600  AMP600      0.1860
      7  C4'       -0.0500   20.8100   32.9920 C.3   600  AMP600      0.1823
      8  O4'       -0.0520   19.4110   33.2020 O.3   600  AMP600     -0.3135
      9  C3'        0.6100   20.9710   31.6540 C.3   600  AMP600      0.2184
     10  O3'        1.1150   22.2900   31.4610 O.3   600  AMP600     -0.2174
     11  C2'        1.6840   19.8910   31.6860 C.3   600  AMP600      0.2570
     12  O2'        2.8920   20.3620   32.3220 O.3   600  AMP600     -0.2130
     13  C1'        0.9840   18.7960   32.4510 C.3   600  AMP600      0.3186
     14  N9         0.3890   17.7090   31.3030 N.pl3 600  AMP600     -0.1439
     15  C8        -0.9280   17.4710   31.1030 C.3   600  AMP600      0.3377
     16  N7        -1.1230   16.5450   30.1680 N.2   600  AMP600     -0.2095
     17  C5         0.0980   16.2120   29.7900 C.2   600  AMP600      0.2526
     18  C6         0.4180   15.2570   28.8310 C.2   600  AMP600      0.4393
     19  N6        -0.5030   14.5480   28.1790 N.pl3 600  AMP600      0.2180
     20  N1         1.7590   15.0700   28.5940 N.2   600  AMP600      0.0021
     21  C2         2.7330   15.7680   29.2450 C.3   600  AMP600      0.5254
     22  N3         2.4180   16.6830   30.1720 N.2   600  AMP600     -0.0055
     23  C4         1.0910   16.9230   30.4650 C.2   600  AMP600      0.3518
@<TRIPOS>BOND
     1    19    18    1
     2    20    18    2
     3    20    21    1
     4    18    17    1
     5    21    22    1
     6    17    16    2
     7    17    23    1
     8    16    15    1
     9    22    23    2
    10    23    14    1
    11    15    14    1
    12    14    13    1
    13    10     9    1
    14     9    11    1
    15     9     7    1
    16    11    12    1
    17    11    13    1
    18    13     8    1
    19     7     6    1
    20     7     8    1
    21     6     5    1
    22     4     1    2
    23     5     1    1
    24     2     1    1
    25     1     3    1
