@<TRIPOS>MOLECULE
1mdb_DBH_A_1.pdb
 10 10 0 0 0
SMALL
GASTEIGER

@<TRIPOS>ATOM
      1  C21       -4.2010   18.9370   33.0950 C.3   601  DBH601      0.2119
      2  O9        -3.1720   18.2390   33.5940 O.3   601  DBH601     -0.2151
      3  C18       -5.0130   18.4690   31.9430 C.ar  601  DBH601      0.0528
      4  C15       -4.7550   17.1900   31.3650 C.ar  601  DBH601      0.0016
      5  C12       -5.5040   16.7400   30.2580 C.ar  601  DBH601      0.0032
      6  C3        -6.0410   19.3010   31.3960 C.ar  601  DBH601      0.2327
      7  O3        -6.3480   20.5710   31.9230 O.3   601  DBH601     -0.2834
      8  C6        -6.7850   18.8470   30.2890 C.ar  601  DBH601      0.2340
      9  C9        -6.5240   17.5790   29.7160 C.ar  601  DBH601      0.0454
     10  O6        -7.7700   19.6460   29.7550 O.3   601  DBH601     -0.2832
@<TRIPOS>BOND
     1     9     5   ar
     2     9     8   ar
     3    10     8    1
     4     5     4   ar
     5     8     6   ar
     6     4     3   ar
     7     6     7    1
     8     6     3   ar
     9     3     1    1
    10     1     2    1
