@<TRIPOS>MOLECULE
1mdl_RMN_A_1.pdb
 11 11 0 0 0
SMALL
GASTEIGER

@<TRIPOS>ATOM
      1  C1        36.7150    2.1570   17.6590 C.ar  398  RMN398      0.0188
      2  C2        38.0530    1.9740   17.3430 C.ar  398  RMN398     -0.0013
      3  C3        38.9540    2.9950   17.5560 C.ar  398  RMN398     -0.0002
      4  C4        38.5290    4.2090   18.0750 C.ar  398  RMN398     -0.0000
      5  C5        37.2020    4.4080   18.4100 C.ar  398  RMN398     -0.0002
      6  C6        36.3020    3.3790   18.2010 C.ar  398  RMN398     -0.0013
      7  C7        35.6670    1.0340   17.4160 C.3   398  RMN398      0.2763
      8  C10       34.6860    0.9550   18.5790 C.2   398  RMN398      0.3989
      9  O8        36.2600   -0.2640   17.0940 O.3   398  RMN398     -0.2060
     10  O11       34.0220    1.9480   18.7300 O.co2 398  RMN398     -0.2424
     11  O12       34.6420   -0.0320   19.2850 O.co2 398  RMN398     -0.2424
@<TRIPOS>BOND
     1     9     7    1
     2     2     3   ar
     3     2     1   ar
     4     7     1    1
     5     7     8    1
     6     3     4   ar
     7     1     6   ar
     8     4     5   ar
     9     6     5   ar
    10     8    10   ar
    11     8    11   ar
