@<TRIPOS>MOLECULE
1mdl_SMN_A_1.pdb
 11 11 0 0 0
SMALL
GASTEIGER

@<TRIPOS>ATOM
      1  C1        30.9900    4.4120   17.1630 C.ar  399  SMN399      0.0188
      2  C2        32.1080    5.0460   17.7140 C.ar  399  SMN399     -0.0013
      3  C3        33.3790    4.9040   17.1770 C.ar  399  SMN399     -0.0002
      4  C4        33.5240    4.1960   16.0110 C.ar  399  SMN399     -0.0000
      5  C5        32.4330    3.5570   15.4510 C.ar  399  SMN399     -0.0002
      6  C6        31.1570    3.6340   16.0460 C.ar  399  SMN399     -0.0013
      7  C7        29.5990    4.4870   17.8540 C.3   399  SMN399      0.2763
      8  C10       29.0730    5.9340   18.0330 C.2   399  SMN399      0.3989
      9  O8        28.6710    3.6850   17.0860 O.3   399  SMN399     -0.2060
     10  O11       27.9450    6.1880   17.6550 O.co2 399  SMN399     -0.2424
     11  O12       29.7570    6.8030   18.5550 O.co2 399  SMN399     -0.2424
@<TRIPOS>BOND
     1     5     4   ar
     2     5     6   ar
     3     4     3   ar
     4     6     1   ar
     5     9     7    1
     6     1     2   ar
     7     1     7    1
     8     3     2   ar
     9    10     8   ar
    10     7     8    1
    11     8    11   ar
