@<TRIPOS>MOLECULE
1mdn_HEM_A_1.pdb
 43 50 0 0 0
SMALL
GASTEIGER

@<TRIPOS>ATOM
      1 FE         41.9260   25.9930   49.0710 Fe    154  HEM154      0.0000
      2  CHA       40.5520   23.3550   50.6990 C.2   154  HEM154      0.0000
      3  CHB       43.6910   23.9210   47.0700 C.2   154  HEM154      0.0000
      4  CHC       43.4420   28.7260   47.6340 C.2   154  HEM154      0.0000
      5  CHD       40.6120   28.1030   51.4910 C.2   154  HEM154      0.0000
      6  NA        42.1200   24.0420   48.9220 N.ar  154  HEM154      0.0000
      7  C1A       41.3970   23.0700   49.6420 C.ar  154  HEM154      0.0000
      8  C2A       41.7010   21.7660   49.1270 C.ar  154  HEM154      0.0000
      9  C3A       42.5430   21.9150   48.1100 C.ar  154  HEM154      0.0000
     10  C4A       42.8520   23.3070   47.9830 C.ar  154  HEM154      0.0000
     11  CMA       43.1940   20.7660   47.2900 C.3   154  HEM154      0.0000
     12  CAA       41.1100   20.4130   49.6730 C.3   154  HEM154      0.0000
     13  CBA       40.0460   19.8840   48.6640 C.3   154  HEM154      0.0000
     14  CGA       38.9600   20.8840   48.3040 C.2   154  HEM154      0.0000
     15  O1A       38.2080   21.3520   49.1850 O.co2 154  HEM154      0.0000
     16  O2A       38.8710   21.2500   47.1160 O.co2 154  HEM154      0.0000
     17  NB        43.3240   26.2770   47.6320 N.2   154  HEM154      0.0000
     18  C1B       43.8660   25.2710   46.8760 C.2   154  HEM154      0.0000
     19  C2B       44.7230   25.9050   45.8600 C.2   154  HEM154      0.0000
     20  C3B       44.6140   27.2140   46.0000 C.2   154  HEM154      0.0000
     21  C4B       43.7500   27.4590   47.1900 C.2   154  HEM154      0.0000
     22  CMB       45.4880   25.0490   44.8130 C.3   154  HEM154      0.0000
     23  CAB       45.3170   28.3300   45.2130 C.2   154  HEM154      0.0000
     24  CBB       46.6190   28.1800   44.8360 C.2   154  HEM154      0.0000
     25  NC        41.9800   27.9680   49.4510 N.ar  154  HEM154      0.0000
     26  C1C       42.7110   28.9400   48.7690 C.ar  154  HEM154      0.0000
     27  C2C       42.6160   30.2170   49.4430 C.ar  154  HEM154      0.0000
     28  C3C       41.8410   30.0350   50.5240 C.ar  154  HEM154      0.0000
     29  C4C       41.4360   28.6480   50.5330 C.ar  154  HEM154      0.0000
     30  CMC       43.3060   31.5070   48.9650 C.3   154  HEM154      0.0000
     31  CAC       41.4060   31.0420   51.6020 C.2   154  HEM154      0.0000
     32  CBC       41.9800   32.1920   51.8510 C.2   154  HEM154      0.0000
     33  ND        40.7670   25.7840   50.7370 N.2   154  HEM154      0.0000
     34  C1D       40.3830   26.7700   51.6160 C.2   154  HEM154      0.0000
     35  C2D       39.6080   26.1620   52.7100 C.2   154  HEM154      0.0000
     36  C3D       39.5850   24.8670   52.4760 C.2   154  HEM154      0.0000
     37  C4D       40.3390   24.5970   51.2600 C.2   154  HEM154      0.0000
     38  CMD       39.0050   26.9890   53.8520 C.3   154  HEM154      0.0000
     39  CAD       38.9740   23.7200   53.3400 C.3   154  HEM154      0.0000
     40  CBD       40.0080   23.4140   54.4510 C.3   154  HEM154      0.0000
     41  CGD       39.5940   22.5050   55.5810 C.2   154  HEM154      0.0000
     42  O1D       39.0080   22.9810   56.5680 O.co2 154  HEM154      0.0000
     43  O2D       39.9240   21.3080   55.4720 O.co2 154  HEM154      0.0000
@<TRIPOS>BOND
     1    22    19    1
     2    24    23    2
     3    23    20    1
     4    19    20    2
     5    19    18    1
     6    20    21    1
     7    18     3    1
     8    18    17    2
     9     3    10    2
    10    16    14   ar
    11    21    17    1
    12    21     4    2
    13    11     9    1
    14    17     1    1
    15     4    26    1
    16    10     9   ar
    17    10     6   ar
    18     9     8   ar
    19    14    13    1
    20    14    15   ar
    21    13    12    1
    22    26    27   ar
    23    26    25   ar
    24     6     1    1
    25     6     7   ar
    26    30    27    1
    27     1    25    1
    28     1    33    1
    29     8     7   ar
    30     8    12    1
    31    27    28   ar
    32    25    29   ar
    33     7     2    2
    34    28    29   ar
    35    28    31    1
    36    29     5    1
    37     2    37    1
    38    33    37    2
    39    33    34    1
    40    37    36    1
    41     5    34    2
    42    31    32    2
    43    34    35    1
    44    36    35    2
    45    36    39    1
    46    35    38    1
    47    39    40    1
    48    40    41    1
    49    43    41   ar
    50    41    42   ar
