@<TRIPOS>MOLECULE
1mdo_PMP_A_1.pdb
 16 16 0 0 0
SMALL
GASTEIGER

@<TRIPOS>ATOM
      1  N1        27.8770   25.3550   15.1070 N.ar  394  PMP394     -0.2452
      2  C2        27.9580   26.3270   16.0760 C.ar  394  PMP394      0.0978
      3  C2A       27.9680   25.9040   17.5650 C.3   394  PMP394      0.0555
      4  C3        28.0270   27.6700   15.7190 C.ar  394  PMP394      0.2063
      5  O3        28.1190   28.6630   16.6610 O.3   394  PMP394     -0.2856
      6  C4        28.0050   28.0210   14.3690 C.ar  394  PMP394      0.0369
      7  C4A       28.0760   29.5290   13.9190 C.3   394  PMP394      0.1386
      8  N4A       28.5360   30.4030   14.8880 N.3   394  PMP394     -0.1261
      9  C5        27.9200   27.0250   13.4050 C.ar  394  PMP394      0.0275
     10  C6        27.8660   25.6910   13.7700 C.ar  394  PMP394      0.0965
     11  C5A       27.9140   27.4380   11.9200 C.3   394  PMP394      0.1816
     12  O4P       29.0730   28.1460   11.5180 O.3   394  PMP394     -0.2653
     13  P         29.2240   28.8020   10.0900 P.3   394  PMP394      0.5329
     14  O1P       30.7050   28.8430    9.8730 O.3   394  PMP394     -0.1145
     15  O2P       28.8090   30.2580   10.3090 O.3   394  PMP394     -0.1145
     16  O3P       28.4150   28.1170    9.1000 O.2   394  PMP394     -0.2224
@<TRIPOS>BOND
     1    16    13    2
     2    14    13    1
     3    13    15    1
     4    13    12    1
     5    12    11    1
     6    11     9    1
     7     9    10   ar
     8     9     6   ar
     9    10     1   ar
    10     7     6    1
    11     7     8    1
    12     6     4   ar
    13     1     2   ar
    14     4     2   ar
    15     4     5    1
    16     2     3    1
