@<TRIPOS>MOLECULE
1mdp_MAL_1_1.pdb
 23 24 0 0 0
SMALL
GASTEIGER

@<TRIPOS>ATOM
      1  C1        27.5960   57.8320   72.4890 C.3   371  MAL371      0.2695
      2  C2        29.0630   57.5940   72.2210 C.3   371  MAL371      0.2406
      3  C3        29.4690   58.2350   70.9080 C.3   371  MAL371      0.2198
      4  C4        28.5670   57.7630   69.7700 C.3   371  MAL371      0.2144
      5  C5        27.0940   57.9060   70.1460 C.3   371  MAL371      0.1835
      6  C6        26.1980   57.2260   69.1520 C.3   371  MAL371      0.2142
      7  O1        27.4080   59.2290   72.6130 O.3   371  MAL371     -0.3257
      8  O2        29.8260   58.1400   73.2790 O.3   371  MAL371     -0.2149
      9  O3        30.8130   57.9110   70.5640 O.3   371  MAL371     -0.2174
     10  O4        28.7750   58.5420   68.6160 O.3   371  MAL371     -0.2176
     11  O5        26.8310   57.3030   71.4210 O.3   371  MAL371     -0.3256
     12  O6        24.8550   57.7040   69.1250 O.3   371  MAL371     -0.2176
     13  C1'       25.6220   61.6800   75.4640 C.3   371  MAL371      0.3023
     14  C2'       26.5790   60.6500   75.9580 C.3   371  MAL371      0.2433
     15  C3'       27.4720   60.1680   74.8290 C.3   371  MAL371      0.2168
     16  C4'       26.5790   59.6640   73.7010 C.3   371  MAL371      0.1804
     17  C5'       25.7100   60.8120   73.1820 C.3   371  MAL371      0.1804
     18  C6'       24.6350   60.3700   72.2170 C.3   371  MAL371      0.2141
     19  O1'       26.3130   62.8020   75.0990 O.3   371  MAL371     -0.1869
     20  O2'       27.3830   61.1680   77.0190 O.3   371  MAL371     -0.2148
     21  O3'       28.3430   59.1890   75.3650 O.3   371  MAL371     -0.2175
     22  O5'       25.0380   61.4410   74.2840 O.3   371  MAL371     -0.3237
     23  O6'       24.4710   61.3750   71.2140 O.3   371  MAL371     -0.2176
@<TRIPOS>BOND
     1    10     4    1
     2    12     6    1
     3     6     5    1
     4     4     5    1
     5     4     3    1
     6     5    11    1
     7     9     3    1
     8     3     2    1
     9    23    18    1
    10    11     1    1
    11    18    17    1
    12     2     1    1
    13     2     8    1
    14     1     7    1
    15     7    16    1
    16    17    16    1
    17    17    22    1
    18    16    15    1
    19    22    13    1
    20    15    21    1
    21    15    14    1
    22    19    13    1
    23    13    14    1
    24    14    20    1
