@<TRIPOS>MOLECULE
1mdq_MAL_A_1.pdb
 23 24 0 0 0
SMALL
GASTEIGER

@<TRIPOS>ATOM
      1  C1        11.0550   14.9380   40.5060 C.3   372  MAL372      0.2695
      2  C2        10.4380   15.4380   41.7980 C.3   372  MAL372      0.2406
      3  C3        10.0740   16.9050   41.7110 C.3   372  MAL372      0.2198
      4  C4        11.2710   17.7390   41.2580 C.3   372  MAL372      0.2144
      5  C5        11.8540   17.1380   40.0070 C.3   372  MAL372      0.1835
      6  C6        13.1590   17.7710   39.6360 C.3   372  MAL372      0.2142
      7  O1        10.0210   15.0180   39.5340 O.3   372  MAL372     -0.3257
      8  O2         9.3040   14.6470   42.1070 O.3   372  MAL372     -0.2149
      9  O3         9.6250   17.4160   42.9530 O.3   372  MAL372     -0.2174
     10  O4        10.9220   19.0690   40.9590 O.3   372  MAL372     -0.2176
     11  O5        12.1280   15.7620   40.1430 O.3   372  MAL372     -0.3256
     12  O6        13.4290   17.5090   38.2480 O.3   372  MAL372     -0.2176
     13  C1'        7.5930   13.0280   37.2000 C.3   372  MAL372      0.3023
     14  C2'        8.1730   12.1280   38.3010 C.3   372  MAL372      0.2433
     15  C3'        8.6940   13.1100   39.2690 C.3   372  MAL372      0.2168
     16  C4'        9.8550   13.8870   38.6810 C.3   372  MAL372      0.1804
     17  C5'        9.5410   14.4100   37.2690 C.3   372  MAL372      0.1804
     18  C6'       10.7780   14.9140   36.5960 C.3   372  MAL372      0.2141
     19  O1'        7.7380   12.2480   36.1790 O.3   372  MAL372     -0.1869
     20  O2'        7.1650   11.2890   38.7700 O.3   372  MAL372     -0.2148
     21  O3'        9.0660   12.4220   40.4550 O.3   372  MAL372     -0.2175
     22  O5'        9.1100   13.3240   36.4470 O.3   372  MAL372     -0.3237
     23  O6'       10.4440   15.8540   35.6320 O.3   372  MAL372     -0.2176
@<TRIPOS>BOND
     1    23    18    1
     2    19    13    1
     3    22    13    1
     4    22    17    1
     5    18    17    1
     6    13    14    1
     7    17    16    1
     8    12     6    1
     9    14    20    1
    10    14    15    1
    11    16    15    1
    12    16     7    1
    13    15    21    1
    14     7     1    1
    15     6     5    1
    16     5    11    1
    17     5     4    1
    18    11     1    1
    19     1     2    1
    20    10     4    1
    21     4     3    1
    22     3     2    1
    23     3     9    1
    24     2     8    1
