@<TRIPOS>MOLECULE
1mdr_APG_A_1.pdb
 12 12 0 0 0
SMALL
GASTEIGER

@<TRIPOS>ATOM
      1  C1        33.4120    5.2420   17.1690 C.ar  399  APG399     -0.0002
      2  C2        32.1300    5.3790   17.7030 C.ar  399  APG399     -0.0014
      3  C3        31.1040    4.4880   17.3700 C.ar  399  APG399      0.0155
      4  C4        31.3910    3.4530   16.4820 C.ar  399  APG399     -0.0014
      5  C5        32.6690    3.3120   15.9460 C.ar  399  APG399     -0.0002
      6  C6        33.6780    4.2110   16.2940 C.ar  399  APG399     -0.0000
      7  C12       29.7070    4.4910   18.0670 C.3   399  APG399      0.2376
      8  O17       28.7360    3.6290   17.4160 O.3   399  APG399     -0.2096
      9  C13       29.1520    5.9060   18.3250 C.2   399  APG399      0.3955
     10  C14       29.8980    3.9330   19.5000 C.3   399  APG399      0.0494
     11  O14       29.8250    6.7750   18.8100 O.co2 399  APG399     -0.2426
     12  O15       27.9890    6.1510   18.0670 O.co2 399  APG399     -0.2426
@<TRIPOS>BOND
     1     5     6   ar
     2     5     4   ar
     3     6     1   ar
     4     4     3   ar
     5     1     2   ar
     6     3     2   ar
     7     3     7    1
     8     8     7    1
     9     7     9    1
    10     7    10    1
    11    12     9   ar
    12     9    11   ar
