@<TRIPOS>MOLECULE
1mdt_APU_A_1.pdb
 43 47 0 0 0
SMALL
GASTEIGER

@<TRIPOS>ATOM
      1  PA       -12.2570   16.6780   29.7430 P.3   901  APU901      0.2141
      2  O1A      -12.0490   17.6930   28.6640 O.2   901  APU901     -0.5172
      3  O2A      -11.2000   15.6800   30.1010 O.3   901  APU901     -0.4373
      4  O5B      -14.5770   12.1810   31.1690 O.3   901  APU901     -0.2176
      5  C5B      -13.1800   12.3880   31.0130 C.3   901  APU901      0.2142
      6  C4B      -12.9930   13.3900   29.8860 C.3   901  APU901      0.1822
      7  O4B      -13.1590   12.7890   28.5620 O.3   901  APU901     -0.3135
      8  C3B      -14.0050   14.5530   29.9330 C.3   901  APU901      0.1885
      9  O3B      -13.5470   15.8160   29.3290 O.3   901  APU901     -0.3111
     10  C2B      -15.1040   14.0860   28.9640 C.3   901  APU901      0.2541
     11  O2B      -15.9230   15.1980   28.4550 O.3   901  APU901     -0.2131
     12  C1B      -14.2760   13.3960   27.8340 C.3   901  APU901      0.3185
     13  N9A      -15.1000   12.4180   26.9840 N.pl3 901  APU901     -0.1439
     14  C8A      -15.2120   12.4500   25.6040 C.3   901  APU901      0.3377
     15  N7A      -15.8090   11.4160   25.1190 N.2   901  APU901     -0.2095
     16  C5A      -16.1680   10.6290   26.2220 C.2   901  APU901      0.2526
     17  C6A      -16.7750    9.3890   26.3170 C.2   901  APU901      0.4393
     18  N6A      -17.3920    8.8300   25.2470 N.pl3 901  APU901      0.2180
     19  N1A      -16.9330    8.8890   27.5560 N.2   901  APU901      0.0021
     20  C2A      -16.5940    9.5550   28.6160 C.3   901  APU901      0.5254
     21  N3A      -15.9750   10.7120   28.6220 N.2   901  APU901     -0.0055
     22  C4A      -15.7780   11.2080   27.3760 C.2   901  APU901      0.3518
     23  N1U      -15.8760   17.2400   34.0120 N.am  901  APU901     -0.1766
     24  C2U      -16.6780   17.2410   35.0990 C.1   901  APU901      0.2845
     25  O2U      -16.1570   17.3270   36.2200 O.2   901  APU901     -0.1918
     26  N3U      -18.0710   17.3990   34.8370 N.2   901  APU901     -0.2452
     27  C4U      -18.6500   17.6320   33.6470 C.1   901  APU901      0.2182
     28  O4U      -19.7710   18.1060   33.6770 O.2   901  APU901     -0.2085
     29  C5U      -17.7540   17.6090   32.5370 C.2   901  APU901      0.1242
     30  C6U      -16.4290   17.4310   32.7360 C.2   901  APU901      0.0929
     31  C1D      -14.4390   17.0960   34.3550 C.3   901  APU901      0.2400
     32  C2D      -13.7530   15.9010   33.8370 C.3   901  APU901      0.2293
     33  O2D      -13.6640   14.7600   34.6730 O.3   901  APU901     -0.2158
     34  C3D      -12.2870   16.4230   33.6660 C.3   901  APU901      0.1902
     35  O3D      -11.4480   16.2970   34.8040 O.3   901  APU901     -0.2674
     36  C4D      -12.3890   17.9270   33.3900 C.3   901  APU901      0.1773
     37  O4D      -13.7980   18.1830   33.6750 O.3   901  APU901     -0.3321
     38  O5D      -12.7080   17.4980   31.0210 O.3   901  APU901     -0.3114
     39  C5D      -11.9110   18.2670   31.8970 C.3   901  APU901      0.1812
     40  PU        -9.8120   16.2350   34.7650 P.3   901  APU901      0.5327
     41  O1X       -9.5460   17.3750   33.6630 O.2   901  APU901     -0.2224
     42  O2X       -9.4170   14.9440   34.1980 O.3   901  APU901     -0.1145
     43  O3X       -9.3610   16.5940   36.1430 O.3   901  APU901     -0.1145
@<TRIPOS>BOND
     1    15    14    1
     2    15    16    2
     3    18    17    1
     4    14    13    1
     5    16    17    1
     6    16    22    1
     7    17    19    2
     8    13    22    1
     9    13    12    1
    10    22    21    2
    11    19    20    1
    12    12     7    1
    13    12    10    1
    14    11    10    1
    15     7     6    1
    16    20    21    1
    17     2     1    2
    18    10     8    1
    19     9     1    1
    20     9     8    1
    21     1     3    1
    22     1    38    1
    23     6     8    1
    24     6     5    1
    25     5     4    1
    26    38    39    1
    27    39    36    1
    28    29    30    2
    29    29    27    1
    30    30    23    1
    31    36    34    1
    32    36    37    1
    33    27    28    2
    34    27    26    2
    35    41    40    2
    36    34    32    1
    37    34    35    1
    38    37    31    1
    39    32    31    1
    40    32    33    1
    41    23    31    1
    42    23    24   am
    43    42    40    1
    44    40    35    1
    45    40    43    1
    46    26    24    2
    47    24    25    2
