@<TRIPOS>MOLECULE
1mdu_ATP_B_1.pdb
 31 33 0 0 0
SMALL
GASTEIGER

@<TRIPOS>ATOM
      1  PG        19.4020   -2.0140   -5.7830 P.3   400  ATP400      0.5373
      2  O1G       19.3870   -0.7310   -6.5280 O.2   400  ATP400     -0.2221
      3  O2G       20.6800   -2.7700   -5.8480 O.3   400  ATP400     -0.1143
      4  O3G       18.9500   -1.7940   -4.3930 O.3   400  ATP400     -0.1143
      5  PB        16.7490   -3.0690   -6.2150 P.3   400  ATP400      0.2277
      6  O1B       16.0160   -3.7110   -7.2930 O.2   400  ATP400     -0.5168
      7  O2B       16.0690   -2.2410   -5.2470 O.3   400  ATP400     -0.4368
      8  O3B       18.3170   -2.9730   -6.4160 O.3   400  ATP400     -0.2258
      9  PA        15.8230   -5.2060   -4.3780 P.3   400  ATP400      0.2189
     10  O1A       16.2610   -5.2640   -3.0250 O.3   400  ATP400     -0.4371
     11  O2A       14.4630   -5.5780   -4.7840 O.2   400  ATP400     -0.5170
     12  O3A       16.7770   -4.5650   -5.4710 O.3   400  ATP400     -0.2700
     13  O5'       16.4930   -6.5250   -4.4600 O.3   400  ATP400     -0.3112
     14  C5'       16.8760   -7.5810   -5.1420 C.3   400  ATP400      0.1813
     15  C4'       17.8630   -8.6850   -5.2890 C.3   400  ATP400      0.1821
     16  O4'       17.8410   -9.5850   -4.1790 O.3   400  ATP400     -0.3135
     17  C3'       17.4480   -9.3550   -6.5590 C.3   400  ATP400      0.2184
     18  O3'       18.4860   -9.2660   -7.5170 O.3   400  ATP400     -0.2174
     19  C2'       17.1550  -10.7920   -6.1620 C.3   400  ATP400      0.2570
     20  O2'       17.8410  -11.7230   -6.9680 O.3   400  ATP400     -0.2130
     21  C1'       17.5560  -10.9090   -4.7010 C.3   400  ATP400      0.3186
     22  N9        16.6540  -11.6640   -3.8800 N.pl3 400  ATP400     -0.1439
     23  C8        15.2990  -11.5840   -3.6920 C.3   400  ATP400      0.3377
     24  N7        14.8510  -12.4550   -2.8800 N.2   400  ATP400     -0.2095
     25  C5        15.9770  -13.1540   -2.5130 C.2   400  ATP400      0.2526
     26  C6        16.2000  -14.2830   -1.6340 C.2   400  ATP400      0.4393
     27  N6        15.2010  -14.8610   -0.9820 N.pl3 400  ATP400      0.2180
     28  N1        17.4960  -14.7670   -1.4760 N.2   400  ATP400      0.0021
     29  C2        18.5320  -14.1860   -2.1450 C.3   400  ATP400      0.5254
     30  N3        18.4330  -13.1270   -2.9990 N.2   400  ATP400     -0.0055
     31  C4        17.0800  -12.6700   -3.1230 C.2   400  ATP400      0.3518
@<TRIPOS>BOND
     1    18    17    1
     2     6     5    2
     3    20    19    1
     4    17    19    1
     5    17    15    1
     6     2     1    2
     7     8     5    1
     8     8     1    1
     9     5    12    1
    10     5     7    1
    11    19    21    1
    12     3     1    1
    13     1     4    1
    14    12     9    1
    15    15    14    1
    16    15    16    1
    17    14    13    1
    18    11     9    2
    19    21    16    1
    20    21    22    1
    21    13     9    1
    22     9    10    1
    23    22    23    1
    24    22    31    1
    25    23    24    1
    26    31    30    2
    27    31    25    1
    28    30    29    1
    29    24    25    2
    30    25    26    1
    31    29    28    1
    32    26    28    2
    33    26    27    1
