@<TRIPOS>MOLECULE
1mdv_HEM_A_1.pdb
 43 50 0 0 0
SMALL
GASTEIGER

@<TRIPOS>ATOM
      1  CHA       -2.2530   27.3730    5.1820 C.2   110  HEM110      0.0000
      2  CHB       -6.7800   28.7140    4.1100 C.2   110  HEM110      0.0000
      3  CHC       -5.2010   33.2270    3.6470 C.2   110  HEM110      0.0000
      4  CHD       -0.7290   31.5100    3.2490 C.2   110  HEM110      0.0000
      5  C1A       -3.6470   27.3610    5.0560 C.2   110  HEM110      0.0000
      6  C2A       -4.5020   26.2100    5.2840 C.2   110  HEM110      0.0000
      7  C3A       -5.7410   26.5320    4.8600 C.2   110  HEM110      0.0000
      8  C4A       -5.6870   27.9370    4.4670 C.2   110  HEM110      0.0000
      9  CMA       -6.9170   25.5720    4.7610 C.3   110  HEM110      0.0000
     10  CAA       -4.1030   24.9370    6.0040 C.3   110  HEM110      0.0000
     11  CBA       -3.4360   23.9170    5.1050 C.3   110  HEM110      0.0000
     12  CGA       -2.8220   22.7750    5.8910 C.2   110  HEM110      0.0000
     13  O1A       -1.5920   22.7970    6.1100 O.co2 110  HEM110      0.0000
     14  O2A       -3.5690   21.8630    6.3010 O.co2 110  HEM110      0.0000
     15  C1B       -6.7350   30.0600    3.7870 C.ar  110  HEM110      0.0000
     16  C2B       -7.9190   30.8900    3.6240 C.ar  110  HEM110      0.0000
     17  C3B       -7.5090   32.1720    3.6280 C.ar  110  HEM110      0.0000
     18  C4B       -6.0420   32.1280    3.7360 C.ar  110  HEM110      0.0000
     19  CMB       -9.3460   30.4150    3.4500 C.3   110  HEM110      0.0000
     20  CAB       -8.3730   33.4350    3.5330 C.3   110  HEM110      0.0000
     21  CBB       -9.2480   33.8550    4.7170 C.3   110  HEM110      0.0000
     22  C1C       -3.8180   33.1740    3.5200 C.2   110  HEM110      0.0000
     23  C2C       -3.0030   34.2780    3.0220 C.2   110  HEM110      0.0000
     24  C3C       -1.7330   33.7800    2.8530 C.2   110  HEM110      0.0000
     25  C4C       -1.8050   32.3780    3.2490 C.2   110  HEM110      0.0000
     26  CMC       -3.5380   35.6530    2.6080 C.3   110  HEM110      0.0000
     27  CAC       -0.4890   34.5320    2.3360 C.3   110  HEM110      0.0000
     28  CBC       -0.0130   35.7260    3.1740 C.3   110  HEM110      0.0000
     29  C1D       -0.7460   30.1900    3.6830 C.ar  110  HEM110      0.0000
     30  C2D        0.4450   29.3900    3.9280 C.ar  110  HEM110      0.0000
     31  C3D        0.0110   28.3040    4.6120 C.ar  110  HEM110      0.0000
     32  C4D       -1.4200   28.3930    4.7360 C.ar  110  HEM110      0.0000
     33  CMD        1.9040   29.7350    3.5930 C.3   110  HEM110      0.0000
     34  CAD        0.9070   27.2460    5.2340 C.3   110  HEM110      0.0000
     35  CBD        0.9710   25.9720    4.4150 C.3   110  HEM110      0.0000
     36  CGD        2.0350   25.0060    4.9110 C.2   110  HEM110      0.0000
     37  O1D        2.0550   24.6930    6.1250 O.co2 110  HEM110      0.0000
     38  O2D        2.8530   24.5610    4.0770 O.co2 110  HEM110      0.0000
     39  NA        -4.3930   28.4340    4.5780 N.2   110  HEM110      0.0000
     40  NB        -5.5840   30.8260    3.8420 N.ar  110  HEM110      0.0000
     41  NC        -3.0830   32.0160    3.6320 N.2   110  HEM110      0.0000
     42  ND        -1.8880   29.5650    4.1860 N.ar  110  HEM110      0.0000
     43 FE         -3.7430   30.2310    4.1710 Fe    110  HEM110      0.0000
@<TRIPOS>BOND
     1    27    24    1
     2    27    28    1
     3    26    23    1
     4    24    23    2
     5    24    25    1
     6    23    22    1
     7     4    25    1
     8     4    29    2
     9    25    41    2
    10    19    16    1
    11    22    41    1
    12    22     3    2
    13    20    17    1
    14    20    21    1
    15    33    30    1
    16    16    17   ar
    17    16    15   ar
    18    17    18   ar
    19    41    43    1
    20     3    18    1
    21    29    30   ar
    22    29    42   ar
    23    18    40   ar
    24    15    40   ar
    25    15     2    1
    26    40    43    1
    27    30    31   ar
    28    38    36   ar
    29     2     8    2
    30    43    42    1
    31    43    39    1
    32    42    32   ar
    33    35    36    1
    34    35    34    1
    35     8    39    1
    36     8     7    1
    37    39     5    2
    38    31    32   ar
    39    31    34    1
    40    32     1    2
    41     9     7    1
    42     7     6    2
    43    36    37   ar
    44     5     1    1
    45     5     6    1
    46    11    12    1
    47    11    10    1
    48     6    10    1
    49    12    13   ar
    50    12    14   ar
