@<TRIPOS>MOLECULE
1mdx_PLP_A_1.pdb
 15 15 0 0 0
SMALL
GASTEIGER

@<TRIPOS>ATOM
      1  N1        27.8070   25.7710   15.2460 N.ar  400  PLP400     -0.2452
      2  C2        28.0740   26.6640   16.2310 C.ar  400  PLP400      0.0978
      3  C2A       27.9510   26.2000   17.6690 C.3   400  PLP400      0.0555
      4  C3        28.4570   27.9680   15.9040 C.ar  400  PLP400      0.2049
      5  O3        28.7040   28.8970   16.8590 O.3   400  PLP400     -0.2857
      6  C4        28.5610   28.3740   14.5320 C.ar  400  PLP400      0.0182
      7  C4A       29.0200   29.8190   14.2720 C.3   400  PLP400      0.0342
      8  C5        28.2670   27.4260   13.5520 C.ar  400  PLP400      0.0261
      9  C6        27.8930   26.1060   13.9590 C.ar  400  PLP400      0.0965
     10  C5A       28.2660   27.6390   12.0600 C.3   400  PLP400      0.1815
     11  O4P       29.3670   28.2650   11.5520 O.3   400  PLP400     -0.2653
     12  P         29.4740   28.9040   10.0650 P.3   400  PLP400      0.5329
     13  O1P       30.9150   28.8910    9.6670 O.3   400  PLP400     -0.1145
     14  O2P       28.9890   30.4560   10.3260 O.3   400  PLP400     -0.1145
     15  O3P       28.5550   28.1580    9.0680 O.2   400  PLP400     -0.2224
@<TRIPOS>BOND
     1    15    12    2
     2    13    12    1
     3    12    14    1
     4    12    11    1
     5    11    10    1
     6    10     8    1
     7     8     9   ar
     8     8     6   ar
     9     9     1   ar
    10     7     6    1
    11     6     4   ar
    12     1     2   ar
    13     4     2   ar
    14     4     5    1
    15     2     3    1
