@<TRIPOS>MOLECULE
1mdx_AKG_A_1.pdb
 10 9 0 0 0
SMALL
GASTEIGER

@<TRIPOS>ATOM
      1  C1        25.4710   33.8830   13.8610 C.2   401  AKG401      0.4219
      2  O1        24.2050   34.2930   14.1870 O.co2 401  AKG401     -0.2373
      3  O2        26.2810   33.7150   14.7690 O.co2 401  AKG401     -0.2373
      4  C2        25.8030   33.5810   12.4870 C.2   401  AKG401      0.2526
      5  O5        25.7130   32.3970   12.1700 O.2   401  AKG401     -0.2843
      6  C3        26.1930   34.6480   11.4820 C.3   401  AKG401      0.0881
      7  C4        26.2940   34.1500   10.0540 C.3   401  AKG401      0.1224
      8  C5        26.7530   35.1450    9.0060 C.2   401  AKG401      0.3653
      9  O3        26.9020   36.4740    9.2830 O.co2 401  AKG401     -0.2456
     10  O4        27.0000   34.7890    7.8560 O.co2 401  AKG401     -0.2456
@<TRIPOS>BOND
     1    10     8   ar
     2     8     9   ar
     3     8     7    1
     4     7     6    1
     5     6     4    1
     6     5     4    2
     7     4     1    1
     8     1     2   ar
     9     1     3   ar
