@<TRIPOS>MOLECULE
1mdz_PLP_A_1.pdb
 15 15 0 0 0
SMALL
GASTEIGER

@<TRIPOS>ATOM
      1  N1        27.7040   25.5170   15.0760 N.ar  401  PLP401     -0.2452
      2  C2        27.8690   26.4090   16.0840 C.ar  401  PLP401      0.0978
      3  C2A       27.7060   25.9140   17.5280 C.3   401  PLP401      0.0555
      4  C3        28.1580   27.7010   15.8020 C.ar  401  PLP401      0.2049
      5  O3        28.3050   28.5930   16.8210 O.3   401  PLP401     -0.2857
      6  C4        28.2920   28.1280   14.4830 C.ar  401  PLP401      0.0182
      7  C4A       28.6340   29.6080   14.2090 C.3   401  PLP401      0.0342
      8  C5        28.0830   27.1590   13.4770 C.ar  401  PLP401      0.0261
      9  C6        27.8310   25.8790   13.7980 C.ar  401  PLP401      0.0965
     10  C5A       28.1940   27.4140   11.9690 C.3   401  PLP401      0.1815
     11  O4P       29.2460   28.2120   11.4960 O.3   401  PLP401     -0.2653
     12  P         29.3150   28.8450   10.0620 P.3   401  PLP401      0.5329
     13  O1P       30.7520   28.8840    9.7030 O.3   401  PLP401     -0.1145
     14  O2P       28.7300   30.2880   10.4130 O.3   401  PLP401     -0.1145
     15  O3P       28.4140   28.1470    9.1460 O.2   401  PLP401     -0.2224
@<TRIPOS>BOND
     1    15    12    2
     2    13    12    1
     3    12    14    1
     4    12    11    1
     5    11    10    1
     6    10     8    1
     7     8     9   ar
     8     8     6   ar
     9     9     1   ar
    10     7     6    1
    11     6     4   ar
    12     1     2   ar
    13     4     2   ar
    14     4     5    1
    15     2     3    1
