@<TRIPOS>MOLECULE
1mdz_DCS_A_1.pdb
 22 23 0 0 0
SMALL
GASTEIGER

@<TRIPOS>ATOM
      1  N1        27.9270   25.6680   14.9910 N.ar  400  DCS400     -0.2452
      2  C2        27.9230   26.5940   15.9630 C.ar  400  DCS400      0.0978
      3  C2A       27.9270   26.0690   17.3770 C.3   400  DCS400      0.0555
      4  C3        27.9070   27.9640   15.6980 C.ar  400  DCS400      0.2062
      5  O3        27.8940   28.8330   16.7710 O.3   400  DCS400     -0.2856
      6  C4        27.8960   28.4310   14.3510 C.ar  400  DCS400      0.0353
      7  C4A       27.8750   29.9060   13.9800 C.3   400  DCS400      0.1193
      8  C5        27.8950   27.4450   13.3520 C.ar  400  DCS400      0.0275
      9  C6        27.9230   26.0920   13.7210 C.ar  400  DCS400      0.0965
     10  C5A       27.8870   27.8010   11.9030 C.3   400  DCS400      0.1816
     11  O4P       29.1970   28.1860   11.5380 O.3   400  DCS400     -0.2653
     12  P         29.3950   28.8750   10.1640 P.3   400  DCS400      0.5329
     13  O1P       30.8310   28.7830    9.8080 O.3   400  DCS400     -0.1145
     14  O2P       28.9820   30.3000   10.3220 O.3   400  DCS400     -0.1145
     15  O3P       28.5810   28.1660    9.1380 O.2   400  DCS400     -0.2224
     16  N         29.0070   30.6870   14.3530 N.3   400  DCS400     -0.1949
     17  CA        29.0200   31.6420   15.2850 C.3   400  DCS400      0.2287
     18  C         27.9080   31.8980   16.2420 C.1   400  DCS400      0.1846
     19  O         27.0360   31.0830   16.4920 O.2   400  DCS400     -0.2223
     20  ND        28.2820   32.9210   17.0140 N.2   400  DCS400     -0.0082
     21  OG        29.2280   33.7040   16.3130 O.2   400  DCS400     -0.3665
     22  CB        29.9660   32.8180   15.4690 C.3   400  DCS400      0.2734
@<TRIPOS>BOND
     1    15    12    2
     2    13    12    1
     3    12    14    1
     4    12    11    1
     5    11    10    1
     6    10     8    1
     7     8     9   ar
     8     8     6   ar
     9     9     1   ar
    10     7     6    1
    11     7    16    1
    12     6     4   ar
    13    16    17    1
    14     1     2   ar
    15    17    22    1
    16    17    18    1
    17    22    21    1
    18     4     2   ar
    19     4     5    1
    20     2     3    1
    21    18    19    2
    22    18    20    2
    23    21    20    1
