@<TRIPOS>MOLECULE
1me3_P10_A_1.pdb
 35 37 0 0 0
SMALL
GASTEIGER

@<TRIPOS>ATOM
      1  C12        5.8690   11.5780    9.0670 C.2   300  P10300      0.2033
      2  C2         5.1390   10.8090    9.9830 C.3   300  P10300      0.2476
      3  O1         5.9130   10.6730   11.1820 O.3   300  P10300     -0.2118
      4  O13        7.0960   11.6420    9.1550 O.2   300  P10300     -0.2915
      5  C14        5.0260   12.2840    8.0750 C.3   300  P10300      0.1553
      6  C15        4.9810   13.7480    8.4310 C.3   300  P10300      0.0340
      7  C16        4.4400   14.4970    7.1890 C.3   300  P10300      0.0286
      8  C17        4.2390   15.9670    7.4800 C.ar  300  P10300     -0.0221
      9  C18        5.3310   16.8290    7.2980 C.ar  300  P10300     -0.0043
     10  C19        5.2290   18.2100    7.4870 C.ar  300  P10300     -0.0003
     11  C20        4.0200   18.7260    7.9970 C.ar  300  P10300     -0.0000
     12  C21        2.9040   17.8820    8.1720 C.ar  300  P10300     -0.0003
     13  C22        3.0140   16.5040    7.9210 C.ar  300  P10300     -0.0043
     14  N23        3.6400   11.7770    7.8780 N.am  300  P10300     -0.1981
     15  C24        3.2770   11.0980    6.7410 C.2   300  P10300      0.2620
     16  O25        4.0950   10.7790    5.8720 O.2   300  P10300     -0.2715
     17  C26        1.8050   10.6980    6.6530 C.3   300  P10300      0.1804
     18  C27        1.6220    9.2260    7.0950 C.3   300  P10300      0.0575
     19  C28        0.2650    8.6130    6.7630 C.ar  300  P10300     -0.0200
     20  C29        0.2480    7.4030    6.0160 C.ar  300  P10300     -0.0042
     21  C30       -0.9860    6.8210    5.6330 C.ar  300  P10300     -0.0003
     22  C31       -2.1970    7.3880    6.1020 C.ar  300  P10300     -0.0000
     23  C32       -2.1640    8.6160    6.8020 C.ar  300  P10300     -0.0003
     24  C33       -0.9300    9.1680    7.1890 C.ar  300  P10300     -0.0042
     25  N34        1.3330   10.7910    5.2220 N.am  300  P10300     -0.1607
     26  C35        1.0350   12.0050    4.6750 C.2   300  P10300      0.4219
     27  O36        0.9490   13.0560    5.3210 O.2   300  P10300     -0.2245
     28  O37        0.8760   11.8610    3.3340 O.3   300  P10300     -0.4285
     29  C38        0.4620   13.0530    2.5900 C.3   300  P10300      0.2383
     30  C39        0.6310   12.7150    1.1320 C.ar  300  P10300      0.0405
     31  C40       -0.3280   12.0020    0.4000 C.ar  300  P10300      0.0025
     32  C41       -0.0570   11.6730   -0.9370 C.ar  300  P10300      0.0205
     33  C42        1.0920   12.1750   -1.5610 C.ar  300  P10300      0.0989
     34  N43        2.0020   12.8780   -0.8250 N.ar  300  P10300     -0.2425
     35  C44        1.7980   13.1490    0.4950 C.ar  300  P10300      0.0982
@<TRIPOS>BOND
     1    33    32   ar
     2    33    34   ar
     3    32    31   ar
     4    34    35   ar
     5    31    30   ar
     6    35    30   ar
     7    30    29    1
     8    29    28    1
     9    28    26    1
    10    26    25   am
    11    26    27    2
    12    25    17    1
    13    21    20   ar
    14    21    22   ar
    15    16    15    2
    16    20    19   ar
    17    22    23   ar
    18    17    15    1
    19    17    18    1
    20    15    14   am
    21    19    18    1
    22    19    24   ar
    23    23    24   ar
    24     7     8    1
    25     7     6    1
    26     9     8   ar
    27     9    10   ar
    28     8    13   ar
    29    10    11   ar
    30    14     5    1
    31    13    12   ar
    32    11    12   ar
    33     5     6    1
    34     5     1    1
    35     1     4    2
    36     1     2    1
    37     2     3    1
