@<TRIPOS>MOLECULE
1me4_T10_A_1.pdb
 34 36 0 0 0
SMALL
GASTEIGER

@<TRIPOS>ATOM
      1  O1         6.2180   10.7430   11.0070 O.3   300  T10300     -0.2118
      2  C6         5.2660   10.8090    9.9630 C.3   300  T10300      0.2477
      3  C7         5.9290   11.7990    9.0240 C.2   300  T10300      0.2037
      4  O8         7.1490   11.7390    9.0160 O.2   300  T10300     -0.2915
      5  C9         4.9310   12.6470    8.2430 C.3   300  T10300      0.1593
      6  C10        4.7030   13.9080    9.1390 C.3   300  T10300      0.0556
      7  C11        5.9350   14.7530    9.3880 C.ar  300  T10300     -0.0200
      8  C12        6.1940   15.8320    8.4980 C.ar  300  T10300     -0.0042
      9  C13        7.3530   16.6340    8.6840 C.ar  300  T10300     -0.0003
     10  C14        8.2630   16.3900    9.7250 C.ar  300  T10300     -0.0000
     11  C15        8.0210   15.3450   10.6430 C.ar  300  T10300     -0.0003
     12  C16        6.8570   14.6260   10.4470 C.ar  300  T10300     -0.0042
     13  N17        3.6120   11.9500    7.9980 N.am  300  T10300     -0.1977
     14  C18        3.3120   11.3160    6.8300 C.2   300  T10300      0.2620
     15  O19        4.1430   11.1200    5.9290 O.2   300  T10300     -0.2715
     16  C20        1.8580   10.8110    6.7350 C.3   300  T10300      0.1804
     17  C21        1.8350    9.3150    7.1400 C.3   300  T10300      0.0575
     18  C22        0.4980    8.6390    6.7730 C.ar  300  T10300     -0.0200
     19  C23        0.5390    7.4400    6.0140 C.ar  300  T10300     -0.0042
     20  C24       -0.6940    6.8210    5.7300 C.ar  300  T10300     -0.0003
     21  C25       -1.9280    7.3940    6.0990 C.ar  300  T10300     -0.0000
     22  C26       -1.9300    8.6020    6.8210 C.ar  300  T10300     -0.0003
     23  C27       -0.7240    9.1970    7.1680 C.ar  300  T10300     -0.0042
     24  N28        1.4300   10.9870    5.3320 N.am  300  T10300     -0.1607
     25  C29        1.1350   12.1540    4.7370 C.2   300  T10300      0.4219
     26  O30        1.0010   13.1830    5.3830 O.2   300  T10300     -0.2245
     27  O31        0.9750   12.0350    3.3880 O.3   300  T10300     -0.4285
     28  C32        0.6340   13.2840    2.6650 C.3   300  T10300      0.2368
     29  C33        0.7730   12.9490    1.2090 C.ar  300  T10300      0.0213
     30  C34       -0.2840   12.3260    0.5080 C.ar  300  T10300     -0.0007
     31  C35       -0.1130   12.0140   -0.8360 C.ar  300  T10300     -0.0002
     32  C36        1.0880   12.2980   -1.5060 C.ar  300  T10300     -0.0000
     33  C37        2.1040   12.9640   -0.8270 C.ar  300  T10300     -0.0002
     34  C38        1.9750   13.2340    0.5610 C.ar  300  T10300     -0.0007
@<TRIPOS>BOND
     1    32    31   ar
     2    32    33   ar
     3    31    30   ar
     4    33    34   ar
     5    30    29   ar
     6    34    29   ar
     7    29    28    1
     8    28    27    1
     9    27    25    1
    10    25    24   am
    11    25    26    2
    12    24    16    1
    13    20    19   ar
    14    20    21   ar
    15    15    14    2
    16    19    18   ar
    17    21    22   ar
    18    16    14    1
    19    16    17    1
    20    18    17    1
    21    18    23   ar
    22    22    23   ar
    23    14    13   am
    24    13     5    1
    25     5     3    1
    26     5     6    1
    27     8     9   ar
    28     8     7   ar
    29     9    10   ar
    30     4     3    2
    31     3     2    1
    32     6     7    1
    33     7    12   ar
    34    10    11   ar
    35     2     1    1
    36    12    11   ar
