@<TRIPOS>MOLECULE
1me6_IVS_A_1.pdb
 34 33 0 0 0
SMALL
GASTEIGER

@<TRIPOS>ATOM
      1  C57       54.2730   65.5340   24.3030 C.3   347  IVS347      0.2086
      2  O56       53.4420   64.3420   24.4600 O.3   347  IVS347     -0.4484
      3  C53       53.8000   63.5170   25.4770 C.2   347  IVS347      0.3197
      4  O75       54.7040   63.8940   26.2550 O.2   347  IVS347     -0.2500
      5  C52       53.4560   62.0860   25.5210 C.3   347  IVS347      0.1441
      6  C51       53.7230   61.2950   24.2090 C.3   347  IVS347      0.1828
      7  O72       52.5490   60.4830   23.8830 O.3   347  IVS347     -0.2207
      8  C23       54.9790   60.3420   24.3240 C.3   347  IVS347      0.1262
      9  C58       55.2280   59.5220   23.0420 C.3   347  IVS347      0.0243
     10  N22       54.8040   59.4120   25.4550 N.am  347  IVS347     -0.2031
     11  C21       55.7930   59.1970   26.2770 C.2   347  IVS347      0.2612
     12  O19       56.8040   59.9180   26.3460 O.2   347  IVS347     -0.2715
     13  C20       55.6380   57.9670   27.1900 C.3   347  IVS347      0.1727
     14  N19       56.6360   56.9940   26.7020 N.am  347  IVS347     -0.1963
     15  C18       56.2980   55.7420   26.3490 C.2   347  IVS347      0.2616
     16  O36       55.1640   55.2720   26.4220 O.2   347  IVS347     -0.2715
     17  C17       57.4480   54.8670   25.8580 C.3   347  IVS347      0.1726
     18  N16       57.3190   53.6780   26.7020 N.am  347  IVS347     -0.1978
     19  C12       58.3320   53.4330   27.5890 C.2   347  IVS347      0.2418
     20  O15       59.3500   54.1360   27.7260 O.2   347  IVS347     -0.2733
     21  C10       58.1040   52.2010   28.4270 C.3   347  IVS347      0.0868
     22  C2        57.7490   52.5020   29.8930 C.3   347  IVS347      0.0091
     23  C6        56.5360   53.4220   30.0000 C.3   347  IVS347      0.0005
     24  C76       53.6080   66.5310   23.3480 C.3   347  IVS347      0.0513
     25  C60       56.5620   59.8610   22.3660 C.3   347  IVS347      0.0018
     26  C67       57.7680   59.6170   23.2790 C.3   347  IVS347      0.0001
     27  C63       56.7070   59.0110   21.1480 C.3   347  IVS347      0.0001
     28  C38       55.8760   58.3690   28.7010 C.3   347  IVS347      0.0290
     29  C40       54.8330   59.3860   29.1560 C.3   347  IVS347      0.0023
     30  C44       55.7520   57.1450   29.6180 C.3   347  IVS347      0.0023
     31  C25       57.3270   54.5790   24.3300 C.3   347  IVS347      0.0290
     32  C27       57.4420   55.8600   23.5360 C.3   347  IVS347      0.0023
     33  C31       58.4480   53.6960   23.8810 C.3   347  IVS347      0.0023
     34  C1        57.5600   51.1400   30.5810 C.3   347  IVS347      0.0005
@<TRIPOS>BOND
     1    27    25    1
     2    25     9    1
     3    25    26    1
     4     9     8    1
     5    24     1    1
     6    32    31    1
     7    33    31    1
     8     7     6    1
     9     6     8    1
    10     6     5    1
    11     1     2    1
    12     8    10    1
    13    31    17    1
    14     2     3    1
    15    10    11   am
    16     3     5    1
    17     3     4    2
    18    17    15    1
    19    17    18    1
    20    11    12    2
    21    11    13    1
    22    15    16    2
    23    15    14   am
    24    18    19   am
    25    14    13    1
    26    13    28    1
    27    19    20    2
    28    19    21    1
    29    21    22    1
    30    28    29    1
    31    28    30    1
    32    22    23    1
    33    22    34    1
