@<TRIPOS>MOLECULE
1me7_MOA_A_1.pdb
 23 24 0 0 0
SMALL
GASTEIGER

@<TRIPOS>ATOM
      1  C1        60.5150   58.8240   19.6970 C.2   600  MOA600      0.3445
      2  C2        55.7610   57.3220   16.8930 C.2   600  MOA600     -0.0296
      3  C3        54.5360   56.8660   16.5700 C.2   600  MOA600     -0.0473
      4  C4        53.3660   57.5900   17.2240 C.3   600  MOA600      0.0335
      5  C5        52.7020   56.6770   18.2660 C.3   600  MOA600      0.1184
      6  C6        53.3200   56.7680   19.6560 C.2   600  MOA600      0.3652
      7  C7        59.5410   53.9950   20.0400 C.3   600  MOA600      0.0340
      8  C8        56.3920   53.9730   18.4960 C.3   600  MOA600      0.2524
      9  C9        54.2790   55.6680   15.6410 C.3   600  MOA600      0.0260
     10  C10       60.9430   56.7790   20.8070 C.3   600  MOA600      0.2355
     11  C11       59.9250   56.5320   19.7110 C.ar  600  MOA600      0.0296
     12  C12       59.2650   55.2960   19.3280 C.ar  600  MOA600      0.0117
     13  C13       58.3210   55.3590   18.2300 C.ar  600  MOA600      0.1339
     14  C14       58.0730   56.6260   17.5630 C.ar  600  MOA600      0.0549
     15  C15       58.7560   57.8240   17.9780 C.ar  600  MOA600      0.2009
     16  C16       59.6790   57.7450   19.0600 C.ar  600  MOA600      0.1135
     17  C17       57.0820   56.7220   16.4110 C.3   600  MOA600      0.0580
     18  O1        60.6000   59.9830   19.4460 O.2   600  MOA600     -0.2448
     19  O2        61.2000   58.2180   20.6690 O.3   600  MOA600     -0.4404
     20  O3        57.6820   54.1950   17.8490 O.3   600  MOA600     -0.4720
     21  O4        58.4940   59.0170   17.3180 O.3   600  MOA600     -0.2866
     22  O5        53.0450   57.7630   20.3640 O.co2 600  MOA600     -0.2456
     23  O6        54.0720   55.8410   20.0360 O.co2 600  MOA600     -0.2456
@<TRIPOS>BOND
     1     9     3    1
     2    17     2    1
     3    17    14    1
     4     3     2    2
     5     3     4    1
     6     4     5    1
     7    21    15    1
     8    14    15   ar
     9    14    13   ar
    10    20    13    1
    11    20     8    1
    12    15    16   ar
    13    13    12   ar
    14     5     6    1
    15    16     1    1
    16    16    11   ar
    17    12    11   ar
    18    12     7    1
    19    18     1    2
    20     6    23   ar
    21     6    22   ar
    22     1    19    1
    23    11    10    1
    24    19    10    1
