@<TRIPOS>MOLECULE
1me7_RVP_A_1.pdb
 21 22 0 0 0
SMALL
GASTEIGER

@<TRIPOS>ATOM
      1  P         67.9570   55.3270   15.0290 P.3   602  RVP602      0.5327
      2  O1P       67.6050   55.2900   13.5810 O.2   602  RVP602     -0.2224
      3  O2P       68.7780   54.1180   15.3490 O.3   602  RVP602     -0.1145
      4  O3P       68.7380   56.6180   15.4120 O.3   602  RVP602     -0.1145
      5  O5'       66.7120   55.3560   16.0190 O.3   602  RVP602     -0.2675
      6  C5'       65.7430   54.3150   15.9530 C.3   602  RVP602      0.1859
      7  C4'       64.6780   54.5090   16.9890 C.3   602  RVP602      0.1801
      8  O4'       63.9380   55.7210   16.5760 O.3   602  RVP602     -0.3317
      9  C3'       63.5770   53.4750   17.1690 C.3   602  RVP602      0.2159
     10  O3'       63.9780   52.3190   17.8810 O.3   602  RVP602     -0.2175
     11  C2'       62.5040   54.2690   17.8410 C.3   602  RVP602      0.2323
     12  O2'       62.6530   54.3520   19.2400 O.3   602  RVP602     -0.2157
     13  C1'       62.6060   55.6090   17.1060 C.3   602  RVP602      0.2437
     14  N9        61.6370   55.7460   15.9500 N.pl3 602  RVP602     -0.1720
     15  C8        61.0760   54.8330   15.0700 C.3   602  RVP602      0.2500
     16  N7        60.2850   55.3830   14.2140 N.2   602  RVP602     -0.1909
     17  C5        60.2850   56.7130   14.4930 C.1   602  RVP602      0.1072
     18  C6        59.5860   57.8200   13.8580 C.2   602  RVP602      0.3485
     19  O6        58.8240   57.7520   12.8980 O.2   602  RVP602     -0.2552
     20  N1        59.8480   59.1090   14.4510 N.am  602  RVP602     -0.0743
     21  N4        61.1190   56.9760   15.5750 N.2   602  RVP602     -0.1198
@<TRIPOS>BOND
     1    19    18    2
     2     2     1    2
     3    18    20   am
     4    18    17    1
     5    16    17    2
     6    16    15    1
     7    17    21    2
     8     1     3    1
     9     1     4    1
    10     1     5    1
    11    15    14    1
    12    21    14    1
    13    14    13    1
    14     6     5    1
    15     6     7    1
    16     8     7    1
    17     8    13    1
    18     7     9    1
    19    13    11    1
    20     9    11    1
    21     9    10    1
    22    11    12    1
