@<TRIPOS>MOLECULE
1me8_RVP_A_1.pdb
 21 22 0 0 0
SMALL
GASTEIGER

@<TRIPOS>ATOM
      1  P         67.8060   55.1920   15.0100 P.3   602  RVP602      0.5327
      2  O1P       67.4470   55.1060   13.5660 O.2   602  RVP602     -0.2224
      3  O2P       68.6180   53.9930   15.3860 O.3   602  RVP602     -0.1145
      4  O3P       68.5890   56.4890   15.3350 O.3   602  RVP602     -0.1145
      5  O5'       66.5640   55.2600   15.9980 O.3   602  RVP602     -0.2675
      6  C5'       65.6010   54.2070   15.9620 C.3   602  RVP602      0.1859
      7  C4'       64.5210   54.4180   16.9850 C.3   602  RVP602      0.1801
      8  O4'       63.7660   55.6050   16.5400 O.3   602  RVP602     -0.3317
      9  C3'       63.4370   53.3700   17.1790 C.3   602  RVP602      0.2159
     10  O3'       63.8630   52.2290   17.9140 O.3   602  RVP602     -0.2175
     11  C2'       62.3430   54.1620   17.8320 C.3   602  RVP602      0.2323
     12  O2'       62.4820   54.2780   19.2360 O.3   602  RVP602     -0.2157
     13  C1'       62.4340   55.4860   17.0670 C.3   602  RVP602      0.2437
     14  N9        61.4750   55.6020   15.9030 N.pl3 602  RVP602     -0.1720
     15  C8        60.9890   54.6940   14.9780 C.3   602  RVP602      0.2500
     16  N7        60.1710   55.2310   14.1290 N.2   602  RVP602     -0.1909
     17  C5        60.0840   56.5440   14.4680 C.1   602  RVP602      0.1072
     18  C6        59.3290   57.6340   13.8770 C.2   602  RVP602      0.3485
     19  O6        58.5920   57.5670   12.9060 O.2   602  RVP602     -0.2552
     20  N1        59.5010   58.9020   14.5320 N.am  602  RVP602     -0.0743
     21  N4        60.8830   56.8100   15.5740 N.2   602  RVP602     -0.1198
@<TRIPOS>BOND
     1    19    18    2
     2     2     1    2
     3    18    17    1
     4    18    20   am
     5    16    17    2
     6    16    15    1
     7    17    21    2
     8    15    14    1
     9     1     4    1
    10     1     3    1
    11     1     5    1
    12    21    14    1
    13    14    13    1
    14     6     5    1
    15     6     7    1
    16     8     7    1
    17     8    13    1
    18     7     9    1
    19    13    11    1
    20     9    11    1
    21     9    10    1
    22    11    12    1
