@<TRIPOS>MOLECULE
1me9_IMP_A_1.pdb
 23 25 0 0 0
SMALL
GASTEIGER

@<TRIPOS>ATOM
      1  P         67.7290   55.1710   15.0180 P.3   602  IMP602      0.5327
      2  O1P       67.3180   55.1160   13.5890 O.2   602  IMP602     -0.2224
      3  O2P       68.5410   53.9580   15.3240 O.3   602  IMP602     -0.1145
      4  O3P       68.5090   56.4600   15.3510 O.3   602  IMP602     -0.1145
      5  O5'       66.5130   55.2080   16.0420 O.3   602  IMP602     -0.2675
      6  C5'       65.4840   54.2300   15.9000 C.3   602  IMP602      0.1860
      7  C4'       64.4160   54.3690   16.9480 C.3   602  IMP602      0.1823
      8  O4'       63.6540   55.5450   16.5120 O.3   602  IMP602     -0.3135
      9  C3'       63.3500   53.3010   17.1120 C.3   602  IMP602      0.2184
     10  O3'       63.7650   52.1900   17.8820 O.3   602  IMP602     -0.2174
     11  C2'       62.2190   54.0480   17.7470 C.3   602  IMP602      0.2570
     12  O2'       62.3080   54.0940   19.1510 O.3   602  IMP602     -0.2130
     13  C1'       62.3410   55.4220   17.0660 C.3   602  IMP602      0.3186
     14  N9        61.3920   55.5630   15.9180 N.pl3 602  IMP602     -0.1435
     15  C8        60.8900   54.6440   15.0160 C.3   602  IMP602      0.3382
     16  N7        60.0860   55.1730   14.1540 N.2   602  IMP602     -0.2054
     17  C5        60.0270   56.4970   14.4630 C.2   602  IMP602      0.2446
     18  C6        59.3020   57.5820   13.8550 C.1   602  IMP602      0.1792
     19  O6        58.5550   57.5210   12.8830 O.2   602  IMP602     -0.2203
     20  N1        59.5160   58.8480   14.4950 N.2   602  IMP602     -0.1458
     21  C2        60.3550   59.0110   15.6090 C.3   602  IMP602      0.4017
     22  N3        61.0340   57.9730   16.1700 N.2   602  IMP602     -0.0334
     23  C4        60.8320   56.7740   15.5630 C.2   602  IMP602      0.3528
@<TRIPOS>BOND
     1    19    18    2
     2     2     1    2
     3    18    17    1
     4    18    20    2
     5    16    17    2
     6    16    15    1
     7    17    23    1
     8    20    21    1
     9    15    14    1
    10     1     3    1
    11     1     4    1
    12     1     5    1
    13    23    14    1
    14    23    22    2
    15    21    22    1
    16     6     5    1
    17     6     7    1
    18    14    13    1
    19     8     7    1
    20     8    13    1
    21     7     9    1
    22    13    11    1
    23     9    11    1
    24     9    10    1
    25    11    12    1
