@<TRIPOS>MOLECULE
1meg_E64_A_1.pdb
 25 24 0 0 0
SMALL
GASTEIGER

@<TRIPOS>ATOM
      1  C1        14.9050   11.5210   17.5780 C.2   217  E64217      0.3680
      2  O1        13.7210   11.1500   17.7590 O.co2 217  E64217     -0.2455
      3  O2        15.7200   11.6280   18.5170 O.co2 217  E64217     -0.2455
      4  C2        15.3820   11.7420   16.1220 C.3   217  E64217      0.1564
      5  C3        16.3240   13.0330   15.9410 C.3   217  E64217      0.2403
      6  O3        15.5880   14.2460   16.0600 O.3   217  E64217     -0.2126
      7  C4        16.9350   13.0180   14.5580 C.2   217  E64217      0.2728
      8  O4        18.1230   12.7640   14.3880 O.2   217  E64217     -0.2706
      9  N1        16.0920   13.3100   13.5620 N.am  217  E64217     -0.1956
     10  C6        16.5120   13.4190   12.1640 C.3   217  E64217      0.1728
     11  C7        15.4500   12.8710   11.2040 C.3   217  E64217      0.0311
     12  C8        15.5450   11.4270   10.7390 C.3   217  E64217      0.0022
     13  C9        14.4700   11.1920    9.6740 C.3   217  E64217      0.0001
     14  C10       16.9550   11.1500   10.2040 C.3   217  E64217      0.0001
     15  C11       16.7090   14.9000   11.8570 C.2   217  E64217      0.2612
     16  O5        15.7690   15.7020   11.9950 O.2   217  E64217     -0.2715
     17  N2        17.9550   15.2050   11.4750 N.am  217  E64217     -0.2040
     18  C12       18.5350   16.5040   11.0860 C.3   217  E64217      0.1153
     19  C13       17.7190   17.7410   11.4690 C.3   217  E64217      0.0271
     20  C14       17.2850   18.5520   10.2210 C.3   217  E64217      0.0487
     21  C15       17.2480   20.0670   10.4460 C.3   217  E64217      0.2205
     22  N3        16.2050   20.7690    9.6730 N.pl3 217  E64217     -0.0865
     23  C16       16.1140   22.0930    9.5450 C.cat 217  E64217      0.5346
     24  N4        17.0030   22.8790   10.1530 N.pl3 217  E64217      0.1354
     25  N5        15.1170   22.6470    8.8580 N.pl3 217  E64217      0.1354
@<TRIPOS>BOND
     1    25    23    1
     2    23    22    2
     3    23    24    1
     4    22    21    1
     5    13    12    1
     6    14    12    1
     7    20    21    1
     8    20    19    1
     9    12    11    1
    10    18    19    1
    11    18    17    1
    12    11    10    1
    13    17    15   am
    14    15    16    2
    15    15    10    1
    16    10     9    1
    17     9     7   am
    18     8     7    2
    19     7     5    1
    20     5     6    1
    21     5     4    1
    22     4     1    1
    23     1     2   ar
    24     1     3   ar
