@<TRIPOS>MOLECULE
1meh_IMP_A_1.pdb
 23 25 0 0 0
SMALL
GASTEIGER

@<TRIPOS>ATOM
      1  P         67.2730   54.6430   14.9060 P.3   602  IMP602      0.5327
      2  O1P       66.8610   54.5800   13.4780 O.2   602  IMP602     -0.2224
      3  O2P       68.0370   53.4080   15.2540 O.3   602  IMP602     -0.1145
      4  O3P       68.0900   55.9080   15.2180 O.3   602  IMP602     -0.1145
      5  O5'       66.0480   54.7510   15.9140 O.3   602  IMP602     -0.2675
      6  C5'       65.0540   53.7350   15.8190 C.3   602  IMP602      0.1860
      7  C4'       63.9550   53.9090   16.8220 C.3   602  IMP602      0.1823
      8  O4'       63.2260   55.0910   16.3350 O.3   602  IMP602     -0.3135
      9  C3'       62.8550   52.8750   16.9580 C.3   602  IMP602      0.2184
     10  O3'       63.2290   51.7100   17.6870 O.3   602  IMP602     -0.2174
     11  C2'       61.7760   53.6700   17.6290 C.3   602  IMP602      0.2570
     12  O2'       61.9480   53.7360   19.0290 O.3   602  IMP602     -0.2130
     13  C1'       61.9280   55.0300   16.9240 C.3   602  IMP602      0.3186
     14  N9        60.9280   55.2020   15.8160 N.pl3 602  IMP602     -0.1435
     15  C8        60.3100   54.2980   14.9710 C.3   602  IMP602      0.3382
     16  N7        59.4900   54.8660   14.1370 N.2   602  IMP602     -0.2054
     17  C5        59.5480   56.1970   14.4170 C.2   602  IMP602      0.2446
     18  C6        58.8660   57.3200   13.8310 C.1   602  IMP602      0.1792
     19  O6        58.0490   57.2950   12.9090 O.2   602  IMP602     -0.2203
     20  N1        59.2130   58.5760   14.4250 N.2   602  IMP602     -0.1458
     21  C2        60.1310   58.7020   15.4780 C.3   602  IMP602      0.4017
     22  N3        60.7650   57.6300   16.0210 N.2   602  IMP602     -0.0334
     23  C4        60.4370   56.4380   15.4580 C.2   602  IMP602      0.3528
@<TRIPOS>BOND
     1    19    18    2
     2     2     1    2
     3    18    17    1
     4    18    20    2
     5    16    17    2
     6    16    15    1
     7    17    23    1
     8    20    21    1
     9     1     4    1
    10     1     3    1
    11     1     5    1
    12    15    14    1
    13    23    14    1
    14    23    22    2
    15    21    22    1
    16    14    13    1
    17     6     5    1
    18     6     7    1
    19     8     7    1
    20     8    13    1
    21     7     9    1
    22    13    11    1
    23     9    11    1
    24     9    10    1
    25    11    12    1
