@<TRIPOS>MOLECULE
1meh_MOA_A_1.pdb
 23 24 0 0 0
SMALL
GASTEIGER

@<TRIPOS>ATOM
      1  C1        59.3120   58.3410   19.3710 C.2   600  MOA600      0.3445
      2  C2        54.7000   56.3410   16.4550 C.2   600  MOA600     -0.0296
      3  C3        53.5780   55.6270   16.1980 C.2   600  MOA600     -0.0473
      4  C4        52.2620   56.2610   16.6280 C.3   600  MOA600      0.0335
      5  C5        51.7040   55.5290   17.8560 C.3   600  MOA600      0.1184
      6  C6        52.4130   55.8800   19.1530 C.2   600  MOA600      0.3652
      7  C7        58.7170   53.4560   19.8270 C.3   600  MOA600      0.0340
      8  C8        55.6390   53.1440   18.3090 C.3   600  MOA600      0.2524
      9  C9        53.5640   54.2540   15.5130 C.3   600  MOA600      0.0260
     10  C10       59.8890   56.3640   20.5390 C.3   600  MOA600      0.2355
     11  C11       58.9050   56.0110   19.4450 C.ar  600  MOA600      0.0296
     12  C12       58.3470   54.7210   19.0860 C.ar  600  MOA600      0.0117
     13  C13       57.4160   54.6890   17.9740 C.ar  600  MOA600      0.1339
     14  C14       57.0770   55.9100   17.2750 C.ar  600  MOA600      0.0549
     15  C15       57.6550   57.1640   17.6720 C.ar  600  MOA600      0.2009
     16  C16       58.5690   57.1830   18.7630 C.ar  600  MOA600      0.1135
     17  C17       56.1070   55.8810   16.0990 C.3   600  MOA600      0.0580
     18  O1        59.3060   59.4970   19.0820 O.2   600  MOA600     -0.2448
     19  O2        60.0360   57.8180   20.3650 O.3   600  MOA600     -0.4404
     20  O3        56.8760   53.4790   17.6080 O.3   600  MOA600     -0.4720
     21  O4        57.3140   58.3180   16.9870 O.3   600  MOA600     -0.2866
     22  O5        52.4010   57.0740   19.5360 O.co2 600  MOA600     -0.2456
     23  O6        52.9850   54.9590   19.7800 O.co2 600  MOA600     -0.2456
@<TRIPOS>BOND
     1     9     3    1
     2    17     2    1
     3    17    14    1
     4     3     2    2
     5     3     4    1
     6     4     5    1
     7    21    15    1
     8    14    15   ar
     9    14    13   ar
    10    20    13    1
    11    20     8    1
    12    15    16   ar
    13     5     6    1
    14    13    12   ar
    15    16     1    1
    16    16    11   ar
    17    18     1    2
    18    12    11   ar
    19    12     7    1
    20     6    22   ar
    21     6    23   ar
    22     1    19    1
    23    11    10    1
    24    19    10    1
