@<TRIPOS>MOLECULE
1mei_XMP_A_1.pdb
 24 26 0 0 0
SMALL
GASTEIGER

@<TRIPOS>ATOM
      1  P         68.0810   55.3690   14.8900 P.3   602  XMP602      0.5327
      2  O1P       67.6840   55.2950   13.4810 O.2   602  XMP602     -0.2224
      3  O2P       68.9020   54.2340   15.3540 O.3   602  XMP602     -0.1145
      4  O5'       66.7870   55.3920   15.7170 O.3   602  XMP602     -0.2675
      5  O3P       68.6510   56.6720   15.2750 O.3   602  XMP602     -0.1145
      6  C5'       65.7960   54.3470   15.8630 C.3   602  XMP602      0.1859
      7  C4'       64.7560   54.5930   16.9600 C.3   602  XMP602      0.1801
      8  O4'       63.9430   55.7320   16.6880 O.3   602  XMP602     -0.3326
      9  C1'       62.6180   55.6810   17.1800 C.3   602  XMP602      0.2293
     10  N9        61.6900   55.9530   16.0310 N.pl3 602  XMP602     -0.2353
     11  C4        61.2480   57.1830   15.6010 C.2   602  XMP602      0.2316
     12  N3        61.5560   58.4440   16.1210 N.2   602  XMP602     -0.2901
     13  N1        60.0860   59.2580   14.3530 N.2   602  XMP602     -0.2311
     14  C2        60.9420   59.4810   15.4590 C.1   602  XMP602      0.3668
     15  O2        61.1280   60.6390   15.8290 O.2   602  XMP602     -0.1744
     16  C6        59.7640   57.9890   13.8110 C.1   602  XMP602      0.2388
     17  O6        59.0150   57.8750   12.8530 O.2   602  XMP602     -0.2068
     18  C5        60.4060   56.9090   14.5060 C.2   602  XMP602      0.2183
     19  N7        60.3250   55.5730   14.2680 N.2   602  XMP602     -0.2322
     20  C8        61.0760   55.0820   15.1660 C.3   602  XMP602      0.2246
     21  C2'       62.6040   54.2980   17.8780 C.3   602  XMP602      0.2310
     22  O2'       62.8080   54.5540   19.2610 O.3   602  XMP602     -0.2158
     23  C3'       63.7050   53.5370   17.1410 C.3   602  XMP602      0.2158
     24  O3'       64.1610   52.4380   17.9260 O.3   602  XMP602     -0.2175
@<TRIPOS>BOND
     1    17    16    2
     2     2     1    2
     3    16    13    2
     4    16    18    1
     5    19    18    2
     6    19    20    1
     7    13    14    2
     8    18    11    1
     9     1     5    1
    10     1     3    1
    11     1     4    1
    12    20    10    1
    13    14    15    2
    14    14    12    2
    15    11    10    1
    16    11    12    2
    17     4     6    1
    18     6     7    1
    19    10     9    1
    20     8     7    1
    21     8     9    1
    22     7    23    1
    23    23    21    1
    24    23    24    1
    25     9    21    1
    26    21    22    1
