@<TRIPOS>MOLECULE
1mei_MOA_A_1.pdb
 23 24 0 0 0
SMALL
GASTEIGER

@<TRIPOS>ATOM
      1  C1        60.1610   58.9100   19.5980 C.2   600  MOA600      0.3445
      2  C2        55.6590   56.9500   16.4990 C.2   600  MOA600     -0.0296
      3  C3        54.5260   56.2640   16.2090 C.2   600  MOA600     -0.0473
      4  C4        53.2140   56.9470   16.5630 C.3   600  MOA600      0.0335
      5  C5        52.6150   56.3110   17.8240 C.3   600  MOA600      0.1184
      6  C6        53.2600   56.8030   19.1100 C.2   600  MOA600      0.3652
      7  C7        59.5860   54.0220   20.0070 C.3   600  MOA600      0.0340
      8  C8        56.5360   53.7020   18.3670 C.3   600  MOA600      0.2524
      9  C9        54.4980   54.8770   15.5490 C.3   600  MOA600      0.0260
     10  C10       60.7130   56.9250   20.7650 C.3   600  MOA600      0.2355
     11  C11       59.7650   56.5760   19.6380 C.ar  600  MOA600      0.0296
     12  C12       59.2270   55.2850   19.2570 C.ar  600  MOA600      0.0117
     13  C13       58.3280   55.2520   18.1160 C.ar  600  MOA600      0.1339
     14  C14       58.0020   56.4740   17.4120 C.ar  600  MOA600      0.0549
     15  C15       58.5580   57.7360   17.8310 C.ar  600  MOA600      0.2009
     16  C16       59.4430   57.7540   18.9510 C.ar  600  MOA600      0.1135
     17  C17       57.0660   56.4410   16.2060 C.3   600  MOA600      0.0580
     18  O1        60.1640   60.0700   19.3260 O.2   600  MOA600     -0.2448
     19  O2        60.8570   58.3770   20.6070 O.3   600  MOA600     -0.4404
     20  O3        57.8060   54.0390   17.7290 O.3   600  MOA600     -0.4720
     21  O4        58.2260   58.8940   17.1310 O.3   600  MOA600     -0.2866
     22  O5        53.2210   58.0310   19.3640 O.co2 600  MOA600     -0.2456
     23  O6        53.8150   55.9610   19.8540 O.co2 600  MOA600     -0.2456
@<TRIPOS>BOND
     1     9     3    1
     2    17     2    1
     3    17    14    1
     4     3     2    2
     5     3     4    1
     6     4     5    1
     7    21    15    1
     8    14    15   ar
     9    14    13   ar
    10    20    13    1
    11    20     8    1
    12     5     6    1
    13    15    16   ar
    14    13    12   ar
    15    16     1    1
    16    16    11   ar
    17     6    22   ar
    18     6    23   ar
    19    12    11   ar
    20    12     7    1
    21    18     1    2
    22     1    19    1
    23    11    10    1
    24    19    10    1
