@<TRIPOS>MOLECULE
1mem_0D6_A_1.pdb
 39 41 0 0 0
SMALL
GASTEIGER

@<TRIPOS>ATOM
      1  N1        23.6840    1.6270    5.3330 N.am  280  0D6280     -0.2613
      2  C1        22.4670    2.1540    5.1760 C.2   280  0D6280      0.3043
      3  O1        22.3150    3.0940    4.3950 O.2   280  0D6280     -0.2526
      4  C2        24.8890    2.1860    4.6360 C.3   280  0D6280      0.1138
      5  C3        26.1040    2.1900    5.4880 C.3   280  0D6280      0.1103
      6  N4        26.3450    0.8490    6.0180 N.3   280  0D6280     -0.2144
      7  C5        25.2370    0.3570    6.8330 C.3   280  0D6280      0.1103
      8  C6        23.9420    0.3540    6.0600 C.3   280  0D6280      0.1138
      9  N         21.4080    1.5970    5.7630 N.am  280  0D6280     -0.2824
     10  CA        20.0850    2.1820    5.5900 C.3   280  0D6280      0.1497
     11  C         20.1040    3.5740    6.1630 C.2   280  0D6280      0.2403
     12  O         20.6030    3.7770    7.2670 O.2   280  0D6280     -0.2733
     13  CB        19.0200    1.3660    6.3080 C.3   280  0D6280      0.0290
     14  CG        18.3400    0.1740    5.6370 C.3   280  0D6280      0.0021
     15  CD1       18.8800   -0.1710    4.2600 C.3   280  0D6280      0.0001
     16  CD2       18.4170   -0.9850    6.5850 C.3   280  0D6280      0.0001
     17  C11       17.4370    6.5670    4.6120 C.3   280  0D6280      0.1576
     18  C21       18.1650    6.4090    5.9740 C.3   280  0D6280      0.0453
     19  C31       19.6200    5.9220    5.8090 C.3   280  0D6280      0.0737
     20  N2        19.6760    4.5440    5.3680 N.am  280  0D6280     -0.3046
     21  C4        20.4600    6.8050    4.8830 C.3   280  0D6280      0.0243
     22  C51       21.9480    6.4830    4.9610 C.3   280  0D6280      0.0280
     23  C1'       22.7650    7.2850    3.9790 C.ar  280  0D6280     -0.0221
     24  C2'       23.2480    6.6840    2.8010 C.ar  280  0D6280     -0.0043
     25  C3'       23.9220    7.4640    1.8470 C.ar  280  0D6280     -0.0003
     26  C4'       24.1170    8.8370    2.0710 C.ar  280  0D6280     -0.0000
     27  C5'       23.6500    9.4360    3.2370 C.ar  280  0D6280     -0.0003
     28  C6'       22.9810    8.6660    4.1890 C.ar  280  0D6280     -0.0043
     29  C12       15.8660    8.7930   -0.0300 C.ar  280  0D6280      0.0001
     30  C22       16.2720    9.9140    0.6950 C.ar  280  0D6280      0.0013
     31  C32       16.7900    9.7750    1.9940 C.ar  280  0D6280      0.0183
     32  C41       16.9310    8.5020    2.5930 C.ar  280  0D6280      0.1057
     33  S1        17.0930    8.3390    4.3490 S.O2  280  0D6280      0.0087
     34  O11       15.8070    8.9740    4.9660 O.2   280  0D6280     -0.1686
     35  O2        18.3230    9.2170    4.6770 O.2   280  0D6280     -0.1686
     36  C52       16.5100    7.3790    1.8190 C.ar  280  0D6280      0.0183
     37  C61       15.9830    7.5300    0.5270 C.ar  280  0D6280      0.0013
     38  H         21.5430    1.1820    6.6340 H     280  0D6280      0.1514
     39  HN2       19.6080    4.3950    4.3940 H     280  0D6280      0.1494
@<TRIPOS>BOND
     1    29    37   ar
     2    29    30   ar
     3    37    36   ar
     4    30    31   ar
     5    36    32   ar
     6    25    26   ar
     7    25    24   ar
     8    31    32   ar
     9    26    27   ar
    10    32    33    1
    11    24    23   ar
    12    27    28   ar
    13    23    28   ar
    14    23    22    1
    15    15    14    1
    16    33    17    1
    17    33    35    2
    18    33    34    2
    19    39    20    1
    20     3     2    2
    21    17    18    1
    22     4     1    1
    23     4     5    1
    24    21    22    1
    25    21    19    1
    26     2     1   am
    27     2     9   am
    28     1     8    1
    29    20    19    1
    30    20    11   am
    31     5     6    1
    32    10     9    1
    33    10    11    1
    34    10    13    1
    35    14    13    1
    36    14    16    1
    37     9    38    1
    38    19    18    1
    39     6     7    1
    40     8     7    1
    41    11    12    2
