@<TRIPOS>MOLECULE
1men_GAR_A_1.pdb
 18 18 0 0 0
SMALL
GASTEIGER

@<TRIPOS>ATOM
      1  C1         1.9370   25.6470  319.7500 C.3   223  GAR223      0.2159
      2  O6         2.0360   24.7610  318.6110 O.3   223  GAR223     -0.2175
      3  C2         3.2900   25.9250  320.4570 C.3   223  GAR223      0.2325
      4  O8         4.1950   24.8190  320.3360 O.3   223  GAR223     -0.2157
      5  C3         3.8000   27.0900  319.6880 C.3   223  GAR223      0.2447
      6  O4         2.6440   27.8670  319.3450 O.3   223  GAR223     -0.3316
      7  C5         1.4840   27.0100  319.2780 C.3   223  GAR223      0.1801
      8  C10        0.2930   27.5420  320.1310 C.3   223  GAR223      0.1859
      9  O12       -0.6380   26.4620  320.3910 O.3   223  GAR223     -0.2675
     10  N19        4.6810   27.9710  320.4040 N.am  223  GAR223     -0.1738
     11  C21        5.5660   28.8090  319.8540 C.2   223  GAR223      0.2629
     12  O22        5.6900   28.9590  318.6120 O.2   223  GAR223     -0.2716
     13  C23        6.4790   29.5500  320.8260 C.3   223  GAR223      0.1956
     14  N24        6.6740   31.0210  320.7070 N.3   223  GAR223     -0.1210
     15  P15       -1.9330   26.5520  321.2480 P.3   223  GAR223      0.5327
     16  O16       -1.4630   25.6790  322.4770 O.3   223  GAR223     -0.1145
     17  O17       -3.1490   25.8600  320.4470 O.2   223  GAR223     -0.2224
     18  O18       -2.2870   27.8740  321.6330 O.3   223  GAR223     -0.1145
@<TRIPOS>BOND
     1     2     1    1
     2    12    11    2
     3     7     6    1
     4     7     1    1
     5     7     8    1
     6     6     5    1
     7     5    10    1
     8     5     3    1
     9     1     3    1
    10    11    10   am
    11    11    13    1
    12     8     9    1
    13     4     3    1
    14     9    15    1
    15    17    15    2
    16    14    13    1
    17    15    18    1
    18    15    16    1
