@<TRIPOS>MOLECULE
1mep_BTN_A_1.pdb
 16 17 0 0 0
SMALL
GASTEIGER

@<TRIPOS>ATOM
      1  C11        4.9420  -16.5340   23.5060 C.2   5100  BTN5100     0.3649
      2  O11        4.4440  -15.4400   23.8550 O.co2 5100  BTN5100    -0.2457
      3  O12        4.5020  -17.1410   22.4970 O.co2 5100  BTN5100    -0.2457
      4  C10        6.0590  -17.0550   24.3240 C.3   5100  BTN5100     0.1141
      5  C9         7.0060  -15.9440   24.7860 C.3   5100  BTN5100     0.0118
      6  C8         7.4310  -15.0430   23.6170 C.3   5100  BTN5100     0.0015
      7  C7         8.4030  -13.9210   24.0990 C.3   5100  BTN5100     0.0129
      8  C2         9.1880  -13.1690   23.0530 C.3   5100  BTN5100     0.0729
      9  S1        10.5830  -14.1180   22.3170 S.3   5100  BTN5100    -0.1369
     10  C6        11.1380  -12.5790   21.4870 C.3   5100  BTN5100     0.0848
     11  C5        10.9960  -11.4750   22.5040 C.3   5100  BTN5100     0.1509
     12  N1        12.1300  -11.3420   23.4050 N.2   5100  BTN5100    -0.1859
     13  C3        11.7870  -11.5700   24.6810 C.1   5100  BTN5100     0.2386
     14  O3        12.5250  -11.4950   25.6940 O.2   5100  BTN5100    -0.2023
     15  N2        10.4600  -11.8510   24.7420 N.2   5100  BTN5100    -0.1860
     16  C4         9.8230  -11.8360   23.4430 C.3   5100  BTN5100     0.1500
@<TRIPOS>BOND
     1    10     9    1
     2    10    11    1
     3     9     8    1
     4     3     1   ar
     5    11    12    1
     6    11    16    1
     7     8    16    1
     8     8     7    1
     9    12    13    2
    10    16    15    1
    11     1     2   ar
    12     1     4    1
    13     6     7    1
    14     6     5    1
    15     4     5    1
    16    13    15    2
    17    13    14    2
