@<TRIPOS>MOLECULE
1mer_DMQ_A_1.pdb
 40 44 0 0 0
SMALL
GASTEIGER

@<TRIPOS>ATOM
      1  C1        -8.8710   15.5140   27.9060 C.2   450  DMQ450      0.3077
      2  O1        -8.1830   14.5040   27.9370 O.2   450  DMQ450     -0.2523
      3  N2        -8.7070   16.3400   26.8430 N.am  450  DMQ450     -0.2586
      4  C2        -8.0540   15.7920   25.6450 C.3   450  DMQ450      0.1218
      5  C3        -8.8970   17.8110   26.8850 C.3   450  DMQ450      0.1144
      6  C4       -10.2890   18.3390   27.1320 C.3   450  DMQ450      0.2021
      7  O4       -10.2020   19.7080   26.8190 O.3   450  DMQ450     -0.2186
      8  C5       -10.7140   18.1040   28.5710 C.3   450  DMQ450      0.2021
      9  O5       -11.9430   18.7290   28.8560 O.3   450  DMQ450     -0.2186
     10  C6       -10.9400   16.6330   28.8470 C.3   450  DMQ450      0.1144
     11  C7        -9.6150   14.9450   30.1560 C.3   450  DMQ450      0.1218
     12  N7        -9.7460   15.7500   28.9320 N.am  450  DMQ450     -0.2586
     13  C20       -8.6770   16.1130   24.3130 C.ar  450  DMQ450     -0.0009
     14  C21      -10.0740   15.9930   24.1060 C.ar  450  DMQ450     -0.0025
     15  C22      -10.6390   16.3170   22.8600 C.ar  450  DMQ450      0.0011
     16  C23       -9.7970   16.7560   21.8220 C.ar  450  DMQ450      0.0180
     17  C28       -8.4090   16.8690   22.0330 C.ar  450  DMQ450      0.0888
     18  N29       -7.5800   17.3640   20.9910 N.pl3 450  DMQ450     -0.1281
     19  C29       -7.8390   16.5480   23.2750 C.ar  450  DMQ450      0.0154
     20  C31       -7.7900   18.4430   27.7460 C.3   450  DMQ450      0.0489
     21  C32       -6.4290   18.2740   27.1180 C.ar  450  DMQ450     -0.0204
     22  C33       -5.5090   17.3560   27.6730 C.ar  450  DMQ450     -0.0042
     23  C34       -4.2540   17.1650   27.0570 C.ar  450  DMQ450     -0.0003
     24  C35       -3.9240   17.8940   25.8910 C.ar  450  DMQ450     -0.0000
     25  C36       -4.8480   18.8180   25.3330 C.ar  450  DMQ450     -0.0003
     26  C37       -6.1040   19.0130   25.9480 C.ar  450  DMQ450     -0.0042
     27  C61      -12.0350   15.9500   27.9900 C.3   450  DMQ450      0.0489
     28  C62      -12.6300   14.7490   28.6930 C.ar  450  DMQ450     -0.0204
     29  C63      -13.5710   14.9570   29.7280 C.ar  450  DMQ450     -0.0042
     30  C64      -14.0680   13.8600   30.4630 C.ar  450  DMQ450     -0.0003
     31  C65      -13.6190   12.5510   30.1560 C.ar  450  DMQ450     -0.0000
     32  C66      -12.6880   12.3410   29.1150 C.ar  450  DMQ450     -0.0003
     33  C67      -12.1960   13.4420   28.3790 C.ar  450  DMQ450     -0.0042
     34  C70       -9.6150   15.6560   31.4860 C.ar  450  DMQ450     -0.0009
     35  C71      -10.4380   15.1530   32.5130 C.ar  450  DMQ450      0.0154
     36  C72      -10.4500   15.8150   33.7560 C.ar  450  DMQ450      0.0888
     37  N79      -11.3130   15.3560   34.7930 N.pl3 450  DMQ450     -0.1281
     38  C77       -9.6380   16.9480   33.9860 C.ar  450  DMQ450      0.0180
     39  C78       -8.8010   17.4480   32.9680 C.ar  450  DMQ450      0.0011
     40  C79       -8.8000   16.8010   31.7160 C.ar  450  DMQ450     -0.0025
@<TRIPOS>BOND
     1    18    17    1
     2    16    17   ar
     3    16    15   ar
     4    17    19   ar
     5    15    14   ar
     6    19    13   ar
     7    14    13   ar
     8    13     4    1
     9    25    24   ar
    10    25    26   ar
    11     4     3    1
    12    24    23   ar
    13    26    21   ar
    14     7     6    1
    15     3     5    1
    16     3     1   am
    17     5     6    1
    18     5    20    1
    19    23    22   ar
    20    21    22   ar
    21    21    20    1
    22     6     8    1
    23     1     2    2
    24     1    12   am
    25    27    28    1
    26    27    10    1
    27    33    28   ar
    28    33    32   ar
    29     8    10    1
    30     8     9    1
    31    28    29   ar
    32    10    12    1
    33    12    11    1
    34    32    31   ar
    35    29    30   ar
    36    11    34    1
    37    31    30   ar
    38    34    40   ar
    39    34    35   ar
    40    40    39   ar
    41    35    36   ar
    42    39    38   ar
    43    36    38   ar
    44    36    37    1
