@<TRIPOS>MOLECULE
1mes_DMP_B_1.pdb
 42 46 0 0 0
SMALL
GASTEIGER

@<TRIPOS>ATOM
      1  C1        -8.8690   15.3780   27.9640 C.2   323  DMP323      0.3077
      2  C3        -8.8150   17.6720   26.9600 C.3   323  DMP323      0.1144
      3  C4       -10.1990   18.2480   27.1790 C.3   323  DMP323      0.2021
      4  C5       -10.6690   18.0060   28.5980 C.3   323  DMP323      0.2021
      5  C6       -10.9090   16.5410   28.8850 C.3   323  DMP323      0.1144
      6  C20       -8.0110   15.6060   25.7700 C.3   323  DMP323      0.1217
      7  C21       -8.4740   16.0510   24.4250 C.ar  323  DMP323     -0.0023
      8  C22       -9.8360   16.2820   24.1300 C.ar  323  DMP323     -0.0029
      9  C23      -10.2050   16.6360   22.8130 C.ar  323  DMP323     -0.0020
     10  C24       -9.2050   16.7570   21.8170 C.ar  323  DMP323      0.0106
     11  C25       -7.8480   16.5230   22.1380 C.ar  323  DMP323     -0.0020
     12  C26       -7.4760   16.1780   23.4460 C.ar  323  DMP323     -0.0029
     13  C27       -9.5860   17.1040   20.3970 C.3   323  DMP323      0.2086
     14  C30       -7.7040   18.2790   27.8410 C.3   323  DMP323      0.0489
     15  C31       -6.3320   18.1200   27.2130 C.ar  323  DMP323     -0.0204
     16  C32       -5.3460   17.3470   27.8630 C.ar  323  DMP323     -0.0042
     17  C33       -4.0940   17.1680   27.2500 C.ar  323  DMP323     -0.0003
     18  C34       -3.8330   17.7550   25.9940 C.ar  323  DMP323     -0.0000
     19  C35       -4.8120   18.5290   25.3420 C.ar  323  DMP323     -0.0003
     20  C36       -6.0630   18.7170   25.9540 C.ar  323  DMP323     -0.0042
     21  C60      -12.0110   15.8760   28.0250 C.3   323  DMP323      0.0489
     22  C61      -12.5700   14.6220   28.6600 C.ar  323  DMP323     -0.0204
     23  C62      -12.2080   13.3540   28.1470 C.ar  323  DMP323     -0.0042
     24  C63      -12.6840   12.1840   28.7780 C.ar  323  DMP323     -0.0003
     25  C64      -13.5110   12.2900   29.9170 C.ar  323  DMP323     -0.0000
     26  C65      -13.8760   13.5600   30.4250 C.ar  323  DMP323     -0.0003
     27  C66      -13.4090   14.7330   29.7980 C.ar  323  DMP323     -0.0042
     28  C70       -9.6290   14.7530   30.1140 C.3   323  DMP323      0.1217
     29  C71       -9.7200   15.3630   31.4700 C.ar  323  DMP323     -0.0023
     30  C72      -10.3660   14.5760   32.4350 C.ar  323  DMP323     -0.0029
     31  C73      -10.4170   15.0250   33.7550 C.ar  323  DMP323     -0.0020
     32  C74       -9.8390   16.2670   34.1110 C.ar  323  DMP323      0.0106
     33  C75       -9.1970   17.0610   33.1310 C.ar  323  DMP323     -0.0020
     34  C76       -9.1430   16.6120   31.7980 C.ar  323  DMP323     -0.0029
     35  C77       -9.8900   16.7290   35.5450 C.3   323  DMP323      0.2086
     36  N2        -8.6580   16.2070   26.9250 N.am  323  DMP323     -0.2586
     37  N7        -9.7360   15.6380   28.9630 N.am  323  DMP323     -0.2586
     38  O1        -8.2480   14.3240   27.9980 O.2   323  DMP323     -0.2523
     39  O4       -10.0730   19.6260   26.9030 O.3   323  DMP323     -0.2186
     40  O5       -11.8890   18.6590   28.8310 O.3   323  DMP323     -0.2186
     41  O27       -8.7340   18.1270   19.8620 O.3   323  DMP323     -0.2152
     42  O77      -11.1950   16.5170   36.1030 O.3   323  DMP323     -0.2152
@<TRIPOS>BOND
     1    41    13    1
     2    13    10    1
     3    10    11   ar
     4    10     9   ar
     5    11    12   ar
     6     9     8   ar
     7    12     7   ar
     8     8     7   ar
     9     7     6    1
    10    19    20   ar
    11    19    18   ar
    12     6    36    1
    13    20    15   ar
    14    18    17   ar
    15    39     3    1
    16    36     2    1
    17    36     1   am
    18     2     3    1
    19     2    14    1
    20     3     4    1
    21    15    14    1
    22    15    16   ar
    23    17    16   ar
    24     1    38    2
    25     1    37   am
    26    21    22    1
    27    21     5    1
    28    23    22   ar
    29    23    24   ar
    30     4    40    1
    31     4     5    1
    32    22    27   ar
    33    24    25   ar
    34     5    37    1
    35    37    28    1
    36    27    26   ar
    37    25    26   ar
    38    28    29    1
    39    29    34   ar
    40    29    30   ar
    41    34    33   ar
    42    30    31   ar
    43    33    32   ar
    44    31    32   ar
    45    32    35    1
    46    35    42    1
