@<TRIPOS>MOLECULE
1met_DMP_A_1.pdb
 42 46 0 0 0
SMALL
GASTEIGER

@<TRIPOS>ATOM
      1  C1        -8.7770   15.3010   27.8890 C.2   323  DMP323      0.3077
      2  C3        -8.7100   17.6000   26.9240 C.3   323  DMP323      0.1144
      3  C4       -10.0870   18.1860   27.1820 C.3   323  DMP323      0.2021
      4  C5       -10.4930   17.9640   28.6200 C.3   323  DMP323      0.2021
      5  C6       -10.7880   16.4950   28.8410 C.3   323  DMP323      0.1144
      6  C20       -8.0250   15.5160   25.6460 C.3   323  DMP323      0.1217
      7  C21       -8.5450   15.9430   24.3020 C.ar  323  DMP323     -0.0023
      8  C22       -9.9210   15.9490   23.9570 C.ar  323  DMP323     -0.0029
      9  C23      -10.3040   16.2940   22.6350 C.ar  323  DMP323     -0.0020
     10  C24       -9.3040   16.6360   21.6830 C.ar  323  DMP323      0.0106
     11  C25       -7.9440   16.6210   22.0570 C.ar  323  DMP323     -0.0020
     12  C26       -7.5640   16.2850   23.3600 C.ar  323  DMP323     -0.0029
     13  C27       -9.6800   17.0140   20.2630 C.3   323  DMP323      0.2086
     14  C30       -7.5900   18.1460   27.8350 C.3   323  DMP323      0.0489
     15  C31       -6.2190   17.9960   27.2150 C.ar  323  DMP323     -0.0204
     16  C32       -5.3030   17.0730   27.7590 C.ar  323  DMP323     -0.0042
     17  C33       -4.0530   16.8940   27.1410 C.ar  323  DMP323     -0.0003
     18  C34       -3.7290   17.6330   25.9840 C.ar  323  DMP323     -0.0000
     19  C35       -4.6440   18.5670   25.4400 C.ar  323  DMP323     -0.0003
     20  C36       -5.8920   18.7560   26.0610 C.ar  323  DMP323     -0.0042
     21  C60      -11.9060   15.9210   27.9330 C.3   323  DMP323      0.0489
     22  C61      -12.3890   14.6450   28.5370 C.ar  323  DMP323     -0.0204
     23  C62      -12.9630   14.6720   29.8380 C.ar  323  DMP323     -0.0042
     24  C63      -13.2290   13.4580   30.5050 C.ar  323  DMP323     -0.0003
     25  C64      -12.9400   12.2340   29.8530 C.ar  323  DMP323     -0.0000
     26  C65      -12.3970   12.2170   28.5470 C.ar  323  DMP323     -0.0003
     27  C66      -12.1190   13.4290   27.8840 C.ar  323  DMP323     -0.0042
     28  C70       -9.4760   14.6790   30.0410 C.3   323  DMP323      0.1217
     29  C71       -9.5560   15.3150   31.3880 C.ar  323  DMP323     -0.0023
     30  C72      -10.3360   14.6180   32.3230 C.ar  323  DMP323     -0.0029
     31  C73      -10.4310   15.1130   33.6230 C.ar  323  DMP323     -0.0020
     32  C74       -9.7550   16.3000   33.9910 C.ar  323  DMP323      0.0106
     33  C75       -8.9690   17.0130   33.0410 C.ar  323  DMP323     -0.0020
     34  C76       -8.8710   16.5100   31.7250 C.ar  323  DMP323     -0.0029
     35  C77       -9.8550   16.7910   35.4140 C.3   323  DMP323      0.2086
     36  N2        -8.5940   16.1300   26.8430 N.am  323  DMP323     -0.2586
     37  N7        -9.6380   15.5530   28.8930 N.am  323  DMP323     -0.2586
     38  O1        -8.1270   14.2670   27.9320 O.2   323  DMP323     -0.2523
     39  O4        -9.9770   19.5490   26.8670 O.3   323  DMP323     -0.2186
     40  O5       -11.6980   18.5880   28.9110 O.3   323  DMP323     -0.2186
     41  O27       -8.8040   18.0230   19.7360 O.3   323  DMP323     -0.2152
     42  O77      -11.1570   16.5280   35.9670 O.3   323  DMP323     -0.2152
@<TRIPOS>BOND
     1    41    13    1
     2    13    10    1
     3    10    11   ar
     4    10     9   ar
     5    11    12   ar
     6     9     8   ar
     7    12     7   ar
     8     8     7   ar
     9     7     6    1
    10    19    18   ar
    11    19    20   ar
    12     6    36    1
    13    18    17   ar
    14    20    15   ar
    15    36     2    1
    16    36     1   am
    17    39     3    1
    18     2     3    1
    19     2    14    1
    20    17    16   ar
    21     3     4    1
    22    15    16   ar
    23    15    14    1
    24    27    22   ar
    25    27    26   ar
    26     1    38    2
    27     1    37   am
    28    21    22    1
    29    21     5    1
    30    22    23   ar
    31    26    25   ar
    32     4     5    1
    33     4    40    1
    34     5    37    1
    35    37    28    1
    36    23    24   ar
    37    25    24   ar
    38    28    29    1
    39    29    34   ar
    40    29    30   ar
    41    34    33   ar
    42    30    31   ar
    43    33    32   ar
    44    31    32   ar
    45    32    35    1
    46    35    42    1
