@<TRIPOS>MOLECULE
1meu_DMP_A_1.pdb
 42 46 0 0 0
SMALL
GASTEIGER

@<TRIPOS>ATOM
      1  C1        -8.9480   15.3110   27.9210 C.2   323  DMP323      0.3077
      2  C3        -8.6760   17.6560   27.2240 C.3   323  DMP323      0.1144
      3  C4       -10.0640   18.2430   27.2450 C.3   323  DMP323      0.2021
      4  C5       -10.7080   17.9730   28.5820 C.3   323  DMP323      0.2021
      5  C6       -10.9750   16.4990   28.7890 C.3   323  DMP323      0.1144
      6  C20       -7.8700   15.6920   25.8380 C.3   323  DMP323      0.1217
      7  C21       -8.4010   16.0210   24.4780 C.ar  323  DMP323     -0.0023
      8  C22       -9.7730   16.1280   24.1590 C.ar  323  DMP323     -0.0029
      9  C23      -10.1730   16.4560   22.8430 C.ar  323  DMP323     -0.0020
     10  C24       -9.1950   16.6400   21.8460 C.ar  323  DMP323      0.0106
     11  C25       -7.8230   16.5290   22.1780 C.ar  323  DMP323     -0.0020
     12  C26       -7.4350   16.2030   23.4820 C.ar  323  DMP323     -0.0029
     13  C27       -9.5970   17.0020   20.4320 C.3   323  DMP323      0.2086
     14  C30       -7.7430   18.0420   28.3950 C.3   323  DMP323      0.0489
     15  C31       -6.3540   18.3110   27.8950 C.ar  323  DMP323     -0.0204
     16  C32       -5.4370   17.2620   27.6650 C.ar  323  DMP323     -0.0042
     17  C33       -4.1790   17.5510   27.0960 C.ar  323  DMP323     -0.0003
     18  C34       -3.8420   18.8820   26.7590 C.ar  323  DMP323     -0.0000
     19  C35       -4.7540   19.9340   27.0010 C.ar  323  DMP323     -0.0003
     20  C36       -6.0140   19.6420   27.5600 C.ar  323  DMP323     -0.0042
     21  C60      -12.0060   15.8310   27.8720 C.3   323  DMP323      0.0489
     22  C61      -12.7110   14.6720   28.5480 C.ar  323  DMP323     -0.0204
     23  C62      -13.8040   14.9400   29.4110 C.ar  323  DMP323     -0.0042
     24  C63      -14.4640   13.8730   30.0590 C.ar  323  DMP323     -0.0003
     25  C64      -14.0350   12.5430   29.8410 C.ar  323  DMP323     -0.0000
     26  C65      -12.9410   12.2760   28.9840 C.ar  323  DMP323     -0.0003
     27  C66      -12.2890   13.3390   28.3240 C.ar  323  DMP323     -0.0042
     28  C70       -9.7870   14.7330   30.0520 C.3   323  DMP323      0.1217
     29  C71       -9.8780   15.3740   31.3940 C.ar  323  DMP323     -0.0023
     30  C72      -10.7030   14.6960   32.3090 C.ar  323  DMP323     -0.0029
     31  C73      -10.7340   15.1090   33.6420 C.ar  323  DMP323     -0.0020
     32  C74       -9.9590   16.2170   34.0610 C.ar  323  DMP323      0.0106
     33  C75       -9.1390   16.9140   33.1290 C.ar  323  DMP323     -0.0020
     34  C76       -9.1080   16.5000   31.7760 C.ar  323  DMP323     -0.0029
     35  C77       -9.9760   16.6140   35.5210 C.3   323  DMP323      0.2086
     36  N2        -8.5810   16.2070   27.0070 N.am  323  DMP323     -0.2586
     37  N7        -9.8390   15.5840   28.8890 N.am  323  DMP323     -0.2586
     38  O1        -8.4320   14.2080   27.8780 O.2   323  DMP323     -0.2523
     39  O4        -9.8800   19.6180   27.0300 O.3   323  DMP323     -0.2186
     40  O5       -11.9580   18.6050   28.6680 O.3   323  DMP323     -0.2186
     41  O27       -8.6890   17.9530   19.8460 O.3   323  DMP323     -0.2152
     42  O77      -11.2820   16.5130   36.0970 O.3   323  DMP323     -0.2152
@<TRIPOS>BOND
     1    41    13    1
     2    13    10    1
     3    10    11   ar
     4    10     9   ar
     5    11    12   ar
     6     9     8   ar
     7    12     7   ar
     8     8     7   ar
     9     7     6    1
    10     6    36    1
    11    18    19   ar
    12    18    17   ar
    13    19    20   ar
    14    36     2    1
    15    36     1   am
    16    39     3    1
    17    17    16   ar
    18     2     3    1
    19     2    14    1
    20     3     4    1
    21    20    15   ar
    22    16    15   ar
    23    21    22    1
    24    21     5    1
    25    38     1    2
    26    15    14    1
    27     1    37   am
    28    27    22   ar
    29    27    26   ar
    30    22    23   ar
    31     4    40    1
    32     4     5    1
    33     5    37    1
    34    37    28    1
    35    26    25   ar
    36    23    24   ar
    37    25    24   ar
    38    28    29    1
    39    29    34   ar
    40    29    30   ar
    41    34    33   ar
    42    30    31   ar
    43    33    32   ar
    44    31    32   ar
    45    32    35    1
    46    35    42    1
