@<TRIPOS>MOLECULE
1mew_XMP_A_1.pdb
 24 26 0 0 0
SMALL
GASTEIGER

@<TRIPOS>ATOM
      1  P         67.4020   54.8420   14.9040 P.3   602  XMP602      0.5327
      2  O1P       67.0020   54.7890   13.4860 O.2   602  XMP602     -0.2224
      3  O2P       68.1900   53.6900   15.3790 O.3   602  XMP602     -0.1145
      4  O5'       66.0750   54.8230   15.6990 O.3   602  XMP602     -0.2675
      5  O3P       67.9540   56.1400   15.3230 O.3   602  XMP602     -0.1145
      6  C5'       65.0780   53.7670   15.8140 C.3   602  XMP602      0.1859
      7  C4'       63.9850   54.0020   16.8860 C.3   602  XMP602      0.1801
      8  O4'       63.1440   55.1240   16.6010 O.3   602  XMP602     -0.3326
      9  C1'       61.8030   55.0410   17.0600 C.3   602  XMP602      0.2293
     10  N9        60.8630   55.3460   15.9250 N.pl3 602  XMP602     -0.2353
     11  C4        60.3960   56.5850   15.5330 C.2   602  XMP602      0.2316
     12  N3        60.6810   57.8090   16.0830 N.2   602  XMP602     -0.2901
     13  N1        59.2020   58.6460   14.3580 N.2   602  XMP602     -0.2311
     14  C2        60.0530   58.8360   15.4540 C.1   602  XMP602      0.3668
     15  O2        60.2290   59.9830   15.8580 O.2   602  XMP602     -0.1744
     16  C6        58.8970   57.4070   13.7810 C.1   602  XMP602      0.2388
     17  O6        58.1480   57.3080   12.8250 O.2   602  XMP602     -0.2068
     18  C5        59.5560   56.3360   14.4390 C.2   602  XMP602      0.2183
     19  N7        59.4980   55.0050   14.1540 N.2   602  XMP602     -0.2322
     20  C8        60.2630   54.4940   15.0360 C.3   602  XMP602      0.2246
     21  C2'       61.7880   53.6530   17.7330 C.3   602  XMP602      0.2310
     22  O2'       61.9470   53.8800   19.1320 O.3   602  XMP602     -0.2158
     23  C3'       62.9430   52.9270   17.0240 C.3   602  XMP602      0.2158
     24  O3'       63.3880   51.7980   17.7680 O.3   602  XMP602     -0.2175
@<TRIPOS>BOND
     1    17    16    2
     2     2     1    2
     3    16    13    2
     4    16    18    1
     5    19    18    2
     6    19    20    1
     7    13    14    2
     8    18    11    1
     9     1     5    1
    10     1     3    1
    11     1     4    1
    12    20    10    1
    13    14    15    2
    14    14    12    2
    15    11    10    1
    16    11    12    2
    17     4     6    1
    18     6     7    1
    19    10     9    1
    20     8     7    1
    21     8     9    1
    22     7    23    1
    23    23    21    1
    24    23    24    1
    25     9    21    1
    26    21    22    1
