@<TRIPOS>MOLECULE
1mew_NAD_A_1.pdb
 44 48 0 0 0
SMALL
GASTEIGER

@<TRIPOS>ATOM
      1  PA        50.6340   53.8880   20.4520 P.3   987  NAD987      0.2189
      2  O1A       49.6860   52.8110   20.0840 O.2   987  NAD987     -0.5170
      3  O2A       51.6220   53.6190   21.5190 O.3   987  NAD987     -0.4371
      4  O5B       49.8070   55.2220   20.8250 O.3   987  NAD987     -0.3112
      5  C5B       48.8360   55.1900   21.8790 C.3   987  NAD987      0.1813
      6  C4B       48.1580   56.5750   22.0180 C.3   987  NAD987      0.1821
      7  O4B       47.0530   56.4060   22.9930 O.3   987  NAD987     -0.3135
      8  C3B       47.4580   56.9860   20.7190 C.3   987  NAD987      0.2184
      9  O3B       48.1850   56.4910   19.5870 O.3   987  NAD987     -0.2174
     10  C2B       46.1170   56.3090   20.7940 C.3   987  NAD987      0.2570
     11  O2B       46.2580   54.9250   20.4440 O.3   987  NAD987     -0.2130
     12  C1B       45.7660   56.4390   22.2720 C.3   987  NAD987      0.3186
     13  N9A       44.7840   55.4120   22.7310 N.pl3 987  NAD987     -0.1439
     14  C8A       43.4600   55.5830   22.8650 C.3   987  NAD987      0.3377
     15  N7A       42.9080   54.4310   23.2740 N.2   987  NAD987     -0.2095
     16  C5A       43.8800   53.5380   23.3990 C.2   987  NAD987      0.2526
     17  C6A       43.9200   52.2000   23.7810 C.2   987  NAD987      0.4393
     18  N6A       42.8030   51.5580   24.1050 N.pl3 987  NAD987      0.2180
     19  N1A       45.1080   51.5530   23.8100 N.2   987  NAD987      0.0021
     20  C2A       46.2410   52.1790   23.4760 C.3   987  NAD987      0.5254
     21  N3A       46.2280   53.4620   23.1050 N.2   987  NAD987     -0.0055
     22  C4A       45.0690   54.1570   23.0590 C.2   987  NAD987      0.3518
     23  O3        51.4120   54.3160   19.1010 O.3   987  NAD987     -0.2703
     24  PN        52.6340   55.3830   19.1260 P.3   987  NAD987      0.2189
     25  O1N       53.1030   55.5720   20.5190 O.3   987  NAD987     -0.4371
     26  O2N       52.2500   56.5780   18.3410 O.2   987  NAD987     -0.5170
     27  O5D       53.8070   54.6130   18.3430 O.3   987  NAD987     -0.3112
     28  C5D       53.5380   53.9540   17.1010 C.3   987  NAD987      0.1813
     29  C4D       54.8440   53.5770   16.3810 C.3   987  NAD987      0.1799
     30  O4D       55.5360   54.8460   16.0490 O.3   987  NAD987     -0.3327
     31  C3D       55.7870   52.8490   17.3330 C.3   987  NAD987      0.2158
     32  O3D       56.6290   51.9480   16.6110 O.3   987  NAD987     -0.2175
     33  C2D       56.6150   53.9360   17.9510 C.3   987  NAD987      0.2309
     34  O2D       57.8960   53.4350   18.3330 O.3   987  NAD987     -0.2158
     35  C1D       56.7840   54.9330   16.8180 C.3   987  NAD987      0.2263
     36  N1N       57.1330   56.3180   17.2540 N.pl3 987  NAD987     -0.2787
     37  C2N       58.2170   56.5370   18.1520 C.3   987  NAD987      0.1244
     38  C3N       58.5490   57.8470   18.5380 C.2   987  NAD987      0.0544
     39  C7N       59.7150   58.1030   19.5140 C.2   987  NAD987      0.2818
     40  O7N       60.1340   59.2450   19.7120 O.2   987  NAD987     -0.2670
     41  N7N       60.2200   57.0160   20.1030 N.am  987  NAD987     -0.0839
     42  C4N       57.8060   58.9290   18.0300 C.2   987  NAD987      0.0033
     43  C5N       56.7340   58.7230   17.1440 C.2   987  NAD987      0.0157
     44  C6N       56.3930   57.4210   16.7530 C.2   987  NAD987      0.0633
@<TRIPOS>BOND
     1    30    29    1
     2    30    35    1
     3    29    28    1
     4    29    31    1
     5    32    31    1
     6    44    43    2
     7    44    36    1
     8    35    36    1
     9    35    33    1
    10    28    27    1
    11    43    42    1
    12    36    37    1
    13    31    33    1
    14    33    34    1
    15    42    38    2
    16    37    38    1
    17    26    24    2
    18    27    24    1
    19    38    39    1
    20    23    24    1
    21    23     1    1
    22    24    25    1
    23    39    40    2
    24    39    41   am
    25     9     8    1
    26     2     1    2
    27    11    10    1
    28     1     4    1
    29     1     3    1
    30     8    10    1
    31     8     6    1
    32    10    12    1
    33     4     5    1
    34     5     6    1
    35     6     7    1
    36    12    13    1
    37    12     7    1
    38    13    14    1
    39    13    22    1
    40    14    15    1
    41    22    21    2
    42    22    16    1
    43    21    20    1
    44    15    16    2
    45    16    17    1
    46    20    19    1
    47    17    19    2
    48    17    18    1
