@<TRIPOS>MOLECULE
1mex_RAC_H_1.pdb
 25 26 0 0 0
SMALL
GASTEIGER

@<TRIPOS>ATOM
      1  C1         2.0540   14.2950   24.3750 C.ar  601  RAC601      0.0002
      2  C2         1.9280   13.9500   25.7170 C.ar  601  RAC601      0.0058
      3  C3         0.7950   14.2950   26.4620 C.ar  601  RAC601      0.0690
      4  C4        -0.2640   15.0380   25.8430 C.ar  601  RAC601      0.0810
      5  C5        -0.0760   15.3880   24.5170 C.ar  601  RAC601      0.0169
      6  C6         1.0370   15.0090   23.8110 C.ar  601  RAC601      0.0013
      7  C7         0.7570   13.8880   27.9430 C.2   601  RAC601      0.2504
      8  N1        -0.3000   13.1570   28.3900 N.am  601  RAC601     -0.2725
      9  C8        -1.3330   12.4720   27.5940 C.3   601  RAC601      0.1152
     10  C9        -0.3540   12.8610   29.8710 C.3   601  RAC601      0.1152
     11  O1         1.5460   14.4230   28.7190 O.2   601  RAC601     -0.2699
     12  N2        -1.4250   15.3740   26.3820 N.am  601  RAC601     -0.1423
     13  C10       -1.6180   16.0130   27.6050 C.2   601  RAC601      0.4257
     14  O2        -0.5940   16.3130   28.2560 O.2   601  RAC601     -0.2242
     15  O3        -2.8760   16.1920   28.0190 O.3   601  RAC601     -0.4283
     16  C11       -2.9670   16.8150   29.3270 C.3   601  RAC601      0.2368
     17  C12       -2.9670   15.8730   30.5330 C.ar  601  RAC601      0.0213
     18  C13       -3.5160   14.6120   30.4130 C.ar  601  RAC601     -0.0005
     19  C14       -3.5820   13.7840   31.5020 C.ar  601  RAC601      0.0064
     20  C15       -3.1110   14.1810   32.7530 C.ar  601  RAC601      0.0798
     21  C16       -2.5520   15.4460   32.8600 C.ar  601  RAC601      0.0064
     22  C17       -2.4440   16.2910   31.7590 C.ar  601  RAC601     -0.0005
     23  C18       -3.2570   13.2000   33.8940 C.2   601  RAC601      0.3878
     24  O4        -3.9060   12.1290   33.7140 O.co2 601  RAC601     -0.2406
     25  O5        -2.7510   13.5240   34.9940 O.co2 601  RAC601     -0.2406
@<TRIPOS>BOND
     1     6     1   ar
     2     6     5   ar
     3     1     2   ar
     4     5     4   ar
     5     2     3   ar
     6     4    12    1
     7     4     3   ar
     8    12    13   am
     9     3     7    1
    10     9     8    1
    11    13    15    1
    12    13    14    2
    13     7     8   am
    14     7    11    2
    15    15    16    1
    16     8    10    1
    17    16    17    1
    18    18    17   ar
    19    18    19   ar
    20    17    22   ar
    21    19    20   ar
    22    22    21   ar
    23    20    21   ar
    24    20    23    1
    25    24    23   ar
    26    23    25   ar
