@<TRIPOS>MOLECULE
1mez_GDP_A_1.pdb
 28 30 0 0 0
SMALL
GASTEIGER

@<TRIPOS>ATOM
      1  PB        65.4650   53.0750   35.5540 P.3   1452  GDP1452     0.5373
      2  O1B       65.2310   51.9140   36.5100 O.3   1452  GDP1452    -0.1143
      3  O2B       64.7680   54.3620   35.9630 O.3   1452  GDP1452    -0.1143
      4  O3B       66.9360   53.2990   35.2450 O.2   1452  GDP1452    -0.2221
      5  O3A       64.8030   52.6100   34.1410 O.3   1452  GDP1452    -0.2261
      6  PA        63.2180   52.6870   33.7860 P.3   1452  GDP1452     0.2231
      7  O1A       62.6310   51.4700   34.3990 O.3   1452  GDP1452    -0.4370
      8  O2A       62.7300   54.0260   34.2210 O.2   1452  GDP1452    -0.5169
      9  O5'       63.0220   52.5910   32.2080 O.3   1452  GDP1452    -0.3111
     10  C5'       63.7930   51.6890   31.4250 C.3   1452  GDP1452     0.1813
     11  C4'       62.8920   50.7390   30.6640 C.3   1452  GDP1452     0.1799
     12  O4'       63.6740   49.9380   29.7460 O.3   1452  GDP1452    -0.3326
     13  C3'       62.0980   49.7550   31.5130 C.3   1452  GDP1452     0.2158
     14  O3'       60.7710   49.6490   31.0110 O.3   1452  GDP1452    -0.2175
     15  C2'       62.8920   48.4630   31.3790 C.3   1452  GDP1452     0.2310
     16  O2'       62.1280   47.2910   31.5690 O.3   1452  GDP1452    -0.2158
     17  C1'       63.3870   48.5710   29.9430 C.3   1452  GDP1452     0.2293
     18  N9        64.6260   47.8410   29.7330 N.pl3 1452  GDP1452    -0.2354
     19  C8        65.7050   47.7930   30.5820 C.3   1452  GDP1452     0.2246
     20  N7        66.7000   47.0980   30.1050 N.2   1452  GDP1452    -0.2322
     21  C5        66.2450   46.6520   28.8710 C.2   1452  GDP1452     0.2182
     22  C6        66.8880   45.8640   27.8950 C.1   1452  GDP1452     0.2372
     23  O6        68.0300   45.3940   27.9230 O.2   1452  GDP1452    -0.2069
     24  N1        66.0630   45.6350   26.7930 N.2   1452  GDP1452    -0.2485
     25  C2        64.7800   46.1080   26.6550 C.1   1452  GDP1452     0.2531
     26  N2        64.1420   45.7650   25.5320 N.pl3 1452  GDP1452    -0.0226
     27  N3        64.1710   46.8610   27.5580 N.2   1452  GDP1452    -0.3074
     28  C4        64.9590   47.0900   28.6340 C.2   1452  GDP1452     0.2300
@<TRIPOS>BOND
     1    26    25    1
     2    25    24    2
     3    25    27    2
     4    24    22    2
     5    27    28    2
     6    22    23    2
     7    22    21    1
     8    28    21    1
     9    28    18    1
    10    21    20    2
    11    18    17    1
    12    18    19    1
    13    12    17    1
    14    12    11    1
    15    17    15    1
    16    20    19    1
    17    11    10    1
    18    11    13    1
    19    14    13    1
    20    15    13    1
    21    15    16    1
    22    10     9    1
    23     9     6    1
    24     6     5    1
    25     6     8    2
    26     6     7    1
    27     5     1    1
    28     4     1    2
    29     1     3    1
    30     1     2    1
