@<TRIPOS>MOLECULE
1mez_2SA_A_1.pdb
 31 33 0 0 0
SMALL
GASTEIGER

@<TRIPOS>ATOM
      1  PA        62.0760   66.5040   39.2740 P.3   1455  2SA1455     0.5327
      2  O1A       60.6200   66.0670   39.2950 O.2   1455  2SA1455    -0.2224
      3  O2A       62.3040   67.7800   40.0580 O.3   1455  2SA1455    -0.1145
      4  O3A       62.9990   65.3690   39.6680 O.3   1455  2SA1455    -0.1145
      5  O5'       62.4170   66.8880   37.7230 O.3   1455  2SA1455    -0.2675
      6  C5'       63.6710   67.5100   37.3650 C.3   1455  2SA1455     0.1860
      7  C4'       64.2730   66.8020   36.1790 C.3   1455  2SA1455     0.1823
      8  O4'       64.6000   65.4350   36.5490 O.3   1455  2SA1455    -0.3135
      9  C1'       64.1100   64.5580   35.5620 C.3   1455  2SA1455     0.3186
     10  N9        63.6690   63.3250   36.2000 N.pl3 1455  2SA1455    -0.1439
     11  C4        63.6700   62.0840   35.6150 C.2   1455  2SA1455     0.3517
     12  N3        64.1920   61.7470   34.4230 N.2   1455  2SA1455    -0.0055
     13  C2        63.9380   60.4710   34.1450 C.3   1455  2SA1455     0.5253
     14  N1        63.2500   59.5720   34.8560 N.2   1455  2SA1455    -0.0020
     15  C6        62.7180   59.9530   36.0420 C.2   1455  2SA1455     0.3859
     16  N6        61.7330   59.1870   36.6640 N.pl3 1455  2SA1455    -0.0218
     17  C61       60.5480   58.9850   35.8040 C.3   1455  2SA1455     0.3175
     18  C62       60.7830   57.8610   34.8000 C.2   1455  2SA1455     0.4115
     19  C63       60.1520   60.2930   35.0740 C.3   1455  2SA1455     0.1768
     20  C64       58.9040   60.1370   34.1880 C.2   1455  2SA1455     0.3697
     21  O65       61.0600   56.7340   35.2680 O.co2 1455  2SA1455    -0.2410
     22  O66       60.6910   58.1060   33.5740 O.co2 1455  2SA1455    -0.2410
     23  O67       58.0400   59.2770   34.4730 O.co2 1455  2SA1455    -0.2455
     24  O68       58.7790   60.8940   33.2030 O.co2 1455  2SA1455    -0.2455
     25  C5        62.9620   61.2650   36.4750 C.2   1455  2SA1455     0.2478
     26  N7        62.6090   61.9530   37.6290 N.2   1455  2SA1455    -0.2097
     27  C8        63.0710   63.1640   37.4270 C.3   1455  2SA1455     0.3377
     28  C2'       62.8680   65.2630   35.0270 C.3   1455  2SA1455     0.2570
     29  O2'       62.4180   64.7140   33.8090 O.3   1455  2SA1455    -0.2130
     30  C3'       63.3350   66.7080   34.9810 C.3   1455  2SA1455     0.2184
     31  O3'       63.9760   67.0760   33.7650 O.3   1455  2SA1455    -0.2174
@<TRIPOS>BOND
     1    24    20   ar
     2    22    18   ar
     3    31    30    1
     4    29    28    1
     5    13    12    1
     6    13    14    1
     7    20    23   ar
     8    20    19    1
     9    12    11    2
    10    18    21   ar
    11    18    17    1
    12    14    15    2
    13    30    28    1
    14    30     7    1
    15    28     9    1
    16    19    17    1
    17     9    10    1
    18     9     8    1
    19    11    10    1
    20    11    25    1
    21    17    16    1
    22    15    25    1
    23    15    16    1
    24     7     8    1
    25     7     6    1
    26    10    27    1
    27    25    26    2
    28     6     5    1
    29    27    26    1
    30     5     1    1
    31     1     2    2
    32     1     4    1
    33     1     3    1
