@<TRIPOS>MOLECULE
1mf0_AMP_A_1.pdb
 23 25 0 0 0
SMALL
GASTEIGER

@<TRIPOS>ATOM
      1  P         61.4200   66.9170   39.8730 P.3   1454  AMP1454     0.5327
      2  O1P       59.9390   66.5720   39.9700 O.2   1454  AMP1454    -0.2224
      3  O2P       61.7680   68.1460   40.6940 O.3   1454  AMP1454    -0.1145
      4  O3P       62.3040   65.7180   40.1670 O.3   1454  AMP1454    -0.1145
      5  O5'       61.7320   67.3040   38.3150 O.3   1454  AMP1454    -0.2675
      6  C5'       63.0190   67.8440   37.9180 C.3   1454  AMP1454     0.1860
      7  C4'       63.5960   67.0400   36.7720 C.3   1454  AMP1454     0.1823
      8  O4'       63.7690   65.6570   37.1670 O.3   1454  AMP1454    -0.3135
      9  C3'       62.7840   67.0320   35.4780 C.3   1454  AMP1454     0.2184
     10  O3'       63.5890   67.3570   34.3420 O.3   1454  AMP1454    -0.2174
     11  C2'       62.2130   65.6200   35.4160 C.3   1454  AMP1454     0.2570
     12  O2'       62.0280   65.1340   34.1010 O.3   1454  AMP1454    -0.2130
     13  C1'       63.2810   64.8120   36.1500 C.3   1454  AMP1454     0.3186
     14  N9        62.6760   63.6490   36.7880 N.pl3 1454  AMP1454    -0.1439
     15  C8        62.0000   63.6100   37.9850 C.3   1454  AMP1454     0.3377
     16  N7        61.5390   62.4210   38.2920 N.2   1454  AMP1454    -0.2095
     17  C5        61.9420   61.6240   37.2280 C.2   1454  AMP1454     0.2526
     18  C6        61.7620   60.2620   36.9510 C.2   1454  AMP1454     0.4393
     19  N6        61.0950   59.4310   37.7480 N.pl3 1454  AMP1454     0.2180
     20  N1        62.2990   59.7770   35.8070 N.2   1454  AMP1454     0.0021
     21  C2        62.9630   60.6160   35.0060 C.3   1454  AMP1454     0.5254
     22  N3        63.1920   61.9200   35.1540 N.2   1454  AMP1454    -0.0055
     23  C4        62.6500   62.3670   36.2990 C.2   1454  AMP1454     0.3518
@<TRIPOS>BOND
     1    12    11    1
     2    10     9    1
     3    21    22    1
     4    21    20    1
     5    22    23    2
     6    11     9    1
     7    11    13    1
     8     9     7    1
     9    20    18    2
    10    13    14    1
    11    13     8    1
    12    23    14    1
    13    23    17    1
    14     7     8    1
    15     7     6    1
    16    14    15    1
    17    18    17    1
    18    18    19    1
    19    17    16    2
    20     6     5    1
    21    15    16    1
    22     5     1    1
    23     1     2    2
    24     1     4    1
    25     1     3    1
