@<TRIPOS>MOLECULE
1mf0_GDP_A_1.pdb
 28 30 0 0 0
SMALL
GASTEIGER

@<TRIPOS>ATOM
      1  PB        64.5270   53.5300   36.4240 P.3   1452  GDP1452     0.5373
      2  O1B       64.3020   52.5350   37.5510 O.3   1452  GDP1452    -0.1143
      3  O2B       63.7600   54.8260   36.6270 O.3   1452  GDP1452    -0.1143
      4  O3B       65.9890   53.7710   36.1070 O.2   1452  GDP1452    -0.2221
      5  O3A       63.9110   52.8400   35.0820 O.3   1452  GDP1452    -0.2261
      6  PA        62.3370   52.9400   34.6730 P.3   1452  GDP1452     0.2231
      7  O1A       61.6670   51.7900   35.3260 O.3   1452  GDP1452    -0.4370
      8  O2A       61.9680   54.3230   35.0800 O.2   1452  GDP1452    -0.5169
      9  O5'       62.0550   52.8140   33.1130 O.3   1452  GDP1452    -0.3111
     10  C5'       62.8500   51.9740   32.2910 C.3   1452  GDP1452     0.1813
     11  C4'       61.9780   50.9930   31.5500 C.3   1452  GDP1452     0.1799
     12  O4'       62.7860   50.1810   30.6700 O.3   1452  GDP1452    -0.3326
     13  C3'       61.2000   50.0380   32.4420 C.3   1452  GDP1452     0.2158
     14  O3'       59.8420   49.9640   32.0200 O.3   1452  GDP1452    -0.2175
     15  C2'       61.9470   48.7160   32.3090 C.3   1452  GDP1452     0.2310
     16  O2'       61.0910   47.6010   32.4560 O.3   1452  GDP1452    -0.2158
     17  C1'       62.5060   48.8170   30.8920 C.3   1452  GDP1452     0.2293
     18  N9        63.7520   48.0890   30.6970 N.pl3 1452  GDP1452    -0.2354
     19  C8        64.8360   48.0500   31.5380 C.3   1452  GDP1452     0.2246
     20  N7        65.8280   47.3450   31.0600 N.2   1452  GDP1452    -0.2322
     21  C5        65.3610   46.8830   29.8350 C.2   1452  GDP1452     0.2182
     22  C6        65.9880   46.0640   28.8530 C.1   1452  GDP1452     0.2372
     23  O6        67.1220   45.5710   28.8620 O.2   1452  GDP1452    -0.2069
     24  N1        65.1450   45.8350   27.7690 N.2   1452  GDP1452    -0.2485
     25  C2        63.8660   46.3250   27.6410 C.1   1452  GDP1452     0.2531
     26  N2        63.2010   45.9850   26.5260 N.pl3 1452  GDP1452    -0.0226
     27  N3        63.2790   47.0900   28.5410 N.2   1452  GDP1452    -0.3074
     28  C4        64.0770   47.3260   29.6050 C.2   1452  GDP1452     0.2300
@<TRIPOS>BOND
     1    26    25    1
     2    25    24    2
     3    25    27    2
     4    24    22    2
     5    27    28    2
     6    22    23    2
     7    22    21    1
     8    28    21    1
     9    28    18    1
    10    21    20    2
    11    12    17    1
    12    12    11    1
    13    18    17    1
    14    18    19    1
    15    17    15    1
    16    20    19    1
    17    11    10    1
    18    11    13    1
    19    14    13    1
    20    10     9    1
    21    15    13    1
    22    15    16    1
    23     9     6    1
    24     6     8    2
    25     6     5    1
    26     6     7    1
    27     5     1    1
    28     4     1    2
    29     1     3    1
    30     1     2    1
