@<TRIPOS>MOLECULE
1mf1_AMP_A_1.pdb
 23 25 0 0 0
SMALL
GASTEIGER

@<TRIPOS>ATOM
      1  P         60.5400   66.9370   40.0230 P.3   459  AMP459      0.5327
      2  O1P       59.0280   66.8200   40.1240 O.2   459  AMP459     -0.2224
      3  O2P       61.0680   68.1630   40.7560 O.3   459  AMP459     -0.1145
      4  O3P       61.2430   65.6460   40.4180 O.3   459  AMP459     -0.1145
      5  O5'       60.8720   67.1550   38.4400 O.3   459  AMP459     -0.2675
      6  C5'       62.0800   67.8220   38.0110 C.3   459  AMP459      0.1860
      7  C4'       62.6240   67.1630   36.7670 C.3   459  AMP459      0.1823
      8  O4'       63.0080   65.7880   37.0400 O.3   459  AMP459     -0.3135
      9  C3'       61.6560   67.1100   35.5950 C.3   459  AMP459      0.2184
     10  O3'       62.3140   67.5020   34.3860 O.3   459  AMP459     -0.2174
     11  C2'       61.1670   65.6660   35.6340 C.3   459  AMP459      0.2570
     12  O2'       60.6850   65.1780   34.4060 O.3   459  AMP459     -0.2130
     13  C1'       62.4310   64.9380   36.0730 C.3   459  AMP459      0.3186
     14  N9        62.1720   63.6480   36.7100 N.pl3 459  AMP459     -0.1439
     15  C8        61.7660   63.4110   38.0000 C.3   459  AMP459      0.3377
     16  N7        61.6710   62.1370   38.3000 N.2   459  AMP459     -0.2095
     17  C5        62.0230   61.4900   37.1220 C.2   459  AMP459      0.2526
     18  C6        62.1380   60.1250   36.7840 C.2   459  AMP459      0.4393
     19  N6        61.8940   59.1200   37.6300 N.pl3 459  AMP459      0.2180
     20  N1        62.5200   59.8230   35.5270 N.2   459  AMP459      0.0021
     21  C2        62.7680   60.8220   34.6760 C.3   459  AMP459      0.5254
     22  N3        62.7000   62.1390   34.8730 N.2   459  AMP459     -0.0055
     23  C4        62.3210   62.4100   36.1320 C.2   459  AMP459      0.3518
@<TRIPOS>BOND
     1    10     9    1
     2    12    11    1
     3    21    22    1
     4    21    20    1
     5    22    23    2
     6    20    18    2
     7     9    11    1
     8     9     7    1
     9    11    13    1
    10    13    14    1
    11    13     8    1
    12    23    14    1
    13    23    17    1
    14    14    15    1
    15     7     8    1
    16     7     6    1
    17    18    17    1
    18    18    19    1
    19    17    16    2
    20    15    16    1
    21     6     5    1
    22     5     1    1
    23     1     2    2
    24     1     4    1
    25     1     3    1
