@<TRIPOS>MOLECULE
1mf4_III_B_1.pdb
 41 39 0 0 0
SMALL
GASTEIGER

@<TRIPOS>ATOM
      1  N         19.5260   13.8380    7.0960 N.3     1  VAL1       -0.1231
      2  CA        18.7340   12.9280    6.2230 C.3     1  VAL1        0.1692
      3  C         17.5550   12.2860    7.0130 C.2     1  VAL1        0.2592
      4  O         17.7640   11.3790    7.8250 O.2     1  VAL1       -0.2718
      5  CB        19.6780   11.9110    5.4580 C.3     1  VAL1        0.0266
      6  CG1       21.0390   12.5300    5.1810 C.3     1  VAL1        0.0020
      7  CG2       19.8720   10.6280    6.2070 C.3     1  VAL1        0.0020
      8  N         16.3350   12.8180    6.8190 N.am    2  ALA2       -0.1966
      9  CA        15.0890   12.2200    7.3800 C.3     2  ALA2        0.1728
     10  C         13.8640   11.9120    6.4290 C.2     2  ALA2        0.2616
     11  O         13.7680   10.7480    6.1670 O.2     2  ALA2       -0.2715
     12  CB        14.6370   12.9380    8.6630 C.3     2  ALA2        0.0334
     13  N         13.2070   12.9060    5.8000 N.am    3  PHE3       -0.1960
     14  CA        12.0300   12.6530    4.8990 C.3     3  PHE3        0.1771
     15  C         11.5620   13.8280    4.0170 C.2     3  PHE3        0.2619
     16  O         12.1470   14.9180    3.9790 O.2     3  PHE3       -0.2715
     17  CB        10.6930   12.5520    5.6410 C.3     3  PHE3        0.0574
     18  CG        10.4280   11.3260    6.4650 C.ar    3  PHE3       -0.0200
     19  CD1       11.4060   10.5690    7.0850 C.ar    3  PHE3       -0.0042
     20  CD2        9.0960   11.0220    6.7130 C.ar    3  PHE3       -0.0042
     21  CE1       11.0310    9.4850    7.8980 C.ar    3  PHE3       -0.0003
     22  CE2        8.7240    9.9710    7.5070 C.ar    3  PHE3       -0.0003
     23  CZ         9.6840    9.1950    8.1020 C.ar    3  PHE3       -0.0000
     24  N         10.3680   13.5790    3.4520 N.am    4  ARG4       -0.1963
     25  CA         9.5520   14.5050    2.6580 C.3     4  ARG4        0.1729
     26  C          8.0630   14.1990    2.7340 C.2     4  ARG4        0.2613
     27  O          7.6110   13.2870    3.4200 O.2     4  ARG4       -0.2715
     28  CB         9.8150   14.3110    1.1810 C.3     4  ARG4        0.0348
     29  CG        10.0480   15.5610    0.4500 C.3     4  ARG4        0.0492
     30  CD        11.4690   15.8300    0.5690 C.3     4  ARG4        0.2205
     31  NE        11.9380   17.0500   -0.0290 N.pl3   4  ARG4       -0.0865
     32  CZ        13.2030   17.3810    0.0500 C.cat   4  ARG4        0.5346
     33  NH1       14.0240   16.5580    0.6930 N.pl3   4  ARG4        0.1354
     34  NH2       13.6510   18.4990   -0.4880 N.pl3   4  ARG4        0.1354
     35  N          7.3470   14.9500    1.9030 N.am    5  SER5       -0.2012
     36  CA         5.9080   14.8640    1.6190 C.3     5  SER5        0.1506
     37  C          4.9250   14.1660    2.5520 C.2     5  SER5        0.2794
     38  O          4.8160   14.7010    3.6540 O.3     5  SER5        0.0000
     39  CB         5.6950   14.3050    0.2140 C.3     5  SER5        0.2054
     40  OG         4.3210   14.3640   -0.1330 O.3     5  SER5       -0.2184
     41  OXT        4.5540   14.4310    3.6930 O.2     5  SER5       -0.2794
@<TRIPOS>BOND
     1    34    32    1
     2    40    39    1
     3    31    32    2
     4    31    30    1
     5    32    33    1
     6    39    36    1
     7    29    30    1
     8    29    28    1
     9    28    25    1
    10    36    35    1
    11    35    26   am
    12    37    41    2
    13    25    26    1
    14    25    24    1
    15    26    27    2
    16    24    15   am
    17    16    15    2
    18    15    14    1
    19    14    17    1
    20    14    13    1
    21     6     5    1
    22     5     7    1
    23     5     2    1
    24    17    18    1
    25    13    10   am
    26    11    10    2
    27     2     3    1
    28     2     1    1
    29    10     9    1
    30    18    20   ar
    31    18    19   ar
    32    20    22   ar
    33     8     3   am
    34     8     9    1
    35     3     4    2
    36    19    21   ar
    37     9    12    1
    38    22    23   ar
    39    21    23   ar
