@<TRIPOS>MOLECULE
1mfa_MMA_H_1.pdb
 13 13 0 0 0
SMALL
GASTEIGER

@<TRIPOS>ATOM
      1  C1        10.1940  -11.6420   63.1380 C.3   502  MMA502      0.2695
      2  C2        11.0770  -10.4460   62.8910 C.3   502  MMA502      0.2406
      3  C3        12.2940  -10.8070   62.0500 C.3   502  MMA502      0.2198
      4  C4        13.0420  -12.0170   62.6330 C.3   502  MMA502      0.2144
      5  C5        12.0610  -13.1800   62.8670 C.3   502  MMA502      0.1835
      6  C6        12.6430  -14.4110   63.5740 C.3   502  MMA502      0.2142
      7  C7         8.4880  -12.8950   61.9170 C.3   502  MMA502      0.1769
      8  O1         9.6110  -12.0020   61.8990 O.3   502  MMA502     -0.3259
      9  O2        11.5170   -9.9660   64.1460 O.3   502  MMA502     -0.2149
     10  O3        13.1770   -9.6680   62.0310 O.3   502  MMA502     -0.2174
     11  O4        14.0830  -12.4220   61.7600 O.3   502  MMA502     -0.2176
     12  O5        10.9850  -12.7090   63.6700 O.3   502  MMA502     -0.3256
     13  O6        13.1760  -14.0250   64.8430 O.3   502  MMA502     -0.2176
@<TRIPOS>BOND
     1    11     4    1
     2     8     7    1
     3     8     1    1
     4    10     3    1
     5     3     4    1
     6     3     2    1
     7     4     5    1
     8     5     6    1
     9     5    12    1
    10     2     1    1
    11     2     9    1
    12     1    12    1
    13     6    13    1
