@<TRIPOS>MOLECULE
1mfb_RAM_H_1.pdb
 10 10 0 0 0
SMALL
GASTEIGER

@<TRIPOS>ATOM
      1  C1        20.1830   43.0000   26.1850 C.3   524  RAM524      0.1776
      2  C2        19.3430   42.0540   27.0570 C.3   524  RAM524      0.2141
      3  C3        19.9590   41.8570   28.4230 C.3   524  RAM524      0.2172
      4  C4        20.2130   43.2310   29.0180 C.3   524  RAM524      0.2116
      5  C5        21.1910   44.0140   28.1250 C.3   524  RAM524      0.1483
      6  C6        21.6460   45.3830   28.6620 C.3   524  RAM524      0.0349
      7  O2        18.0670   42.5930   27.2530 O.3   524  RAM524     -0.2176
      8  O3        19.1160   41.1030   29.2630 O.3   524  RAM524     -0.2175
      9  O4        20.7610   43.0890   30.3320 O.3   524  RAM524     -0.2177
     10  O5        20.5460   44.2000   26.8610 O.3   524  RAM524     -0.3508
@<TRIPOS>BOND
     1     1    10    1
     2     1     2    1
     3    10     5    1
     4     2     7    1
     5     2     3    1
     6     5     6    1
     7     5     4    1
     8     3     4    1
     9     3     8    1
    10     4     9    1
