@<TRIPOS>MOLECULE
1mfb_MAN_H_1.pdb
 11 11 0 0 0
SMALL
GASTEIGER

@<TRIPOS>ATOM
      1  C1        20.0570   43.6830   31.4400 C.3   522  MAN522      0.1777
      2  C2        21.1000   44.0800   32.4530 C.3   522  MAN522      0.2141
      3  C3        21.7090   42.8760   33.1600 C.3   522  MAN522      0.2173
      4  C4        20.6150   42.0230   33.8010 C.3   522  MAN522      0.2142
      5  C5        19.5380   41.6410   32.7320 C.3   522  MAN522      0.1810
      6  C6        18.2950   41.0160   33.3680 C.3   522  MAN522      0.2141
      7  O2        20.3980   44.8390   33.4080 O.3   522  MAN522     -0.2176
      8  O3        22.5980   43.2980   34.1770 O.3   522  MAN522     -0.2175
      9  O4        21.2150   40.8640   34.3700 O.3   522  MAN522     -0.2176
     10  O5        19.0700   42.8080   32.0180 O.3   522  MAN522     -0.3481
     11  O6        17.6570   41.9230   34.2690 O.3   522  MAN522     -0.2176
@<TRIPOS>BOND
     1     1    10    1
     2     1     2    1
     3    10     5    1
     4     2     3    1
     5     2     7    1
     6     5     6    1
     7     5     4    1
     8     3     4    1
     9     3     8    1
    10     6    11    1
    11     4     9    1
