@<TRIPOS>MOLECULE
1mfc_RAM_H_1.pdb
 11 11 0 0 0
SMALL
GASTEIGER

@<TRIPOS>ATOM
      1  C1        25.1820   42.3980   15.7270 C.3   524  RAM524      0.3023
      2  C2        25.7400   41.7340   17.0290 C.3   524  RAM524      0.2434
      3  C3        24.6410   41.4650   18.0790 C.3   524  RAM524      0.2198
      4  C4        23.4020   40.7670   17.3930 C.3   524  RAM524      0.2118
      5  C5        22.9290   41.6140   16.1840 C.3   524  RAM524      0.1509
      6  C6        21.6740   41.1380   15.4300 C.3   524  RAM524      0.0350
      7  O1        24.8140   43.7540   15.9600 O.3   524  RAM524     -0.1869
      8  O2        26.3470   40.4990   16.6960 O.3   524  RAM524     -0.2148
      9  O3        25.1860   40.6220   19.1020 O.3   524  RAM524     -0.2174
     10  O4        22.2570   40.5030   18.2540 O.3   524  RAM524     -0.2177
     11  O5        24.0240   41.6820   15.2470 O.3   524  RAM524     -0.3264
@<TRIPOS>BOND
     1    11     1    1
     2    11     5    1
     3     6     5    1
     4     1     7    1
     5     1     2    1
     6     5     4    1
     7     8     2    1
     8     2     3    1
     9     4     3    1
    10     4    10    1
    11     3     9    1
