@<TRIPOS>MOLECULE
1mfd_GLA_H_1.pdb
 11 11 0 0 0
SMALL
GASTEIGER

@<TRIPOS>ATOM
      1  C1        20.6750   40.5530   23.0620 C.3   501  GLA501      0.1777
      2  C2        19.5720   41.2010   23.9930 C.3   501  GLA501      0.2141
      3  C3        20.1140   42.4320   24.7620 C.3   501  GLA501      0.2173
      4  C4        21.5470   42.1810   25.2890 C.3   501  GLA501      0.2142
      5  C5        22.4370   41.7720   24.1090 C.3   501  GLA501      0.1810
      6  C6        23.9700   41.7110   24.2210 C.3   501  GLA501      0.2141
      7  O2        18.3600   41.6300   23.3570 O.3   501  GLA501     -0.2176
      8  O3        19.2250   42.6400   25.8700 O.3   501  GLA501     -0.2175
      9  O4        21.4030   41.1540   26.2400 O.3   501  GLA501     -0.2176
     10  O5        21.9360   40.4880   23.6930 O.3   501  GLA501     -0.3481
     11  O6        24.5790   42.7700   23.4630 O.3   501  GLA501     -0.2176
@<TRIPOS>BOND
     1     1    10    1
     2     1     2    1
     3     7     2    1
     4    11     6    1
     5    10     5    1
     6     2     3    1
     7     5     6    1
     8     5     4    1
     9     3     4    1
    10     3     8    1
    11     4     9    1
