@<TRIPOS>MOLECULE
1mfd_MMA_H_1.pdb
 13 13 0 0 0
SMALL
GASTEIGER

@<TRIPOS>ATOM
      1  C1        21.9620   41.6870   19.8440 C.3   502  MMA502      0.2695
      2  C2        21.0370   40.7650   20.6280 C.3   502  MMA502      0.2406
      3  C3        19.6410   40.7110   20.0060 C.3   502  MMA502      0.2198
      4  C4        19.0560   42.1370   19.8550 C.3   502  MMA502      0.2144
      5  C5        20.0520   42.9340   18.9460 C.3   502  MMA502      0.1835
      6  C6        19.6210   44.3900   18.6390 C.3   502  MMA502      0.2142
      7  C7        23.6620   40.7160   18.3280 C.3   502  MMA502      0.1769
      8  O1        22.2840   41.0760   18.5930 O.3   502  MMA502     -0.3259
      9  O2        20.9260   41.3510   21.9120 O.3   502  MMA502     -0.2149
     10  O3        18.8070   39.9600   20.8850 O.3   502  MMA502     -0.2174
     11  O4        17.7210   42.1610   19.3700 O.3   502  MMA502     -0.2176
     12  O5        21.3270   42.9580   19.6300 O.3   502  MMA502     -0.3256
     13  O6        18.9540   45.0340   19.7230 O.3   502  MMA502     -0.2176
@<TRIPOS>BOND
     1     7     8    1
     2     8     1    1
     3     6     5    1
     4     6    13    1
     5     5    12    1
     6     5     4    1
     7    11     4    1
     8    12     1    1
     9     1     2    1
    10     4     3    1
    11     3     2    1
    12     3    10    1
    13     2     9    1
