@<TRIPOS>MOLECULE
1mfi_FHC_A_1.pdb
 13 13 0 0 0
SMALL
GASTEIGER

@<TRIPOS>ATOM
      1  C1        -9.1690   28.4400   13.5290 C.ar  115  FHC115      0.0027
      2  C7       -10.0220   29.1530   14.5370 C.2   115  FHC115      0.0365
      3  C8       -10.8670   28.6340   15.4980 C.2   115  FHC115      0.2193
      4  C9       -11.2050   27.1660   15.6600 C.2   115  FHC115      0.4148
      5  O3       -11.2630   26.7520   16.8610 O.co2 115  FHC115     -0.2380
      6  O2       -11.4930   26.4520   14.6570 O.co2 115  FHC115     -0.2380
      7  F1       -11.5110   29.5480   16.3560 F     115  FHC115     -0.1972
      8  C6        -9.0370   27.0470   13.4410 C.ar  115  FHC115      0.0034
      9  C5        -8.1620   26.4570   12.4720 C.ar  115  FHC115      0.0420
     10  C4        -7.4150   27.3030   11.6460 C.ar  115  FHC115      0.1957
     11  O1        -6.5100   26.8660   10.6920 O.3   115  FHC115     -0.2866
     12  C3        -7.5760   28.6600   11.7280 C.ar  115  FHC115      0.0420
     13  C2        -8.4110   29.2120   12.6600 C.ar  115  FHC115      0.0034
@<TRIPOS>BOND
     1    11    10    1
     2    10    12   ar
     3    10     9   ar
     4    12    13   ar
     5     9     8   ar
     6    13     1   ar
     7     8     1   ar
     8     1     2    1
     9     2     3    2
    10     6     4   ar
    11     3     4    1
    12     3     7    1
    13     4     5   ar
