@<TRIPOS>MOLECULE
1mfl_III_B_1.pdb
 38 38 0 0 0
SMALL
GASTEIGER

@<TRIPOS>ATOM
      1  N         16.2750   -4.4190   -2.0580 N.3   1251  LEU1251    -0.1231
      2  CA        15.7440   -3.0380   -2.0500 C.3   1251  LEU1251     0.1693
      3  C         14.9820   -2.7480   -0.7540 C.2   1251  LEU1251     0.2592
      4  O         13.9870   -3.4020   -0.4570 O.2   1251  LEU1251    -0.2718
      5  CB        14.8200   -2.8670   -3.2550 C.3   1251  LEU1251     0.0284
      6  CG        14.5620   -1.4820   -3.8140 C.3   1251  LEU1251     0.0019
      7  CD1       15.8020   -0.6830   -4.2060 C.3   1251  LEU1251     0.0001
      8  CD2       13.6340   -1.5960   -4.9870 C.3   1251  LEU1251     0.0001
      9  N         15.4230   -1.7410   -0.0080 N.am  1252  ASP1252    -0.1960
     10  CA        14.6790   -1.2600    1.1560 C.3   1252  ASP1252     0.1840
     11  C         13.4100   -0.5760    0.7510 C.2   1252  ASP1252     0.2622
     12  O         13.2410   -0.2420   -0.4030 O.2   1252  ASP1252    -0.2715
     13  CB        15.5110   -0.3590    2.0760 C.3   1252  ASP1252     0.1450
     14  CG        15.9970    0.9620    1.4370 C.2   1252  ASP1252     0.3671
     15  OD1       15.8720    1.1850    0.2140 O.co2 1252  ASP1252    -0.2456
     16  OD2       16.5770    1.8630    2.1330 O.co2 1252  ASP1252    -0.2456
     17  N         12.5200   -0.3660    1.7120 N.am  1253  VAL1253    -0.1964
     18  CA        11.2240    0.2010    1.4250 C.3   1253  VAL1253     0.1712
     19  C         10.9860    1.4240    2.2910 C.2   1253  VAL1253     0.2458
     20  O         10.8510    1.3080    3.5110 O.2   1253  VAL1253    -0.2730
     21  CB        10.0940   -0.7760    1.7090 C.3   1253  VAL1253     0.0289
     22  CG1        8.7610   -0.1190    1.3710 C.3   1253  VAL1253     0.0023
     23  CG2       10.2970   -2.0960    0.9350 C.3   1253  VAL1253     0.0023
     24  N         10.9190    2.5930    1.6830 N.am  1254  PRO1254    -0.2716
     25  CA        10.5350    3.8140    2.4300 C.3   1254  PRO1254     0.1536
     26  C          9.0660    3.7980    2.9140 C.2   1254  PRO1254     0.2599
     27  O          8.1010    3.4530    2.1960 O.2   1254  PRO1254    -0.2715
     28  CB        10.7840    4.9680    1.4340 C.3   1254  PRO1254     0.0310
     29  CG        11.3800    4.3700    0.2140 C.3   1254  PRO1254     0.0237
     30  CD        11.2550    2.8770    0.2810 C.3   1254  PRO1254     0.0939
     31  N          8.9090    4.1280    4.1920 N.am  1255  VAL1255    -0.1942
     32  CA         7.5960    4.2700    4.8060 C.3   1255  VAL1255     0.1977
     33  C          7.4720    5.6140    5.5360 C.2   1255  VAL1255     0.3842
     34  O          6.3780    6.0200    5.9290 O.co2 1255  VAL1255    -0.2437
     35  CB         7.2890    3.0930    5.7900 C.3   1255  VAL1255     0.0311
     36  CG1        7.2010    1.7840    5.0350 C.3   1255  VAL1255     0.0023
     37  CG2        8.3260    2.9980    6.9080 C.3   1255  VAL1255     0.0023
     38  OXT        8.4560    6.3190    5.7490 O.co2 1255  VAL1255    -0.2437
@<TRIPOS>BOND
     1     8     6    1
     2     7     6    1
     3     6     5    1
     4     5     2    1
     5     1     2    1
     6     2     3    1
     7     3     4    2
     8     3     9   am
     9    12    11    2
    10     9    10    1
    11    29    30    1
    12    29    28    1
    13    15    14   ar
    14    30    24    1
    15    11    10    1
    16    11    17   am
    17    23    21    1
    18    10    13    1
    19    22    21    1
    20    18    21    1
    21    18    17    1
    22    18    19    1
    23    28    25    1
    24    14    13    1
    25    14    16   ar
    26    24    19   am
    27    24    25    1
    28    27    26    2
    29    19    20    2
    30    25    26    1
    31    26    31   am
    32    31    32    1
    33    32    33    1
    34    32    35    1
    35    36    35    1
    36    33    38   ar
    37    33    34   ar
    38    35    37    1
