@<TRIPOS>MOLECULE
1mfp_NAD_A_1.pdb
 44 48 0 0 0
SMALL
GASTEIGER

@<TRIPOS>ATOM
      1  PA         6.7340   15.9750  135.9100 P.3   301  NAD301      0.2189
      2  O1A        5.4030   15.2500  136.0110 O.3   301  NAD301     -0.4371
      3  O2A        7.8550   15.2910  135.1550 O.2   301  NAD301     -0.5170
      4  O5B        7.3030   16.3430  137.4220 O.3   301  NAD301     -0.3112
      5  C5B        6.5030   16.9060  138.5080 C.3   301  NAD301      0.1813
      6  C4B        6.5750   16.0630  139.7880 C.3   301  NAD301      0.1821
      7  O4B        5.3590   16.2860  140.5290 O.3   301  NAD301     -0.3135
      8  C3B        6.5830   14.5270  139.6380 C.3   301  NAD301      0.2184
      9  O3B        7.8970   13.9830  139.4820 O.3   301  NAD301     -0.2174
     10  C2B        5.8720   14.0100  140.8980 C.3   301  NAD301      0.2570
     11  O2B        6.6320   13.0510  141.6380 O.3   301  NAD301     -0.2130
     12  C1B        5.6090   15.3670  141.6080 C.3   301  NAD301      0.3186
     13  N9A        4.4570   15.3080  142.5810 N.pl3 301  NAD301     -0.1439
     14  C8A        3.1420   15.3460  142.3300 C.3   301  NAD301      0.3377
     15  N7A        2.4520   15.2620  143.4560 N.2   301  NAD301     -0.2095
     16  C5A        3.3710   15.1690  144.3800 C.2   301  NAD301      0.2526
     17  C6A        3.1240   15.0480  145.7650 C.2   301  NAD301      0.4393
     18  N6A        1.8660   15.0160  146.2230 N.pl3 301  NAD301      0.2180
     19  N1A        4.2590   14.9600  146.5880 N.2   301  NAD301      0.0021
     20  C2A        5.5420   14.9920  146.0690 C.3   301  NAD301      0.5254
     21  N3A        5.7560   15.1070  144.7190 N.2   301  NAD301     -0.0055
     22  C4A        4.6580   15.1960  143.8750 C.2   301  NAD301      0.3518
     23  O3         6.4410   17.3570  135.1520 O.3   301  NAD301     -0.2703
     24  PN         7.3090   18.6650  134.9960 P.3   301  NAD301      0.2189
     25  O1N        6.8810   19.2840  133.7420 O.2   301  NAD301     -0.5170
     26  O2N        8.7830   18.3590  135.1960 O.3   301  NAD301     -0.4371
     27  O5D        6.8640   19.6200  136.2080 O.3   301  NAD301     -0.3112
     28  C5D        7.7400   20.0850  137.2410 C.3   301  NAD301      0.1813
     29  C4D        7.2830   21.4470  137.7240 C.3   301  NAD301      0.1799
     30  O4D        7.5700   22.4260  136.7120 O.3   301  NAD301     -0.3327
     31  C3D        5.7620   21.6090  137.9920 C.3   301  NAD301      0.2158
     32  O3D        5.4800   22.3320  139.1730 O.3   301  NAD301     -0.2175
     33  C2D        5.2310   22.2920  136.7500 C.3   301  NAD301      0.2309
     34  O2D        4.0170   22.9610  137.0340 O.3   301  NAD301     -0.2158
     35  C1D        6.3680   23.1980  136.3820 C.3   301  NAD301      0.2263
     36  N1N        6.3770   23.6240  134.9660 N.pl3 301  NAD301     -0.2787
     37  C2N        6.2730   22.6740  133.8970 C.3   301  NAD301      0.1244
     38  C3N        6.3190   23.1130  132.5570 C.2   301  NAD301      0.0544
     39  C7N        6.2150   22.1040  131.3860 C.2   301  NAD301      0.2818
     40  O7N        5.7160   22.4320  130.3040 O.2   301  NAD301     -0.2670
     41  N7N        6.6980   20.8660  131.6170 N.am  301  NAD301     -0.0839
     42  C4N        6.4710   24.5120  132.2920 C.2   301  NAD301      0.0033
     43  C5N        6.5670   25.4470  133.3770 C.2   301  NAD301      0.0157
     44  C6N        6.5240   25.0140  134.7110 C.2   301  NAD301      0.0633
@<TRIPOS>BOND
     1    40    39    2
     2    39    41   am
     3    39    38    1
     4    42    38    2
     5    42    43    1
     6    38    37    1
     7    43    44    2
     8    25    24    2
     9    37    36    1
    10    44    36    1
    11    36    35    1
    12    24    23    1
    13    24    26    1
    14    24    27    1
    15    23     1    1
    16     3     1    2
    17     1     2    1
    18     1     4    1
    19    27    28    1
    20    35    30    1
    21    35    33    1
    22    30    29    1
    23    33    34    1
    24    33    31    1
    25    28    29    1
    26     4     5    1
    27    29    31    1
    28    31    32    1
    29     5     6    1
    30     9     8    1
    31     8     6    1
    32     8    10    1
    33     6     7    1
    34     7    12    1
    35    10    12    1
    36    10    11    1
    37    12    13    1
    38    14    13    1
    39    14    15    1
    40    13    22    1
    41    15    16    2
    42    22    16    1
    43    22    21    2
    44    16    17    1
    45    21    20    1
    46    17    18    1
    47    17    19    2
    48    20    19    1
