@<TRIPOS>MOLECULE
1mfp_IDN_A_1.pdb
 28 31 0 0 0
SMALL
GASTEIGER

@<TRIPOS>ATOM
      1  C01       -1.4680   18.0220  136.6920 C.1   302  IDN302      0.0958
      2  C02       -1.0810   17.9990  135.2780 C.2   302  IDN302      0.0539
      3  C03       -0.3620   19.1420  134.7590 C.2   302  IDN302      0.0083
      4  C04       -0.0350   20.2620  135.6050 C.2   302  IDN302      0.0205
      5  C05       -0.4700   20.1960  136.9960 C.2   302  IDN302      0.1105
      6  N06       -1.1710   19.0950  137.5240 N.2   302  IDN302     -0.1819
      7  C07        0.6880   21.4150  135.0200 C.2   302  IDN302      0.0062
      8  C08        1.8570   21.3690  134.2650 C.2   302  IDN302      0.0580
      9  C09        2.4280   22.6570  133.6940 C.2   302  IDN302      0.2495
     10  O10        2.8080   23.4610  134.5560 O.2   302  IDN302     -0.2699
     11  N11        2.4980   22.9010  132.2850 N.am  302  IDN302     -0.2702
     12  C12        3.0470   24.1930  131.8580 C.3   302  IDN302      0.1155
     13  C13        2.0530   21.9720  131.2100 C.3   302  IDN302      0.1220
     14  C14        0.7030   22.3920  130.6820 C.ar  302  IDN302      0.0163
     15  C15       -0.5400   21.9330  131.1580 C.ar  302  IDN302      0.0733
     16  N16       -1.5740   22.5210  130.4700 N.ar  302  IDN302     -0.3243
     17  C17       -1.0330   23.4030  129.4930 C.ar  302  IDN302      0.0597
     18  C18        0.4330   23.3320  129.6160 C.ar  302  IDN302      0.0149
     19  N19       -2.1650   16.9500  137.2360 N.2   302  IDN302     -0.2822
     20  C20       -3.0270   22.2950  130.6900 C.3   302  IDN302      0.1305
     21  C21        0.6800   24.9920  127.7630 C.ar  302  IDN302      0.0001
     22  C22       -0.7590   25.0720  127.6290 C.ar  302  IDN302      0.0015
     23  C23       -1.6100   24.2760  128.4980 C.ar  302  IDN302      0.0172
     24  C24        1.2750   24.1200  128.7600 C.ar  302  IDN302      0.0012
     25  C25       -1.4430   16.7770  134.4190 C.3   302  IDN302      0.0564
     26  C26       -1.6500   15.4610  135.2560 C.3   302  IDN302      0.1409
     27  C27       -2.3600   15.7030  136.6390 C.1   302  IDN302      0.1897
     28  O28       -3.0040   14.8080  137.1760 O.2   302  IDN302     -0.2134
@<TRIPOS>BOND
     1    22    21   ar
     2    22    23   ar
     3    21    24   ar
     4    23    17   ar
     5    24    18   ar
     6    17    18   ar
     7    17    16   ar
     8    18    14   ar
     9    16    20    1
    10    16    15   ar
    11    14    15   ar
    12    14    13    1
    13    13    11    1
    14    12    11    1
    15    11     9   am
    16     9     8    1
    17     9    10    2
    18     8     7    2
    19    25    26    1
    20    25     2    1
    21     3     2    2
    22     3     4    1
    23     7     4    1
    24    26    27    1
    25     2     1    1
    26     4     5    2
    27    27    28    2
    28    27    19    2
    29     1    19    2
    30     1     6    2
    31     5     6    1
