@<TRIPOS>MOLECULE
1mfu_AGL_A_1.pdb
 10 10 0 0 0
SMALL
GASTEIGER

@<TRIPOS>ATOM
      1  C1         1.7740   40.1620   24.1340 C.3   499  AGL499      0.1775
      2  C2         2.0830   39.6060   25.5210 C.3   499  AGL499      0.2130
      3  C3         2.9480   38.3460   25.3860 C.3   499  AGL499      0.2044
      4  C4         2.1850   37.3360   24.5200 C.3   499  AGL499      0.1517
      5  C5         1.9300   37.9540   23.1340 C.3   499  AGL499      0.1355
      6  C6         1.1360   37.0310   22.2020 C.3   499  AGL499      0.0337
      7  O2         2.7420   40.5970   26.2980 O.3   499  AGL499     -0.2177
      8  O3         3.2510   37.8360   26.6750 O.3   499  AGL499     -0.2187
      9  N4         2.8560   36.0400   24.4490 N.3   499  AGL499     -0.1276
     10  O5         1.1650   39.1550   23.3030 O.3   499  AGL499     -0.3519
@<TRIPOS>BOND
     1     6     5    1
     2     5    10    1
     3     5     4    1
     4    10     1    1
     5     1     2    1
     6     9     4    1
     7     4     3    1
     8     3     2    1
     9     3     8    1
    10     2     7    1
