@<TRIPOS>MOLECULE
1mfu_GLC_A_1.pdb
 11 11 0 0 0
SMALL
GASTEIGER

@<TRIPOS>ATOM
      1  C1         3.7860   44.5210   21.9760 C.3   500  GLC500      0.1777
      2  C2         4.2250   44.2280   23.4120 C.3   500  GLC500      0.2141
      3  C3         4.2260   42.7260   23.6660 C.3   500  GLC500      0.2173
      4  C4         2.8670   42.1360   23.2730 C.3   500  GLC500      0.2142
      5  C5         2.6560   42.4230   21.7740 C.3   500  GLC500      0.1810
      6  C6         1.4220   41.7780   21.1370 C.3   500  GLC500      0.2141
      7  O2         5.5100   44.7630   23.6820 O.3   500  GLC500     -0.2176
      8  O3         4.5050   42.4810   25.0280 O.3   500  GLC500     -0.2175
      9  O4         2.8400   40.7550   23.5610 O.3   500  GLC500     -0.2176
     10  O5         2.5910   43.8360   21.6310 O.3   500  GLC500     -0.3481
     11  O6         0.2360   42.0910   21.8380 O.3   500  GLC500     -0.2176
@<TRIPOS>BOND
     1     6     5    1
     2     6    11    1
     3    10     5    1
     4    10     1    1
     5     5     4    1
     6     1     2    1
     7     4     9    1
     8     4     3    1
     9     2     3    1
    10     2     7    1
    11     3     8    1
