@<TRIPOS>MOLECULE
1mfu_HMC_A_1.pdb
 11 11 0 0 0
SMALL
GASTEIGER

@<TRIPOS>ATOM
      1  C1         2.9450   34.9850   25.1580 C.3   498  HMC498      0.0612
      2  C2         4.3250   34.4450   25.5500 C.3   498  HMC498      0.1893
      3  O2         5.2130   35.4980   25.9180 O.3   498  HMC498     -0.2200
      4  C3         4.8950   33.6580   24.3660 C.3   498  HMC498      0.2165
      5  O3         6.2900   33.3960   24.5330 O.3   498  HMC498     -0.2173
      6  C4         4.0810   32.3730   24.1790 C.3   498  HMC498      0.2052
      7  O4         4.4590   31.7360   22.9600 O.3   498  HMC498     -0.2157
      8  C5         2.5930   32.6670   24.1950 C.2   498  HMC498      0.0167
      9  C6         2.0870   33.8400   24.6450 C.2   498  HMC498     -0.0269
     10  C7         1.6120   31.6190   23.7170 C.3   498  HMC498      0.2066
     11  O7         1.4430   31.7280   22.3150 O.3   498  HMC498     -0.2155
@<TRIPOS>BOND
     1    11    10    1
     2     7     6    1
     3    10     8    1
     4     6     8    1
     5     6     4    1
     6     8     9    2
     7     4     5    1
     8     4     2    1
     9     9     1    1
    10     1     2    1
    11     2     3    1
