@<TRIPOS>MOLECULE
1mfv_GLC_A_1.pdb
 11 11 0 0 0
SMALL
GASTEIGER

@<TRIPOS>ATOM
      1  C1         3.6220   44.4680   22.1500 C.3   503  GLC503      0.1777
      2  C2         4.0370   44.0990   23.5800 C.3   503  GLC503      0.2141
      3  C3         4.0010   42.5730   23.7780 C.3   503  GLC503      0.2173
      4  C4         2.6500   42.0240   23.3150 C.3   503  GLC503      0.2142
      5  C5         2.4490   42.3820   21.8310 C.3   503  GLC503      0.1810
      6  C6         1.1710   41.7900   21.1970 C.3   503  GLC503      0.2141
      7  O2         5.3420   44.5840   23.8480 O.3   503  GLC503     -0.2176
      8  O3         4.2150   42.2510   25.1390 O.3   503  GLC503     -0.2175
      9  O4         2.5720   40.6200   23.5420 O.3   503  GLC503     -0.2176
     10  O5         2.4340   43.7950   21.7130 O.3   503  GLC503     -0.3481
     11  O6        -0.0350   42.2000   21.8000 O.3   503  GLC503     -0.2176
@<TRIPOS>BOND
     1     6    11    1
     2     6     5    1
     3    10     5    1
     4    10     1    1
     5     5     4    1
     6     1     2    1
     7     4     9    1
     8     4     3    1
     9     2     3    1
    10     2     7    1
    11     3     8    1
