@<TRIPOS>MOLECULE
1mfv_HMC_A_1.pdb
 11 11 0 0 0
SMALL
GASTEIGER

@<TRIPOS>ATOM
      1  C1         2.2680   35.1390   25.0140 C.3   501  HMC501      0.0612
      2  C2         3.2940   34.4040   25.8710 C.3   501  HMC501      0.1893
      3  O2         4.0940   35.3100   26.6230 O.3   501  HMC501     -0.2200
      4  C3         4.1320   33.5510   24.9200 C.3   501  HMC501      0.2165
      5  O3         5.3080   33.0480   25.5300 O.3   501  HMC501     -0.2173
      6  C4         3.2940   32.4060   24.3720 C.3   501  HMC501      0.2052
      7  O4         3.9390   31.9450   23.1930 O.3   501  HMC501     -0.2157
      8  C5         1.8820   32.8450   24.0590 C.2   501  HMC501      0.0167
      9  C6         1.4140   34.0800   24.3540 C.2   501  HMC501     -0.0269
     10  C7         0.9230   31.8750   23.4020 C.3   501  HMC501      0.2066
     11  O7         1.6260   31.0250   22.5070 O.3   501  HMC501     -0.2155
@<TRIPOS>BOND
     1    11    10    1
     2     7     6    1
     3    10     8    1
     4     8     9    2
     5     8     6    1
     6     9     1    1
     7     6     4    1
     8     4     5    1
     9     4     2    1
    10     1     2    1
    11     2     3    1
