@<TRIPOS>MOLECULE
1mfv_AGL_A_1.pdb
 10 10 0 0 0
SMALL
GASTEIGER

@<TRIPOS>ATOM
      1  C1         1.4960   40.2010   24.2420 C.3   502  AGL502      0.1775
      2  C2         1.7930   39.6040   25.6180 C.3   502  AGL502      0.2130
      3  C3         2.5940   38.3090   25.4130 C.3   502  AGL502      0.2044
      4  C4         1.8160   37.3370   24.5080 C.3   502  AGL502      0.1517
      5  C5         1.4720   38.0190   23.1710 C.3   502  AGL502      0.1355
      6  C6         0.6130   37.1250   22.2670 C.3   502  AGL502      0.0337
      7  O2         2.5440   40.5730   26.3410 O.3   502  AGL502     -0.2177
      8  O3         2.9350   37.7320   26.6630 O.3   502  AGL502     -0.2187
      9  N4         2.5980   36.1230   24.2770 N.3   502  AGL502     -0.1276
     10  O5         0.7820   39.2660   23.4120 O.3   502  AGL502     -0.3519
@<TRIPOS>BOND
     1     6     5    1
     2     5    10    1
     3     5     4    1
     4    10     1    1
     5     1     2    1
     6     9     4    1
     7     4     3    1
     8     3     2    1
     9     3     8    1
    10     2     7    1
