@<TRIPOS>MOLECULE
1mfz_GDX_B_1.pdb
 40 43 0 0 0
SMALL
GASTEIGER

@<TRIPOS>ATOM
      1  N2       136.0600   56.2240   94.8680 N.pl3 503  GDX503     -0.0226
      2  C2       136.0300   56.3620   93.5140 C.1   503  GDX503      0.2531
      3  N1       135.3940   55.4240   92.7980 N.2   503  GDX503     -0.2485
      4  N3       136.6310   57.4260   92.9470 N.2   503  GDX503     -0.3074
      5  C4       136.6230   57.6000   91.6270 C.2   503  GDX503      0.2300
      6  C5       135.9510   56.6100   90.7770 C.2   503  GDX503      0.2182
      7  C6       135.3050   55.4830   91.4670 C.1   503  GDX503      0.2372
      8  O6       134.7050   54.6000   90.8270 O.2   503  GDX503     -0.2069
      9  N7       136.0840   57.0160   89.5060 N.2   503  GDX503     -0.2322
     10  C8       136.7910   58.1820   89.4870 C.3   503  GDX503      0.2246
     11  N9       137.1130   58.4630   90.7480 N.pl3 503  GDX503     -0.2354
     12  C1D      137.5040   59.7100   91.0920 C.3   503  GDX503      0.2293
     13  C2D      138.7460   60.0820   90.7970 C.3   503  GDX503      0.2310
     14  O2D      139.5310   59.5050   91.5450 O.3   503  GDX503     -0.2158
     15  C3D      138.8400   61.4340   90.8410 C.3   503  GDX503      0.2158
     16  O3D      139.4510   61.9490   92.0750 O.3   503  GDX503     -0.2175
     17  C4D      137.6250   61.9580   90.7070 C.3   503  GDX503      0.1799
     18  O4D      136.6800   60.8630   90.8410 O.3   503  GDX503     -0.3326
     19  C5D      137.5210   62.5630   89.3370 C.3   503  GDX503      0.1813
     20  O5D      138.1140   61.6810   88.3920 O.3   503  GDX503     -0.3112
     21  PA       137.7320   61.7900   86.8250 P.3   503  GDX503      0.2189
     22  O1A      136.3720   62.4510   86.6820 O.3   503  GDX503     -0.4371
     23  O2A      137.9890   60.4460   86.1830 O.2   503  GDX503     -0.5170
     24  O3A      138.8650   62.7830   86.2550 O.3   503  GDX503     -0.2703
     25  PB       138.5620   64.3390   86.0280 P.3   503  GDX503      0.2208
     26  O2B      139.8350   65.0410   85.6430 O.2   503  GDX503     -0.5170
     27  O3B      137.9890   64.8810   87.3110 O.3   503  GDX503     -0.4371
     28  O1B      137.4810   64.5860   84.8570 O.3   503  GDX503     -0.2857
     29  C1'      136.2360   65.0830   85.4190 C.3   503  GDX503      0.2746
     30  O5'      136.2810   66.5200   85.3940 O.3   503  GDX503     -0.3167
     31  C5'      136.0980   67.0510   84.0470 C.3   503  GDX503      0.2529
     32  C6'      135.8430   68.3770   84.1440 C.2   503  GDX503      0.3941
     33  O6A      134.8150   68.7370   84.7170 O.co2 503  GDX503     -0.2429
     34  O6B      136.6040   69.2340   83.6840 O.co2 503  GDX503     -0.2429
     35  C2'      135.1590   64.6720   84.7440 C.3   503  GDX503      0.2409
     36  O2'      134.1550   65.0240   85.3660 O.3   503  GDX503     -0.2149
     37  C3'      135.1600   65.1230   83.4680 C.3   503  GDX503      0.2203
     38  O3'      134.2620   64.5760   82.8270 O.3   503  GDX503     -0.2174
     39  C4'      135.0460   66.4670   83.4410 C.3   503  GDX503      0.2229
     40  O4'      134.8680   66.9210   82.3070 O.3   503  GDX503     -0.2171
@<TRIPOS>BOND
     1    40    39    1
     2    38    37    1
     3    39    37    1
     4    39    31    1
     5    37    35    1
     6    34    32   ar
     7    31    32    1
     8    31    30    1
     9    32    33   ar
    10    35    36    1
    11    35    29    1
    12    28    29    1
    13    28    25    1
    14    30    29    1
    15    26    25    2
    16    25    24    1
    17    25    27    1
    18    23    21    2
    19    24    21    1
    20    22    21    1
    21    21    20    1
    22    20    19    1
    23    19    17    1
    24    10     9    1
    25    10    11    1
    26     9     6    2
    27    17    18    1
    28    17    15    1
    29    11    12    1
    30    11     5    1
    31     6     7    1
    32     6     5    1
    33    13    15    1
    34    13    12    1
    35    13    14    1
    36     8     7    2
    37    18    12    1
    38    15    16    1
    39     7     3    2
    40     5     4    2
    41     3     2    2
    42     4     2    2
    43     2     1    1
