@<TRIPOS>MOLECULE
1mg0_DFB_A_1.pdb
 10 10 0 0 0
SMALL
GASTEIGER

@<TRIPOS>ATOM
      1  O1        20.6340    0.1640    9.2910 O.3   378  DFB378     -0.2151
      2  C7        19.4150    0.2490   10.0160 C.3   378  DFB378      0.2109
      3  C1        19.6970    0.5490   11.4660 C.ar  378  DFB378      0.0403
      4  C2        19.7230    1.9400   11.9880 C.ar  378  DFB378      0.1658
      5  F2        19.5060    3.0240   11.2340 F     378  DFB378     -0.2021
      6  C6        19.9470   -0.4930   12.3470 C.ar  378  DFB378      0.0006
      7  C5        20.2050   -0.2430   13.6990 C.ar  378  DFB378      0.0022
      8  C4        20.2440    1.0510   14.2270 C.ar  378  DFB378      0.0319
      9  C3        20.0120    2.1570   13.4130 C.ar  378  DFB378      0.1671
     10  F3        20.0320    3.4240   13.8740 F     378  DFB378     -0.2018
@<TRIPOS>BOND
     1     1     2    1
     2     2     3    1
     3     5     4    1
     4     3     4   ar
     5     3     6   ar
     6     4     9   ar
     7     6     7   ar
     8     9    10    1
     9     9     8   ar
    10     7     8   ar
