@<TRIPOS>MOLECULE
1mg0_NAD_A_1.pdb
 44 48 0 0 0
SMALL
GASTEIGER

@<TRIPOS>ATOM
      1  PA        29.4120    1.9960    4.0740 P.3   377  NAD377      0.2189
      2  O1A       30.3900    1.7010    5.1630 O.3   377  NAD377     -0.4371
      3  O2A       29.2930    1.0450    2.9350 O.2   377  NAD377     -0.5170
      4  O5B       29.6560    3.4370    3.4620 O.3   377  NAD377     -0.3112
      5  C5B       30.2280    4.4880    4.2620 C.3   377  NAD377      0.1813
      6  C4B       31.1650    5.2570    3.3580 C.3   377  NAD377      0.1821
      7  O4B       31.6990    6.3920    4.0680 O.3   377  NAD377     -0.3135
      8  C3B       32.3830    4.4700    2.8350 C.3   377  NAD377      0.2184
      9  O3B       32.4000    4.5930    1.4220 O.3   377  NAD377     -0.2174
     10  C2B       33.6020    5.1490    3.4590 C.3   377  NAD377      0.2570
     11  O2B       34.7510    5.1410    2.6200 O.3   377  NAD377     -0.2130
     12  C1B       33.0390    6.5750    3.6800 C.3   377  NAD377      0.3186
     13  N9A       33.7620    7.3610    4.6770 N.pl3 377  NAD377     -0.1439
     14  C8A       34.3360    6.9130    5.8360 C.3   377  NAD377      0.3377
     15  N7A       34.9100    7.8930    6.5210 N.2   377  NAD377     -0.2095
     16  C5A       34.7040    9.0320    5.7690 C.2   377  NAD377      0.2526
     17  C6A       35.0880   10.3980    5.9650 C.2   377  NAD377      0.4393
     18  N6A       35.6110   10.9000    7.0520 N.pl3 377  NAD377      0.2180
     19  N1A       34.6780   11.2500    4.9870 N.2   377  NAD377      0.0021
     20  C2A       33.9760   10.8410    3.8960 C.3   377  NAD377      0.5254
     21  N3A       33.6040    9.5900    3.6620 N.2   377  NAD377     -0.0055
     22  C4A       33.9830    8.7150    4.6240 C.2   377  NAD377      0.3518
     23  O3        28.0240    2.1130    4.8480 O.3   377  NAD377     -0.2703
     24  PN        26.4910    2.0400    4.3970 P.3   377  NAD377      0.2189
     25  O1N       25.9680    0.6560    4.4750 O.3   377  NAD377     -0.4371
     26  O2N       26.3470    2.8570    3.1550 O.2   377  NAD377     -0.5170
     27  O5D       25.8250    2.8460    5.6180 O.3   377  NAD377     -0.3112
     28  C5D       26.1840    4.2300    5.8400 C.3   377  NAD377      0.1813
     29  C4D       25.8070    4.6810    7.2510 C.3   377  NAD377      0.1799
     30  O4D       24.3600    4.7590    7.3790 O.3   377  NAD377     -0.3327
     31  C3D       26.2820    3.7720    8.3980 C.3   377  NAD377      0.2158
     32  O3D       26.5750    4.5250    9.5670 O.3   377  NAD377     -0.2175
     33  C2D       25.0210    2.9420    8.7000 C.3   377  NAD377      0.2309
     34  O2D       24.9910    2.3780    9.9930 O.3   377  NAD377     -0.2158
     35  C1D       23.9310    4.0070    8.4810 C.3   377  NAD377      0.2263
     36  N1N       22.5590    3.5380    8.1370 N.pl3 377  NAD377     -0.2787
     37  C2N       21.5140    4.2500    8.6480 C.3   377  NAD377      0.1244
     38  C3N       20.2030    3.9010    8.3380 C.2   377  NAD377      0.0544
     39  C7N       19.0220    4.6670    8.8460 C.2   377  NAD377      0.2818
     40  O7N       17.9000    4.1600    8.8000 O.2   377  NAD377     -0.2670
     41  N7N       19.2310    5.9180    9.2840 N.am  377  NAD377     -0.0839
     42  C4N       19.9800    2.8090    7.4770 C.2   377  NAD377      0.0033
     43  C5N       21.0730    2.1390    6.9510 C.2   377  NAD377      0.0157
     44  C6N       22.3500    2.5150    7.2870 C.2   377  NAD377      0.0633
@<TRIPOS>BOND
     1     9     8    1
     2    11    10    1
     3     8     6    1
     4     8    10    1
     5     3     1    2
     6    26    24    2
     7     6     7    1
     8     6     5    1
     9    10    12    1
    10     4     1    1
    11     4     5    1
    12    21    20    1
    13    21    22    2
    14    12     7    1
    15    12    13    1
    16    20    19    1
    17     1    23    1
    18     1     2    1
    19    24    25    1
    20    24    23    1
    21    24    27    1
    22    22    13    1
    23    22    16    1
    24    13    14    1
    25    19    17    2
    26    27    28    1
    27    16    17    1
    28    16    15    2
    29    14    15    1
    30    28    29    1
    31    17    18    1
    32    43    44    2
    33    43    42    1
    34    29    30    1
    35    29    31    1
    36    44    36    1
    37    30    35    1
    38    42    38    2
    39    36    35    1
    40    36    37    1
    41    38    37    1
    42    38    39    1
    43    31    33    1
    44    31    32    1
    45    35    33    1
    46    33    34    1
    47    40    39    2
    48    39    41   am
