@<TRIPOS>MOLECULE
1mg1_MAL_A_1.pdb
 23 24 0 0 0
SMALL
GASTEIGER

@<TRIPOS>ATOM
      1  C1         4.8240   25.3670   -0.5180 C.3   456  MAL456      0.2695
      2  C2         5.7360   24.2050   -0.0060 C.3   456  MAL456      0.2406
      3  C3         5.9850   23.2160   -1.1360 C.3   456  MAL456      0.2198
      4  C4         4.5880   22.6840   -1.6130 C.3   456  MAL456      0.2144
      5  C5         3.7140   23.8400   -2.0810 C.3   456  MAL456      0.1835
      6  C6         2.3090   23.3620   -2.4030 C.3   456  MAL456      0.2142
      7  O1         5.5920   25.9240   -1.5570 O.3   456  MAL456     -0.3257
      8  O2         6.9860   24.7380    0.4790 O.3   456  MAL456     -0.2149
      9  O3         6.7920   22.0990   -0.7060 O.3   456  MAL456     -0.2174
     10  O4         4.7100   21.7300   -2.6900 O.3   456  MAL456     -0.2176
     11  O5         3.6310   24.8160   -0.9850 O.3   456  MAL456     -0.3256
     12  O6         1.4610   24.4580   -2.9770 O.3   456  MAL456     -0.2176
     13  C1'        6.8090   29.6990   -2.9890 C.3   456  MAL456      0.3023
     14  C2'        7.0780   29.3430   -1.5040 C.3   456  MAL456      0.2433
     15  C3'        6.9910   27.8490   -1.3090 C.3   456  MAL456      0.2168
     16  C4'        5.6210   27.3540   -1.7380 C.3   456  MAL456      0.1804
     17  C5'        5.4840   27.5820   -3.2910 C.3   456  MAL456      0.1804
     18  C6'        4.1040   27.1580   -3.8190 C.3   456  MAL456      0.2141
     19  O1'        7.8710   29.3810   -3.7940 O.3   456  MAL456     -0.1869
     20  O2'        8.3820   29.7580   -1.1090 O.3   456  MAL456     -0.2148
     21  O3'        7.2020   27.6310    0.1000 O.3   456  MAL456     -0.2175
     22  O5'        5.7890   28.9620   -3.6030 O.3   456  MAL456     -0.3237
     23  O6'        4.2000   27.4540   -5.2120 O.3   456  MAL456     -0.2176
@<TRIPOS>BOND
     1    23    18    1
     2    18    17    1
     3    19    13    1
     4    22    17    1
     5    22    13    1
     6    17    16    1
     7    13    14    1
     8    12     6    1
     9    10     4    1
    10     6     5    1
    11     5     4    1
    12     5    11    1
    13    16     7    1
    14    16    15    1
    15     4     3    1
    16     7     1    1
    17    14    15    1
    18    14    20    1
    19    15    21    1
    20     3     9    1
    21     3     2    1
    22    11     1    1
    23     1     2    1
    24     2     8    1
