@<TRIPOS>MOLECULE
1mg2_HEM_D_1.pdb
 43 50 0 0 0
SMALL
GASTEIGER

@<TRIPOS>ATOM
      1 FE         12.4670   40.6950   37.1970 Fe    200  HEM200      0.0000
      2  CHA       11.5590   37.6160   38.2520 C.2   200  HEM200      0.0000
      3  CHB        9.8850   42.0360   38.9800 C.2   200  HEM200      0.0000
      4  CHC       13.3700   43.8300   36.1900 C.2   200  HEM200      0.0000
      5  CHD       14.9590   39.3650   35.3220 C.2   200  HEM200      0.0000
      6  NA        10.9950   39.9590   38.3990 N.2   200  HEM200      0.0000
      7  C1A       10.7960   38.6450   38.7120 C.2   200  HEM200      0.0000
      8  C2A        9.6470   38.5280   39.5960 C.2   200  HEM200      0.0000
      9  C3A        9.1750   39.7670   39.7960 C.2   200  HEM200      0.0000
     10  C4A       10.0150   40.6860   39.0520 C.2   200  HEM200      0.0000
     11  CMA        7.9740   40.1930   40.6520 C.3   200  HEM200      0.0000
     12  CAA        9.1070   37.1890   40.1620 C.3   200  HEM200      0.0000
     13  CBA        7.8110   36.7520   39.4510 C.3   200  HEM200      0.0000
     14  CGA        7.2470   35.4070   39.8880 C.2   200  HEM200      0.0000
     15  O1A        6.9920   35.2950   41.1380 O.co2 200  HEM200      0.0000
     16  O2A        7.0640   34.5380   39.0360 O.co2 200  HEM200      0.0000
     17  NB        11.7750   42.5630   37.5130 N.ar  200  HEM200      0.0000
     18  C1B       10.6750   42.9040   38.2940 C.ar  200  HEM200      0.0000
     19  C2B       10.4850   44.3400   38.2760 C.ar  200  HEM200      0.0000
     20  C3B       11.4760   44.8510   37.5050 C.ar  200  HEM200      0.0000
     21  C4B       12.2680   43.7500   37.0250 C.ar  200  HEM200      0.0000
     22  CMB        9.3670   45.0920   39.0150 C.3   200  HEM200      0.0000
     23  CAB       11.7690   46.3140   37.1550 C.3   200  HEM200      0.0000
     24  CBB       12.2040   47.1610   38.3720 C.3   200  HEM200      0.0000
     25  NC        13.8860   41.4340   36.0050 N.2   200  HEM200      0.0000
     26  C1C       14.1010   42.7630   35.7080 C.2   200  HEM200      0.0000
     27  C2C       15.2110   42.9020   34.7710 C.2   200  HEM200      0.0000
     28  C3C       15.6470   41.6640   34.5080 C.2   200  HEM200      0.0000
     29  C4C       14.8350   40.7370   35.2800 C.2   200  HEM200      0.0000
     30  CMC       15.7160   44.2630   34.2100 C.3   200  HEM200      0.0000
     31  CAC       16.7580   41.2340   33.5480 C.3   200  HEM200      0.0000
     32  CBC       18.1900   41.6700   33.9240 C.3   200  HEM200      0.0000
     33  ND        13.1310   38.8710   36.8640 N.ar  200  HEM200      0.0000
     34  C1D       14.1990   38.4790   36.0510 C.ar  200  HEM200      0.0000
     35  C2D       14.3570   37.0290   36.1020 C.ar  200  HEM200      0.0000
     36  C3D       13.4050   36.5540   36.9410 C.ar  200  HEM200      0.0000
     37  C4D       12.6410   37.6910   37.3960 C.ar  200  HEM200      0.0000
     38  CMD       15.4290   36.2230   35.3360 C.3   200  HEM200      0.0000
     39  CAD       13.1540   35.0990   37.3640 C.3   200  HEM200      0.0000
     40  CBD       13.7540   34.9920   38.8200 C.3   200  HEM200      0.0000
     41  CGD       13.6250   33.6750   39.5260 C.2   200  HEM200      0.0000
     42  O1D       14.3810   33.4330   40.4850 O.co2 200  HEM200      0.0000
     43  O2D       12.7220   32.9210   39.1200 O.co2 200  HEM200      0.0000
@<TRIPOS>BOND
     1    31    32    1
     2    31    28    1
     3    30    27    1
     4    28    27    2
     5    28    29    1
     6    27    26    1
     7    29     5    1
     8    29    25    2
     9     5    34    2
    10    38    35    1
    11    26    25    1
    12    26     4    2
    13    25     1    1
    14    34    35   ar
    15    34    33   ar
    16    35    36   ar
    17     4    21    1
    18    33     1    1
    19    33    37   ar
    20    36    39    1
    21    36    37   ar
    22    21    20   ar
    23    21    17   ar
    24    23    20    1
    25    23    24    1
    26     1    17    1
    27     1     6    1
    28    39    40    1
    29    37     2    2
    30    20    19   ar
    31    17    18   ar
    32     2     7    1
    33    19    18   ar
    34    19    22    1
    35    18     3    1
    36     6     7    2
    37     6    10    1
    38     7     8    1
    39    40    41    1
    40     3    10    2
    41    16    14   ar
    42    10     9    1
    43    43    41   ar
    44    13    14    1
    45    13    12    1
    46    41    42   ar
    47     8     9    2
    48     8    12    1
    49     9    11    1
    50    14    15   ar
