@<TRIPOS>MOLECULE
1mg3_HEM_D_1.pdb
 43 50 0 0 0
SMALL
GASTEIGER

@<TRIPOS>ATOM
      1 FE         12.7580   40.5580   37.6720 Fe    200  HEM200      0.0000
      2  CHA       11.9080   37.4990   38.7970 C.2   200  HEM200      0.0000
      3  CHB       10.2000   41.9340   39.4550 C.2   200  HEM200      0.0000
      4  CHC       13.6080   43.6660   36.5460 C.2   200  HEM200      0.0000
      5  CHD       15.2750   39.2420   35.8260 C.2   200  HEM200      0.0000
      6  NA        11.3230   39.8420   38.9070 N.2   200  HEM200      0.0000
      7  C1A       11.1380   38.5330   39.2470 C.2   200  HEM200      0.0000
      8  C2A       10.0040   38.4340   40.1500 C.2   200  HEM200      0.0000
      9  C3A        9.5260   39.6760   40.3360 C.2   200  HEM200      0.0000
     10  C4A       10.3410   40.5800   39.5560 C.2   200  HEM200      0.0000
     11  CMA        8.3340   40.1180   41.2000 C.3   200  HEM200      0.0000
     12  CAA        9.4860   37.1160   40.7430 C.3   200  HEM200      0.0000
     13  CBA        8.2010   36.6870   40.0150 C.3   200  HEM200      0.0000
     14  CGA        7.7840   35.2540   40.2400 C.2   200  HEM200      0.0000
     15  O1A        7.2840   35.0100   41.3890 O.co2 200  HEM200      0.0000
     16  O2A        7.9390   34.4480   39.3280 O.co2 200  HEM200      0.0000
     17  NB        12.0580   42.4300   37.9360 N.ar  200  HEM200      0.0000
     18  C1B       10.9700   42.7930   38.7240 C.ar  200  HEM200      0.0000
     19  C2B       10.7750   44.2360   38.6530 C.ar  200  HEM200      0.0000
     20  C3B       11.7450   44.7140   37.8370 C.ar  200  HEM200      0.0000
     21  C4B       12.5300   43.6020   37.3940 C.ar  200  HEM200      0.0000
     22  CMB        9.6720   45.0220   39.3790 C.3   200  HEM200      0.0000
     23  CAB       12.0360   46.1480   37.4080 C.3   200  HEM200      0.0000
     24  CBB       12.5450   47.0510   38.5480 C.3   200  HEM200      0.0000
     25  NC        14.1630   41.2890   36.4430 N.2   200  HEM200      0.0000
     26  C1C       14.3500   42.6080   36.1010 C.2   200  HEM200      0.0000
     27  C2C       15.4550   42.7480   35.1650 C.2   200  HEM200      0.0000
     28  C3C       15.9250   41.5200   34.9450 C.2   200  HEM200      0.0000
     29  C4C       15.1290   40.5990   35.7440 C.2   200  HEM200      0.0000
     30  CMC       15.9210   44.1100   34.5690 C.3   200  HEM200      0.0000
     31  CAC       17.0610   41.0930   34.0120 C.3   200  HEM200      0.0000
     32  CBC       18.4690   41.5650   34.4180 C.3   200  HEM200      0.0000
     33  ND        13.4570   38.7500   37.3780 N.ar  200  HEM200      0.0000
     34  C1D       14.5290   38.3670   36.5670 C.ar  200  HEM200      0.0000
     35  C2D       14.7150   36.9290   36.6360 C.ar  200  HEM200      0.0000
     36  C3D       13.7730   36.4410   37.4730 C.ar  200  HEM200      0.0000
     37  C4D       12.9880   37.5700   37.9270 C.ar  200  HEM200      0.0000
     38  CMD       15.8050   36.1440   35.8720 C.3   200  HEM200      0.0000
     39  CAD       13.5620   34.9860   37.8740 C.3   200  HEM200      0.0000
     40  CBD       14.0010   34.8010   39.3580 C.3   200  HEM200      0.0000
     41  CGD       13.8050   33.4020   39.8460 C.2   200  HEM200      0.0000
     42  O1D       14.7400   32.8170   40.4090 O.co2 200  HEM200      0.0000
     43  O2D       12.6640   32.9240   39.6510 O.co2 200  HEM200      0.0000
@<TRIPOS>BOND
     1    31    32    1
     2    31    28    1
     3    30    27    1
     4    28    27    2
     5    28    29    1
     6    27    26    1
     7    29     5    1
     8    29    25    2
     9     5    34    2
    10    38    35    1
    11    26    25    1
    12    26     4    2
    13    25     1    1
    14     4    21    1
    15    34    35   ar
    16    34    33   ar
    17    35    36   ar
    18    33     1    1
    19    33    37   ar
    20    21    20   ar
    21    21    17   ar
    22    23    20    1
    23    23    24    1
    24    36    39    1
    25    36    37   ar
    26     1    17    1
    27     1     6    1
    28    20    19   ar
    29    39    40    1
    30    37     2    2
    31    17    18   ar
    32    19    18   ar
    33    19    22    1
    34    18     3    1
    35     2     7    1
    36     6     7    2
    37     6    10    1
    38     7     8    1
    39    16    14   ar
    40    40    41    1
    41     3    10    2
    42    10     9    1
    43    43    41   ar
    44    41    42   ar
    45    13    14    1
    46    13    12    1
    47     8     9    2
    48     8    12    1
    49    14    15   ar
    50     9    11    1
