@<TRIPOS>MOLECULE
1mg5_NAD_A_1.pdb
 44 48 0 0 0
SMALL
GASTEIGER

@<TRIPOS>ATOM
      1  PA        -0.4390   -6.0360   32.5450 P.3   850  NAD850      0.2189
      2  O1A       -1.2070   -5.5630   31.3640 O.2   850  NAD850     -0.5170
      3  O2A       -1.2470   -6.6880   33.5930 O.3   850  NAD850     -0.4371
      4  O5B        0.3430   -4.8770   33.2880 O.3   850  NAD850     -0.3112
      5  C5B        0.8290   -3.7240   32.5030 C.3   850  NAD850      0.1813
      6  C4B        1.2440   -2.7380   33.5970 C.3   850  NAD850      0.1821
      7  O4B        1.7410   -1.5490   32.9240 O.3   850  NAD850     -0.3135
      8  C3B        0.0480   -2.2550   34.4470 C.3   850  NAD850      0.2184
      9  O3B        0.5380   -1.8330   35.6960 O.3   850  NAD850     -0.2174
     10  C2B       -0.4370   -1.0660   33.6160 C.3   850  NAD850      0.2570
     11  O2B       -1.3840   -0.1930   34.2150 O.3   850  NAD850     -0.2130
     12  C1B        0.9520   -0.4490   33.3240 C.3   850  NAD850      0.3186
     13  N9A        0.8280    0.5350   32.2430 N.pl3 850  NAD850     -0.1439
     14  C8A        0.4260    0.3700   30.9500 C.3   850  NAD850      0.3377
     15  N7A        0.3560    1.5410   30.2900 N.2   850  NAD850     -0.2095
     16  C5A        0.7230    2.4700   31.2250 C.2   850  NAD850      0.2526
     17  C6A        0.8550    3.8810   31.1600 C.2   850  NAD850      0.4393
     18  N6A        0.6040    4.5550   30.0450 N.pl3 850  NAD850      0.2180
     19  N1A        1.2480    4.5030   32.2970 N.2   850  NAD850      0.0021
     20  C2A        1.4910    3.7920   33.4360 C.3   850  NAD850      0.5254
     21  N3A        1.3880    2.4930   33.5800 N.2   850  NAD850     -0.0055
     22  C4A        0.9930    1.8900   32.4430 C.2   850  NAD850      0.3518
     23  O3         0.7230   -6.9860   31.9880 O.3   850  NAD850     -0.2703
     24  PN         1.9660   -7.6370   32.7260 P.3   850  NAD850      0.2189
     25  O1N        2.1190   -9.0010   32.1660 O.2   850  NAD850     -0.5170
     26  O2N        1.7990   -7.5650   34.1870 O.3   850  NAD850     -0.4371
     27  O5D        3.1170   -6.6490   32.1860 O.3   850  NAD850     -0.3112
     28  C5D        3.9800   -5.9800   33.1140 C.3   850  NAD850      0.1813
     29  C4D        5.3010   -5.6800   32.4230 C.3   850  NAD850      0.1796
     30  O4D        5.9350   -6.9540   32.1440 O.3   850  NAD850     -0.3354
     31  C3D        5.2340   -4.9100   31.1130 C.3   850  NAD850      0.2155
     32  O3D        6.3520   -4.0170   30.9610 O.3   850  NAD850     -0.2176
     33  C2D        5.2920   -6.0530   30.0920 C.3   850  NAD850      0.2271
     34  O2D        5.8170   -5.5660   28.8480 O.3   850  NAD850     -0.2161
     35  C1D        6.3230   -6.9550   30.7740 C.3   850  NAD850      0.2096
     36  N1N        6.3780   -8.3390   30.3210 N.3   850  NAD850     -0.2482
     37  C2N        5.3130   -9.1550   30.4870 C.3   850  NAD850      0.0834
     38  C3N        5.3940  -10.4330   29.9930 C.3   850  NAD850      0.0959
     39  C7N        4.2400  -11.4800   30.0050 C.2   850  NAD850      0.2616
     40  O7N        4.3590  -12.5170   29.3420 O.2   850  NAD850     -0.2716
     41  N7N        3.1890  -11.1900   30.7910 N.am  850  NAD850     -0.0878
     42  C4N        6.6370  -11.0630   29.6960 C.3   850  NAD850      0.0120
     43  C5N        7.6820  -10.1190   29.5110 C.3   850  NAD850      0.0179
     44  C6N        7.6580   -8.8170   29.9350 C.3   850  NAD850      0.0743
@<TRIPOS>BOND
     1    34    33    1
     2    40    39    2
     3    43    42    1
     4    43    44    1
     5    42    38    1
     6    44    36    1
     7    38    39    1
     8    38    37    1
     9    39    41   am
    10    18    17    1
    11    33    35    1
    12    33    31    1
    13    15    14    1
    14    15    16    2
    15    36    37    1
    16    36    35    1
    17    35    30    1
    18    14    13    1
    19    32    31    1
    20    31    29    1
    21    17    16    1
    22    17    19    2
    23    16    22    1
    24     2     1    2
    25    23     1    1
    26    23    24    1
    27    30    29    1
    28    25    24    2
    29    27    24    1
    30    27    28    1
    31    13    22    1
    32    13    12    1
    33    19    20    1
    34    29    28    1
    35    22    21    2
    36     5     4    1
    37     5     6    1
    38     1     4    1
    39     1     3    1
    40    24    26    1
    41     7    12    1
    42     7     6    1
    43    12    10    1
    44    20    21    1
    45     6     8    1
    46    10    11    1
    47    10     8    1
    48     8     9    1
