@<TRIPOS>MOLECULE
1mgn_HEM_A_1.pdb
 43 50 0 0 0
SMALL
GASTEIGER

@<TRIPOS>ATOM
      1 FE         35.5030    4.4300   10.3370 Fe    154  HEM154      0.0000
      2  CHA       38.0700    2.2330   11.1960 C.2   154  HEM154      0.0000
      3  CHB       37.2680    5.3430    7.4710 C.2   154  HEM154      0.0000
      4  CHC       32.7660    6.2350    9.1510 C.2   154  HEM154      0.0000
      5  CHD       33.6280    3.2600   12.9290 C.2   154  HEM154      0.0000
      6  NA        37.2570    3.9150    9.5000 N.ar  154  HEM154      0.0000
      7  C1A       38.2110    3.0200   10.0350 C.ar  154  HEM154      0.0000
      8  C2A       39.4100    3.0230    9.1730 C.ar  154  HEM154      0.0000
      9  C3A       39.2160    3.9000    8.1180 C.ar  154  HEM154      0.0000
     10  C4A       37.8730    4.4310    8.3750 C.ar  154  HEM154      0.0000
     11  CMA       40.1410    4.2530    6.9580 C.3   154  HEM154      0.0000
     12  CAA       40.6530    2.1440    9.4980 C.3   154  HEM154      0.0000
     13  CBA       40.7400    1.0160    8.4740 C.3   154  HEM154      0.0000
     14  CGA       39.5090    0.1250    8.5180 C.2   154  HEM154      0.0000
     15  O1A       39.1740   -0.3610    9.6110 O.co2 154  HEM154      0.0000
     16  O2A       38.8200    0.0430    7.4860 O.co2 154  HEM154      0.0000
     17  NB        35.0640    5.5530    8.6560 N.2   154  HEM154      0.0000
     18  C1B       35.8700    5.8270    7.6230 C.2   154  HEM154      0.0000
     19  C2B       35.2730    6.7390    6.6700 C.2   154  HEM154      0.0000
     20  C3B       34.0540    7.0310    7.1420 C.2   154  HEM154      0.0000
     21  C4B       33.9520    6.2830    8.3660 C.2   154  HEM154      0.0000
     22  CMB       35.9630    7.2910    5.3930 C.3   154  HEM154      0.0000
     23  CAB       33.1040    8.0300    6.5870 C.3   154  HEM154      0.0000
     24  CBB       33.3670    9.3500    6.0650 C.3   154  HEM154      0.0000
     25  NC        33.5110    4.6140   10.8310 N.ar  154  HEM154      0.0000
     26  C1C       32.6390    5.4980   10.3600 C.ar  154  HEM154      0.0000
     27  C2C       31.5600    5.6740   11.2630 C.ar  154  HEM154      0.0000
     28  C3C       31.7300    4.8470   12.3200 C.ar  154  HEM154      0.0000
     29  C4C       32.9800    4.1630   12.0290 C.ar  154  HEM154      0.0000
     30  CMC       30.4090    6.6630   11.0340 C.3   154  HEM154      0.0000
     31  CAC       31.0520    4.6610   13.6320 C.3   154  HEM154      0.0000
     32  CBC       29.8840    5.3210   14.1370 C.3   154  HEM154      0.0000
     33  ND        35.7650    3.0350   11.6820 N.2   154  HEM154      0.0000
     34  C1D       34.8790    2.7040   12.7290 C.2   154  HEM154      0.0000
     35  C2D       35.5180    1.7820   13.7420 C.2   154  HEM154      0.0000
     36  C3D       36.7130    1.6620   13.2710 C.2   154  HEM154      0.0000
     37  C4D       36.9070    2.3360   11.9800 C.2   154  HEM154      0.0000
     38  CMD       34.9830    1.1830   14.9990 C.3   154  HEM154      0.0000
     39  CAD       37.8610    0.9860   13.9940 C.3   154  HEM154      0.0000
     40  CBD       38.7720    1.9910   14.7290 C.3   154  HEM154      0.0000
     41  CGD       39.9160    1.3200   15.5020 C.2   154  HEM154      0.0000
     42  O1D       39.6390    0.7530   16.5550 O.co2 154  HEM154      0.0000
     43  O2D       41.0310    1.7550   15.3210 O.co2 154  HEM154      0.0000
@<TRIPOS>BOND
     1    22    19    1
     2    24    23    1
     3    23    20    1
     4    19    20    2
     5    19    18    1
     6    11     9    1
     7    20    21    1
     8     3    18    1
     9     3    10    2
    10    16    14   ar
    11    18    17    2
    12     9    10   ar
    13     9     8   ar
    14    21    17    1
    15    21     4    2
    16    10     6   ar
    17    13    14    1
    18    13    12    1
    19    14    15   ar
    20    17     1    1
    21     4    26    1
    22     8    12    1
    23     8     7   ar
    24     6     7   ar
    25     6     1    1
    26     7     2    2
    27     1    25    1
    28     1    33    1
    29    26    25   ar
    30    26    27   ar
    31    25    29   ar
    32    30    27    1
    33     2    37    1
    34    27    28   ar
    35    33    37    2
    36    33    34    1
    37    37    36    1
    38    29    28   ar
    39    29     5    1
    40    28    31    1
    41    34     5    2
    42    34    35    1
    43    36    35    2
    44    36    39    1
    45    31    32    1
    46    35    38    1
    47    39    40    1
    48    40    41    1
    49    43    41   ar
    50    41    42   ar
