@<TRIPOS>MOLECULE
1mgo_PFB_B_1.pdb
 13 13 0 0 0
SMALL
GASTEIGER

@<TRIPOS>ATOM
      1  C1         5.8650   -7.3530  -15.0240 C.ar  601  PFB601      0.0701
      2  C2         5.9060   -5.9680  -15.0130 C.ar  601  PFB601      0.1704
      3  C3         4.8970   -5.2600  -14.3690 C.ar  601  PFB601      0.1968
      4  C4         3.8700   -5.9210  -13.7460 C.ar  601  PFB601      0.1991
      5  C5         3.8210   -7.2920  -13.7560 C.ar  601  PFB601      0.1968
      6  C6         4.8160   -8.0040  -14.3910 C.ar  601  PFB601      0.1704
      7  C7         6.8600   -8.0830  -15.6620 C.3   601  PFB601      0.2132
      8  F2         6.9310   -5.3400  -15.6190 F     601  PFB601     -0.2019
      9  F3         4.8670   -3.9230  -14.3240 F     601  PFB601     -0.1993
     10  F4         2.9060   -5.2190  -13.1450 F     601  PFB601     -0.1993
     11  F5         2.8120   -7.9130  -13.1410 F     601  PFB601     -0.1993
     12  F6         4.7620   -9.3380  -14.3860 F     601  PFB601     -0.2019
     13  O1         7.1880   -9.2020  -14.8650 O.3   601  PFB601     -0.2150
@<TRIPOS>BOND
     1     7     1    1
     2     7    13    1
     3     8     2    1
     4     1     2   ar
     5     1     6   ar
     6     2     3   ar
     7     6    12    1
     8     6     5   ar
     9     3     9    1
    10     3     4   ar
    11     5     4   ar
    12     5    11    1
    13     4    10    1
