@<TRIPOS>MOLECULE
1mgo_NAD_A_1.pdb
 44 48 0 0 0
SMALL
GASTEIGER

@<TRIPOS>ATOM
      1  PA        13.0380    8.3940  -18.1880 P.3   377  NAD377      0.2189
      2  O1A       14.2870    7.6460  -18.4070 O.3   377  NAD377     -0.4371
      3  O2A       12.7440    9.4350  -19.2170 O.2   377  NAD377     -0.5170
      4  O5B       13.0750    9.1860  -16.7450 O.3   377  NAD377     -0.3112
      5  C5B       13.6150    8.5610  -15.5660 C.3   377  NAD377      0.1813
      6  C4B       14.2450    9.7190  -14.7890 C.3   377  NAD377      0.1821
      7  O4B       14.7920    9.1770  -13.5840 O.3   377  NAD377     -0.3135
      8  C3B       15.4380   10.4480  -15.4710 C.3   377  NAD377      0.2184
      9  O3B       15.1580   11.8330  -15.5840 O.3   377  NAD377     -0.2174
     10  C2B       16.6560   10.0650  -14.6030 C.3   377  NAD377      0.2570
     11  O2B       17.6130   11.0810  -14.5470 O.3   377  NAD377     -0.2130
     12  C1B       15.9660    9.8040  -13.2170 C.3   377  NAD377      0.3186
     13  N9A       16.7600    9.0010  -12.3090 N.pl3 377  NAD377     -0.1439
     14  C8A       17.5460    7.9150  -12.6090 C.3   377  NAD377      0.3377
     15  N7A       18.1190    7.4130  -11.5270 N.2   377  NAD377     -0.2095
     16  C5A       17.6860    8.1820  -10.4890 C.2   377  NAD377      0.2526
     17  C6A       17.9530    8.1150   -9.0990 C.2   377  NAD377      0.4393
     18  N6A       18.6590    7.1460   -8.5230 N.pl3 377  NAD377      0.2180
     19  N1A       17.3380    9.0930   -8.3830 N.2   377  NAD377      0.0021
     20  C2A       16.4790    9.9990   -8.8890 C.3   377  NAD377      0.5254
     21  N3A       16.2450   10.1200  -10.1900 N.2   377  NAD377     -0.0055
     22  C4A       16.8370    9.1660  -10.9500 C.2   377  NAD377      0.3518
     23  O3        11.8950    7.3500  -18.1320 O.3   377  NAD377     -0.2703
     24  PN        10.2730    7.4400  -18.3340 P.3   377  NAD377      0.2189
     25  O1N        9.8810    7.0900  -19.7440 O.2   377  NAD377     -0.5170
     26  O2N        9.8580    8.7200  -17.7300 O.3   377  NAD377     -0.4371
     27  O5D        9.8480    6.1900  -17.4920 O.3   377  NAD377     -0.3112
     28  C5D       10.0390    6.2280  -16.0570 C.3   377  NAD377      0.1813
     29  C4D        9.7370    4.8290  -15.5050 C.3   377  NAD377      0.1799
     30  O4D        8.3270    4.4910  -15.6150 O.3   377  NAD377     -0.3327
     31  C3D       10.4600    3.6400  -16.1900 C.3   377  NAD377      0.2158
     32  O3D       10.8980    2.6490  -15.2790 O.3   377  NAD377     -0.2175
     33  C2D        9.4120    3.0960  -17.1540 C.3   377  NAD377      0.2309
     34  O2D        9.6400    1.7400  -17.5360 O.3   377  NAD377     -0.2158
     35  C1D        8.1880    3.2110  -16.2250 C.3   377  NAD377      0.2263
     36  N1N        6.9030    3.2820  -16.9250 N.pl3 377  NAD377     -0.2787
     37  C2N        5.8310    2.7180  -16.2890 C.3   377  NAD377      0.1244
     38  C3N        4.5420    2.6970  -16.7870 C.2   377  NAD377      0.0544
     39  C7N        3.3970    2.1490  -16.0260 C.2   377  NAD377      0.2818
     40  O7N        2.3910    1.9180  -16.6870 O.2   377  NAD377     -0.2670
     41  N7N        3.5350    1.9410  -14.7180 N.am  377  NAD377     -0.0839
     42  C4N        4.3450    3.3870  -18.0320 C.2   377  NAD377      0.0033
     43  C5N        5.4210    4.0420  -18.5970 C.2   377  NAD377      0.0157
     44  C6N        6.7030    3.9620  -18.0780 C.2   377  NAD377      0.0633
@<TRIPOS>BOND
     1    25    24    2
     2     3     1    2
     3    43    44    2
     4    43    42    1
     5     2     1    1
     6    24    23    1
     7    24    26    1
     8    24    27    1
     9     1    23    1
    10     1     4    1
    11    44    36    1
    12    42    38    2
    13    34    33    1
    14    27    28    1
    15    33    35    1
    16    33    31    1
    17    36    37    1
    18    36    35    1
    19    38    37    1
    20    38    39    1
    21     4     5    1
    22    40    39    2
    23    35    30    1
    24    31    29    1
    25    31    32    1
    26    28    29    1
    27    39    41   am
    28    30    29    1
    29     9     8    1
    30     5     6    1
    31     8     6    1
    32     8    10    1
    33     6     7    1
    34    10    11    1
    35    10    12    1
    36     7    12    1
    37    12    13    1
    38    14    13    1
    39    14    15    1
    40    13    22    1
    41    15    16    2
    42    22    16    1
    43    22    21    2
    44    16    17    1
    45    21    20    1
    46    17    18    1
    47    17    19    2
    48    20    19    1
