@<TRIPOS>MOLECULE
1mgv_PLP_A_1.pdb
 15 15 0 0 0
SMALL
GASTEIGER

@<TRIPOS>ATOM
      1  N1        63.5280   -4.6330   31.9700 N.2   700  PLP700     -0.2458
      2  C2        64.3070   -4.1200   32.9800 C.2   700  PLP700      0.0942
      3  C2A       65.7180   -4.5640   33.1820 C.3   700  PLP700      0.0552
      4  C3        63.7780   -3.1750   33.8330 C.2   700  PLP700      0.1899
      5  O3        64.4760   -2.7120   34.7450 O.2   700  PLP700     -0.2898
      6  C4        62.4680   -2.7420   33.6650 C.3   700  PLP700      0.0852
      7  C4A       61.9580   -1.7240   34.6390 C.3   700  PLP700      0.0127
      8  C5        61.6820   -3.2520   32.6460 C.2   700  PLP700      0.0118
      9  C6        62.2320   -4.2120   31.7950 C.2   700  PLP700      0.0929
     10  C5A       60.2440   -2.8350   32.4440 C.3   700  PLP700      0.1779
     11  O4P       59.9390   -1.4590   32.0900 O.3   700  PLP700     -0.2656
     12  P         58.4520   -0.8760   32.2570 P.3   700  PLP700      0.5329
     13  O1P       58.2440   -0.9630   33.6820 O.3   700  PLP700     -0.1145
     14  O2P       57.5760   -1.8010   31.4920 O.2   700  PLP700     -0.2224
     15  O3P       58.5480    0.4580   31.6380 O.3   700  PLP700     -0.1145
@<TRIPOS>BOND
     1    14    12    2
     2    15    12    1
     3     9     1    1
     4     9     8    2
     5     1     2    2
     6    11    12    1
     7    11    10    1
     8    12    13    1
     9    10     8    1
    10     8     6    1
    11     2     3    1
    12     2     4    1
    13     6     4    1
    14     6     7    1
    15     4     5    2
