@<TRIPOS>MOLECULE
1mgy_RET_A_1.pdb
 20 20 0 0 0
SMALL
GASTEIGER

@<TRIPOS>ATOM
      1  C1         4.2250   35.2430   32.6440 C.3   301  RET301      0.0183
      2  C2         3.9680   36.4460   31.7400 C.3   301  RET301      0.0044
      3  C3         2.7180   36.4050   30.9750 C.3   301  RET301      0.0047
      4  C4         2.5400   35.1230   30.2150 C.3   301  RET301      0.0217
      5  C5         2.8000   33.8700   31.0390 C.2   301  RET301     -0.0479
      6  C6         3.5490   33.9360   32.1610 C.2   301  RET301     -0.0307
      7  C7         3.6560   32.6590   32.8830 C.2   301  RET301     -0.0052
      8  C8         4.3190   32.3810   34.0420 C.2   301  RET301     -0.0049
      9  C9         4.3770   31.1010   34.7300 C.2   301  RET301     -0.0261
     10  C10        5.0960   31.1420   35.8810 C.2   301  RET301     -0.0300
     11  C11        5.2380   29.9410   36.7270 C.3   301  RET301      0.0300
     12  C12        5.9800   30.2120   37.8490 C.3   301  RET301      0.0264
     13  C13        6.2600   29.2080   38.8650 C.2   301  RET301     -0.0478
     14  C14        7.0010   29.7100   39.8800 C.2   301  RET301     -0.0342
     15  C15        7.5500   28.8790   40.9310 C.3   301  RET301      0.0300
     16  C16        5.7680   35.0180   32.7210 C.3   301  RET301      0.0043
     17  C17        3.6870   35.7670   34.0410 C.3   301  RET301      0.0043
     18  C18        2.0930   32.7050   30.4370 C.3   301  RET301      0.0260
     19  C19        3.6800   29.8820   34.2160 C.3   301  RET301      0.0307
     20  C20        5.7550   27.8080   38.7540 C.3   301  RET301      0.0260
@<TRIPOS>BOND
     1     4     3    1
     2     4     5    1
     3    18     5    1
     4     3     2    1
     5     5     6    2
     6     2     1    1
     7     6     1    1
     8     6     7    1
     9     1    16    1
    10     1    17    1
    11     7     8    2
    12     8     9    1
    13    19     9    1
    14     9    10    2
    15    10    11    1
    16    11    12    1
    17    12    13    1
    18    20    13    1
    19    13    14    2
    20    14    15    1
