@<TRIPOS>MOLECULE
1mh1_GNP_A_1.pdb
 32 34 0 0 0
SMALL
GASTEIGER

@<TRIPOS>ATOM
      1  PG         5.7810   45.9970   14.2520 P.3   200  GNP200      0.4884
      2  O1G        5.8030   45.5510   12.7690 O.2   200  GNP200     -0.2331
      3  O2G        6.9640   45.6740   14.9500 O.3   200  GNP200     -0.1240
      4  O3G        5.4630   47.5140   14.3550 O.3   200  GNP200     -0.1240
      5  N3B        4.5030   45.3220   14.9730 N.3   200  GNP200     -0.0163
      6  PB         4.3780   43.5980   15.3370 P.3   200  GNP200      0.4669
      7  O1B        3.7850   42.9200   14.1670 O.2   200  GNP200     -0.2351
      8  O2B        5.5960   43.0770   15.8630 O.3   200  GNP200     -0.1253
      9  O3A        3.2390   43.5200   16.3900 O.3   200  GNP200     -0.2360
     10  PA         3.3700   43.1710   18.0370 P.3   200  GNP200      0.2220
     11  O1A        3.9400   41.7580   18.1900 O.2   200  GNP200     -0.5170
     12  O2A        4.1300   44.3290   18.6520 O.3   200  GNP200     -0.4370
     13  O5'        1.9040   43.1910   18.4680 O.3   200  GNP200     -0.3111
     14  C5'        1.0480   44.3170   18.1670 C.3   200  GNP200      0.1813
     15  C4'       -0.1270   44.3650   19.0560 C.3   200  GNP200      0.1799
     16  O4'       -0.9550   43.1660   18.9200 O.3   200  GNP200     -0.3326
     17  C3'        0.2220   44.4660   20.5490 C.3   200  GNP200      0.2158
     18  O3'       -0.8180   45.2400   21.1980 O.3   200  GNP200     -0.2175
     19  C2'        0.1400   42.9790   21.0150 C.3   200  GNP200      0.2310
     20  O2'       -0.2540   42.7810   22.4010 O.3   200  GNP200     -0.2158
     21  C1'       -1.0450   42.4500   20.1810 C.3   200  GNP200      0.2293
     22  N9        -1.0750   40.9780   19.8630 N.pl3 200  GNP200     -0.2354
     23  C8         0.0940   40.3790   19.3440 C.3   200  GNP200      0.2246
     24  N7        -0.2970   39.0910   19.2670 N.2   200  GNP200     -0.2322
     25  C5        -1.5040   38.9230   19.6930 C.2   200  GNP200      0.2182
     26  C6        -2.4530   37.8800   19.8510 C.1   200  GNP200      0.2372
     27  O6        -2.0950   36.6100   19.5220 O.2   200  GNP200     -0.2069
     28  N1        -3.6820   38.0590   20.3260 N.2   200  GNP200     -0.2485
     29  C2        -4.0620   39.4410   20.7180 C.1   200  GNP200      0.2531
     30  N2        -5.2750   39.4080   21.1670 N.pl3 200  GNP200     -0.0226
     31  N3        -3.2670   40.3790   20.5950 N.2   200  GNP200     -0.3074
     32  C4        -2.0700   40.1580   20.0920 C.2   200  GNP200      0.2300
@<TRIPOS>BOND
     1     2     1    2
     2     7     6    2
     3     1     4    1
     4     1     3    1
     5     1     5    1
     6     5     6    1
     7     6     8    1
     8     6     9    1
     9     9    10    1
    10    10    11    2
    11    10    13    1
    12    10    12    1
    13    14    13    1
    14    14    15    1
    15    16    15    1
    16    16    21    1
    17    15    17    1
    18    24    23    1
    19    24    25    2
    20    23    22    1
    21    27    26    2
    22    25    26    1
    23    25    32    1
    24    26    28    2
    25    22    32    1
    26    22    21    1
    27    32    31    2
    28    21    19    1
    29    28    29    2
    30    17    19    1
    31    17    18    1
    32    31    29    2
    33    29    30    1
    34    19    20    1
