@<TRIPOS>MOLECULE
1mh5_HAL_B_1.pdb
 33 34 0 0 0
SMALL
GASTEIGER

@<TRIPOS>ATOM
      1  CP1       30.5160  -39.0010   42.2600 C.ar  601  HAL601     -0.0164
      2  CP2       30.7510  -38.3080   41.0700 C.ar  601  HAL601     -0.0039
      3  CP3       30.8830  -36.9180   41.0610 C.ar  601  HAL601     -0.0003
      4  CP4       30.7830  -36.2050   42.2470 C.ar  601  HAL601     -0.0000
      5  CP5       30.5570  -36.8810   43.4420 C.ar  601  HAL601     -0.0003
      6  CP6       30.4260  -38.2780   43.4430 C.ar  601  HAL601     -0.0039
      7  C1        30.2680  -40.4920   42.2480 C.3   601  HAL601      0.0705
      8  C2        28.8200  -40.8490   42.0730 C.2   601  HAL601      0.0670
      9  N1        28.5250  -42.2770   41.9730 N.am  601  HAL601     -0.1801
     10  C3        27.3030  -42.7660   42.1590 C.2   601  HAL601      0.2760
     11  O1        26.3500  -42.0360   42.4180 O.2   601  HAL601     -0.2702
     12  C4        27.0830  -44.2760   42.0040 C.3   601  HAL601      0.2378
     13  O2        28.2300  -45.0060   42.4230 O.3   601  HAL601     -0.2815
     14  P         29.2050  -45.6580   41.3470 P.3   601  HAL601      0.3895
     15  O3        30.4760  -44.8850   41.2810 O.3   601  HAL601     -0.1383
     16  O4        28.4220  -45.8710   40.1070 O.2   601  HAL601     -0.2537
     17  C5        29.5390  -46.9640   41.8520 C.3   601  HAL601      0.2049
     18  C6        30.6370  -47.6290   41.0320 C.3   601  HAL601      0.0606
     19  CR1       31.0150  -48.9970   41.5280 C.ar  601  HAL601     -0.0198
     20  CR2       30.3020  -50.1220   41.1200 C.ar  601  HAL601     -0.0042
     21  CR3       30.6530  -51.3890   41.5800 C.ar  601  HAL601     -0.0003
     22  CR4       31.7220  -51.5390   42.4600 C.ar  601  HAL601     -0.0000
     23  CR5       32.4350  -50.4220   42.8740 C.ar  601  HAL601     -0.0003
     24  CR6       32.0790  -49.1630   42.4100 C.ar  601  HAL601     -0.0042
     25  N2        29.9750  -46.9290   43.2390 N.am  601  HAL601     -0.1943
     26  C7        29.4100  -47.6860   44.1740 C.2   601  HAL601      0.2419
     27  O5        28.4730  -48.4480   43.9420 O.2   601  HAL601     -0.2733
     28  C8        29.9620  -47.5600   45.5740 C.3   601  HAL601      0.0874
     29  C9        30.5500  -48.8530   46.0750 C.3   601  HAL601      0.0214
     30  C10       29.4820  -49.9140   46.1920 C.3   601  HAL601      0.1146
     31  C11       30.0560  -51.2960   46.4230 C.2   601  HAL601      0.3649
     32  O6        30.8170  -51.7770   45.5510 O.co2 601  HAL601     -0.2457
     33  O7        29.7460  -51.8980   47.4740 O.co2 601  HAL601     -0.2457
@<TRIPOS>BOND
     1    16    14    2
     2    18    19    1
     3    18    17    1
     4     3     2   ar
     5     3     4   ar
     6     2     1   ar
     7    20    19   ar
     8    20    21   ar
     9    15    14    1
    10    14    17    1
    11    14    13    1
    12    19    24   ar
    13    21    22   ar
    14    17    25    1
    15     9     8    2
    16     9    10    1
    17    12    10    1
    18    12    13    1
    19     8     7    1
    20    10    11    2
    21     4     5   ar
    22     7     1    1
    23     1     6   ar
    24    24    23   ar
    25    22    23   ar
    26    25    26   am
    27     5     6   ar
    28    27    26    2
    29    26    28    1
    30    32    31   ar
    31    28    29    1
    32    29    30    1
    33    30    31    1
    34    31    33   ar
