@<TRIPOS>MOLECULE
1mhl_HEM_A_1.pdb
 43 50 0 0 0
SMALL
GASTEIGER

@<TRIPOS>ATOM
      1  CHA       19.2670  -12.0820   -3.3410 C.2   605  HEM605      0.0000
      2  CHB       18.0990  -14.6160   -7.2150 C.2   605  HEM605      0.0000
      3  CHC       21.6050  -12.5800   -9.8170 C.2   605  HEM605      0.0000
      4  CHD       22.8050  -10.0940   -5.9340 C.2   605  HEM605      0.0000
      5  C1A       18.5750  -12.8790   -4.2170 C.ar  605  HEM605      0.0000
      6  C2A       17.3950  -13.6470   -3.8650 C.ar  605  HEM605      0.0000
      7  C3A       17.0780  -14.3780   -4.9440 C.ar  605  HEM605      0.0000
      8  C4A       18.0580  -14.0450   -5.9680 C.ar  605  HEM605      0.0000
      9  CMA       15.9320  -15.3650   -5.0630 C.3   605  HEM605      0.0000
     10  CAA       16.6280  -13.5950   -2.5520 C.3   605  HEM605      0.0000
     11  CBA       15.3990  -12.6990   -2.6640 C.3   605  HEM605      0.0000
     12  CGA       14.7630  -12.4530   -1.3150 C.2   605  HEM605      0.0000
     13  O1A       13.9210  -13.2440   -0.9110 O.co2 605  HEM605      0.0000
     14  O2A       15.1230  -11.5030   -0.6360 O.co2 605  HEM605      0.0000
     15  C1B       19.0130  -14.3530   -8.2160 C.2   605  HEM605      0.0000
     16  C2B       19.0810  -15.0920   -9.4520 C.2   605  HEM605      0.0000
     17  C3B       20.0730  -14.5130  -10.1960 C.2   605  HEM605      0.0000
     18  C4B       20.6000  -13.4250   -9.3980 C.2   605  HEM605      0.0000
     19  CMB       18.1980  -16.2770   -9.8590 C.3   605  HEM605      0.0000
     20  CAB       20.4620  -14.8540  -11.4940 C.3   605  HEM605      0.0000
     21  CBB       20.9330  -16.1600  -11.8900 C.3   605  HEM605      0.0000
     22  C1C       22.1980  -11.6440   -9.0000 C.ar  605  HEM605      0.0000
     23  C2C       23.1830  -10.6750   -9.4410 C.ar  605  HEM605      0.0000
     24  C3C       23.5360   -9.9580   -8.3050 C.ar  605  HEM605      0.0000
     25  C4C       22.7370  -10.5130   -7.2380 C.ar  605  HEM605      0.0000
     26  CMC       23.7060  -10.5060  -10.8840 C.3   605  HEM605      0.0000
     27  CAC       24.5040   -8.9350   -8.1480 C.3   605  HEM605      0.0000
     28  CBC       25.3350   -8.3390   -9.1940 C.3   605  HEM605      0.0000
     29  C1D       22.0390  -10.5350   -4.8770 C.2   605  HEM605      0.0000
     30  C2D       22.3380  -10.2510   -3.4820 C.2   605  HEM605      0.0000
     31  C3D       21.3710  -10.8550   -2.7440 C.2   605  HEM605      0.0000
     32  C4D       20.4530  -11.4720   -3.6970 C.2   605  HEM605      0.0000
     33  CMD       23.4830   -9.3860   -2.9490 C.3   605  HEM605      0.0000
     34  CAD       21.2990  -10.9350   -1.2170 C.3   605  HEM605      0.0000
     35  CBD       21.9730  -12.1820   -0.7280 C.3   605  HEM605      0.0000
     36  CGD       21.9020  -12.4380    0.7640 C.2   605  HEM605      0.0000
     37  O1D       22.4240  -11.6810    1.5750 O.co2 605  HEM605      0.0000
     38  O2D       21.3050  -13.4390    1.1540 O.co2 605  HEM605      0.0000
     39  NA        18.9670  -13.1160   -5.5120 N.ar  605  HEM605      0.0000
     40  NB        19.9520  -13.3290   -8.1810 N.2   605  HEM605      0.0000
     41  NC        21.9330  -11.5310   -7.6730 N.ar  605  HEM605      0.0000
     42  ND        20.8800  -11.2890   -5.0080 N.2   605  HEM605      0.0000
     43 FE         20.2770  -12.0880   -6.6830 Fe    605  HEM605      0.0000
@<TRIPOS>BOND
     1    21    20    1
     2    20    17    1
     3    26    23    1
     4    17    16    2
     5    17    18    1
     6    19    16    1
     7     3    18    2
     8     3    22    1
     9    16    15    1
    10    23    22   ar
    11    23    24   ar
    12    18    40    1
    13    28    27    1
    14    22    41   ar
    15    24    27    1
    16    24    25   ar
    17    15    40    2
    18    15     2    1
    19    40    43    1
    20    41    25   ar
    21    41    43    1
    22    25     4    1
    23     2     8    2
    24    43    39    1
    25    43    42    1
    26     8    39   ar
    27     8     7   ar
    28     4    29    2
    29    39     5   ar
    30     9     7    1
    31    42    29    1
    32    42    32    2
    33     7     6   ar
    34    29    30    1
    35     5     6   ar
    36     5     1    2
    37     6    10    1
    38    32     1    1
    39    32    31    1
    40    30    33    1
    41    30    31    2
    42    31    34    1
    43    11    10    1
    44    11    12    1
    45    12    13   ar
    46    12    14   ar
    47    34    35    1
    48    35    36    1
    49    36    38   ar
    50    36    37   ar
