@<TRIPOS>MOLECULE
1mhl_FUC_A_1.pdb
 10 10 0 0 0
SMALL
GASTEIGER

@<TRIPOS>ATOM
      1  C1        37.2860    5.4970    7.7160 C.3   645  FUC645      0.1776
      2  C2        37.2620    6.8220    7.0280 C.3   645  FUC645      0.2141
      3  C3        38.4420    6.8510    6.0530 C.3   645  FUC645      0.2172
      4  C4        38.4540    5.6720    5.1260 C.3   645  FUC645      0.2116
      5  C5        38.2870    4.3610    5.8570 C.3   645  FUC645      0.1483
      6  C6        37.9760    3.2830    4.8430 C.3   645  FUC645      0.0349
      7  O2        37.3330    7.8660    8.0040 O.3   645  FUC645     -0.2176
      8  O3        38.3760    7.9870    5.2200 O.3   645  FUC645     -0.2175
      9  O4        37.3890    5.8250    4.2280 O.3   645  FUC645     -0.2177
     10  O5        37.2000    4.4420    6.7630 O.3   645  FUC645     -0.3508
@<TRIPOS>BOND
     1     9     4    1
     2     6     5    1
     3     4     5    1
     4     4     3    1
     5     8     3    1
     6     5    10    1
     7     3     2    1
     8    10     1    1
     9     2     1    1
    10     2     7    1
