@<TRIPOS>MOLECULE
1mhl_MAN_A_1.pdb
 11 11 0 0 0
SMALL
GASTEIGER

@<TRIPOS>ATOM
      1  C1        32.7780   11.0320   14.3580 C.3   644  MAN644      0.1777
      2  C2        32.1110   11.7200   13.2060 C.3   644  MAN644      0.2141
      3  C3        30.8260   12.3490   13.7160 C.3   644  MAN644      0.2173
      4  C4        29.9420   11.2790   14.3220 C.3   644  MAN644      0.2142
      5  C5        30.6680   10.6010   15.4620 C.3   644  MAN644      0.1810
      6  C6        29.8410    9.4450   16.0490 C.3   644  MAN644      0.2141
      7  O2        31.8540   10.7670   12.1860 O.3   644  MAN644     -0.2176
      8  O3        30.1240   12.9860   12.6710 O.3   644  MAN644     -0.2175
      9  O4        28.7670   11.8790   14.7740 O.3   644  MAN644     -0.2176
     10  O5        31.8960   10.0810   14.9430 O.3   644  MAN644     -0.3481
     11  O6        29.9550    8.2800   15.2230 O.3   644  MAN644     -0.2176
@<TRIPOS>BOND
     1     7     2    1
     2     8     3    1
     3     2     3    1
     4     2     1    1
     5     3     4    1
     6     4     9    1
     7     4     5    1
     8     1    10    1
     9    10     5    1
    10    11     6    1
    11     5     6    1
