@<TRIPOS>MOLECULE
1mht_SAH_A_1.pdb
 26 28 0 0 0
SMALL
GASTEIGER

@<TRIPOS>ATOM
      1  N        -19.1960   31.4510   81.1800 N.3   328  SAH328     -0.1208
      2  CA       -19.7000   30.4980   82.1580 C.3   328  SAH328      0.1952
      3  CB       -19.6760   30.9760   83.6080 C.3   328  SAH328      0.0422
      4  CG       -18.3730   31.6080   84.0440 C.3   328  SAH328      0.0597
      5  SD       -18.4530   31.7980   85.8530 S.3   328  SAH328     -0.1375
      6  C        -21.1460   30.2830   81.7580 C.2   328  SAH328      0.3819
      7  O        -21.5220   30.8260   80.6480 O.co2 328  SAH328     -0.2441
      8  OXT      -22.0530   30.2050   82.6780 O.co2 328  SAH328     -0.2441
      9  C5'      -16.8870   31.2390   86.5630 C.3   328  SAH328      0.0899
     10  C4'      -16.9270   29.7760   87.0300 C.3   328  SAH328      0.1630
     11  O4'      -15.6490   29.4040   87.4390 O.3   328  SAH328     -0.3153
     12  C3'      -17.7870   29.4760   88.2510 C.3   328  SAH328      0.2168
     13  O3'      -18.7170   28.4390   87.9290 O.3   328  SAH328     -0.2175
     14  C2'      -16.7650   28.9390   89.2490 C.3   328  SAH328      0.2569
     15  O2'      -17.3660   27.9500   90.0570 O.3   328  SAH328     -0.2130
     16  C1'      -15.8050   28.3200   88.3240 C.3   328  SAH328      0.3185
     17  N9       -14.5360   28.1660   88.9390 N.pl3 328  SAH328     -0.1439
     18  C8       -13.8630   29.0830   89.7490 C.3   328  SAH328      0.3377
     19  N7       -12.7030   28.6620   90.1450 N.2   328  SAH328     -0.2095
     20  C5       -12.6010   27.3860   89.5610 C.2   328  SAH328      0.2526
     21  C6       -11.6010   26.4180   89.6110 C.2   328  SAH328      0.4393
     22  N6       -10.4670   26.5760   90.3010 N.pl3 328  SAH328      0.2180
     23  N1       -11.8440   25.2870   88.9090 N.2   328  SAH328      0.0021
     24  C2       -12.9730   25.0970   88.2080 C.3   328  SAH328      0.5254
     25  N3       -13.9800   25.9070   88.0840 N.2   328  SAH328     -0.0055
     26  C4       -13.7170   27.0630   88.8080 C.2   328  SAH328      0.3518
@<TRIPOS>BOND
     1     7     6   ar
     2     1     2    1
     3     6     2    1
     4     6     8   ar
     5     2     3    1
     6     3     4    1
     7     4     5    1
     8     5     9    1
     9     9    10    1
    10    10    11    1
    11    10    12    1
    12    11    16    1
    13    13    12    1
    14    25    24    1
    15    25    26    2
    16    24    23    1
    17    12    14    1
    18    16    17    1
    19    16    14    1
    20    26    17    1
    21    26    20    1
    22    23    21    2
    23    17    18    1
    24    14    15    1
    25    20    21    1
    26    20    19    2
    27    21    22    1
    28    18    19    1
