@<TRIPOS>MOLECULE
1mhw_III_E_1.pdb
 32 33 0 0 0
SMALL
GASTEIGER

@<TRIPOS>ATOM
      1  CA        -8.8240   10.3360  131.5110 C.3    41  BP441       0.1131
      2  C         -8.5260   10.3020  132.7220 C.2    41  BP441       0.2462
      3  O         -8.2210   11.5200  133.2720 O.2    41  BP441      -0.2730
      4  C2       -12.9610   11.6400  130.5670 C.ar   41  BP441      -0.0000
      5  C3       -12.7410   10.4360  131.4180 C.ar   41  BP441      -0.0003
      6  C4       -11.3870    9.9950  131.7360 C.ar   41  BP441      -0.0038
      7  C5       -10.2390   10.7550  131.2040 C.ar   41  BP441      -0.0130
      8  C6       -10.4440   11.9290  130.3720 C.ar   41  BP441      -0.0038
      9  C1       -11.7750   12.3680  130.0570 C.ar   41  BP441      -0.0003
     10  C11      -17.0760   13.1130  129.5060 C.ar   41  BP441       0.0000
     11  C18      -14.6290   12.6410  128.8530 C.ar   41  BP441      -0.0000
     12  C20      -14.3530   12.1330  130.2140 C.ar   41  BP441      -0.0000
     13  C23      -15.9820   13.1270  128.5080 C.ar   41  BP441       0.0000
     14  C25      -15.4320   12.1110  131.2190 C.ar   41  BP441      -0.0000
     15  C26      -16.7800   12.5990  130.8620 C.ar   41  BP441       0.0000
     16  N         -8.4960    9.2170  133.5170 N.am   42  CYS42      -0.1965
     17  CA        -8.1680    9.2240  134.8780 C.3    42  CYS42       0.1843
     18  C         -6.8650    8.8750  135.3450 C.2    42  CYS42       0.2622
     19  O         -6.2380    7.9520  134.8050 O.2    42  CYS42      -0.2715
     20  CB        -9.2030    8.8870  136.0900 C.3    42  CYS42       0.0997
     21  SG       -10.8840    9.2840  135.4930 S.3    42  CYS42      -0.0797
     22  N         -6.1410    9.4300  136.3800 N.am   43  DAR43      -0.2030
     23  CA        -4.9320    9.2220  136.9340 C.3    43  DAR43       0.1283
     24  CB        -3.6770    9.8800  136.1290 C.3    43  DAR43       0.0281
     25  CG        -2.7960    9.0340  135.0390 C.3    43  DAR43       0.0488
     26  CD        -2.1920    7.8680  135.4340 C.3    43  DAR43       0.2205
     27  NE        -0.6260    7.8990  136.0390 N.pl3  43  DAR43      -0.0865
     28  CZ        -0.5890    8.3600  137.2990 C.cat  43  DAR43       0.5346
     29  NH1       -0.9160    7.6910  138.3740 N.pl3  43  DAR43       0.1354
     30  NH2       -0.1900    9.7020  137.6900 N.pl3  43  DAR43       0.1354
     31  C         -4.8800    8.1150  137.8690 C.3    43  DAR43       0.2036
     32  O         -4.6500    8.6370  139.2250 O.3    43  DAR43      -0.2185
@<TRIPOS>BOND
     1    13    11   ar
     2    13    10   ar
     3    11    12   ar
     4    10    15   ar
     5     9     8   ar
     6     9     4   ar
     7    12     4    1
     8    12    14   ar
     9     8     7   ar
    10     4     5   ar
    11    15    14   ar
    12     7     1    1
    13     7     6   ar
    14     5     6   ar
    15     1     2    1
    16     2     3    2
    17     2    16   am
    18    16    17    1
    19    19    18    2
    20    17    18    1
    21    17    20    1
    22    25    26    1
    23    25    24    1
    24    18    22   am
    25    26    27    1
    26    21    20    1
    27    27    28    2
    28    24    23    1
    29    22    23    1
    30    23    31    1
    31    28    30    1
    32    28    29    1
    33    31    32    1
