@<TRIPOS>MOLECULE
1mi3_NAD_A_1.pdb
 44 48 0 0 0
SMALL
GASTEIGER

@<TRIPOS>ATOM
      1  PA       112.4150   11.3250    8.0360 P.3   1350  NAD1350     0.2189
      2  O1A      111.3880   11.6130    9.0440 O.3   1350  NAD1350    -0.4371
      3  O2A      112.4480   11.7560    6.5450 O.2   1350  NAD1350    -0.5170
      4  O5B      112.6470    9.7290    7.8880 O.3   1350  NAD1350    -0.3112
      5  C5B      113.1810    9.0480    9.0120 C.3   1350  NAD1350     0.1813
      6  C4B      113.2050    7.5220    8.7420 C.3   1350  NAD1350     0.1821
      7  O4B      111.8970    6.7840    8.4980 O.3   1350  NAD1350    -0.3135
      8  C3B      114.1760    7.0520    7.6260 C.3   1350  NAD1350     0.2184
      9  O3B      115.5500    7.0370    8.0740 O.3   1350  NAD1350    -0.2174
     10  C2B      113.6220    5.6920    7.2120 C.3   1350  NAD1350     0.2570
     11  O2B      114.1770    4.6070    7.9380 O.3   1350  NAD1350    -0.2130
     12  C1B      112.1000    5.7560    7.4910 C.3   1350  NAD1350     0.3186
     13  N9A      111.2380    5.9590    6.3200 N.pl3 1350  NAD1350    -0.1439
     14  C8A      111.3870    6.7650    5.1930 C.3   1350  NAD1350     0.3377
     15  N7A      110.3930    6.6190    4.2780 N.2   1350  NAD1350    -0.2095
     16  C5A      109.5470    5.6500    4.8620 C.2   1350  NAD1350     0.2526
     17  C6A      108.3410    5.0890    4.3830 C.2   1350  NAD1350     0.4393
     18  N6A      107.7200    5.3760    3.2280 N.pl3 1350  NAD1350     0.2180
     19  N1A      107.7010    4.1190    5.1900 N.2   1350  NAD1350     0.0021
     20  C2A      108.2580    3.7430    6.4340 C.3   1350  NAD1350     0.5254
     21  N3A      109.4520    4.2920    6.9330 N.2   1350  NAD1350    -0.0055
     22  C4A      110.0610    5.2380    6.1190 C.2   1350  NAD1350     0.3518
     23  O3       113.7980   11.7520    8.7060 O.3   1350  NAD1350    -0.2703
     24  PN       114.9800   12.7840    8.4500 P.3   1350  NAD1350     0.2189
     25  O1N      116.0020   12.1000    7.5630 O.2   1350  NAD1350    -0.5170
     26  O2N      115.4230   13.2130    9.8190 O.3   1350  NAD1350    -0.4371
     27  O5D      114.3460   14.0460    7.6510 O.3   1350  NAD1350    -0.3112
     28  C5D      114.3740   14.0060    6.1990 C.3   1350  NAD1350     0.1813
     29  C4D      115.4850   14.8990    5.6590 C.3   1350  NAD1350     0.1799
     30  O4D      115.3650   16.3200    6.0620 O.3   1350  NAD1350    -0.3327
     31  C3D      117.0060   14.5490    5.9390 C.3   1350  NAD1350     0.2158
     32  O3D      117.5300   13.4650    5.1350 O.3   1350  NAD1350    -0.2175
     33  C2D      117.7160   15.8910    5.7400 C.3   1350  NAD1350     0.2309
     34  O2D      117.9790   16.0900    4.3450 O.3   1350  NAD1350    -0.2158
     35  C1D      116.7130   16.9080    6.2890 C.3   1350  NAD1350     0.2263
     36  N1N      116.9480   17.3660    7.7160 N.pl3 1350  NAD1350    -0.2787
     37  C2N      117.2330   18.7290    7.9870 C.3   1350  NAD1350     0.1244
     38  C3N      117.5330   19.0940    9.2880 C.2   1350  NAD1350     0.0544
     39  C7N      117.8820   20.5720    9.6140 C.2   1350  NAD1350     0.2818
     40  O7N      118.2420   20.7690   10.7980 O.2   1350  NAD1350    -0.2670
     41  N7N      117.8490   21.5350    8.6700 N.am  1350  NAD1350    -0.0839
     42  C4N      117.5650   18.1050   10.3760 C.2   1350  NAD1350     0.0033
     43  C5N      117.2430   16.7440   10.0740 C.2   1350  NAD1350     0.0157
     44  C6N      116.9370   16.3430    8.7500 C.2   1350  NAD1350     0.0633
@<TRIPOS>BOND
     1    18    17    1
     2    15    16    2
     3    15    14    1
     4    34    33    1
     5    17    16    1
     6    17    19    2
     7    16    22    1
     8    32    31    1
     9    19    20    1
    10    14    13    1
    11    29    31    1
    12    29    30    1
    13    29    28    1
    14    33    31    1
    15    33    35    1
    16    30    35    1
    17    22    13    1
    18    22    21    2
    19    28    27    1
    20    35    36    1
    21    13    12    1
    22    20    21    1
    23     3     1    2
    24    10    12    1
    25    10     8    1
    26    10    11    1
    27    12     7    1
    28    25    24    2
    29     8     9    1
    30     8     6    1
    31    27    24    1
    32    36    37    1
    33    36    44    1
    34     4     1    1
    35     4     5    1
    36    37    38    1
    37     1    23    1
    38     1     2    1
    39    24    23    1
    40    24    26    1
    41     7     6    1
    42    41    39   am
    43     6     5    1
    44    44    43    2
    45    38    39    1
    46    38    42    2
    47    39    40    2
    48    43    42    1
