@<TRIPOS>MOLECULE
1mi4_S3P_A_1.pdb
 16 16 0 0 0
SMALL
GASTEIGER

@<TRIPOS>ATOM
      1  C1        56.1300   12.2000   28.0920 C.2   1001  S3P1001     0.0583
      2  C2        54.9640   11.3950   28.2530 C.2   1001  S3P1001     0.0084
      3  C3        55.0080   10.1060   29.0450 C.3   1001  S3P1001     0.1809
      4  C4        56.2380   10.0350   29.9700 C.3   1001  S3P1001     0.2140
      5  C5        57.5240   10.3530   29.1590 C.3   1001  S3P1001     0.1895
      6  C6        57.4070   11.8240   28.7040 C.3   1001  S3P1001     0.0684
      7  C7        56.0290   13.4560   27.2820 C.2   1001  S3P1001     0.3837
      8  O1        54.9610    8.9740   28.1760 O.3   1001  S3P1001    -0.2655
      9  O2        56.2810    8.7270   30.5290 O.3   1001  S3P1001    -0.2174
     10  O3        58.6850   10.2030   29.9800 O.3   1001  S3P1001    -0.2200
     11  O4        55.1450   13.5150   26.3870 O.co2 1001  S3P1001    -0.2409
     12  O5        56.8190   14.3480   27.5210 O.co2 1001  S3P1001    -0.2409
     13  P1        53.6890    8.0800   27.8980 P.3   1001  S3P1001     0.5329
     14  O6        52.6750    8.9530   27.2630 O.3   1001  S3P1001    -0.1145
     15  O7        53.1740    7.5420   29.2370 O.3   1001  S3P1001    -0.1145
     16  O8        54.0780    6.9920   26.9450 O.2   1001  S3P1001    -0.2224
@<TRIPOS>BOND
     1    11     7   ar
     2    16    13    2
     3    14    13    1
     4     7    12   ar
     5     7     1    1
     6    13     8    1
     7    13    15    1
     8     1     2    2
     9     1     6    1
    10     8     3    1
    11     2     3    1
    12     6     5    1
    13     3     4    1
    14     5     4    1
    15     5    10    1
    16     4     9    1
