@<TRIPOS>MOLECULE
1mid_LAP_A_3.pdb
 14 13 0 0 0
SMALL
GASTEIGER

@<TRIPOS>ATOM
      1  O1        18.2230    5.0760    7.8310 O.co2  94  LAP94      -0.2457
      2  O2        20.1300    5.4340    9.2880 O.co2  94  LAP94      -0.2457
      3  C1        18.8940    4.4550    9.0350 C.2    94  LAP94       0.3649
      4  C2        18.8950    3.1430    9.7510 C.3    94  LAP94       0.1141
      5  C3        17.7340    2.2280    9.3440 C.3    94  LAP94       0.0121
      6  C4        16.9600    1.7800   10.5380 C.3    94  LAP94       0.0052
      7  C5        15.4830    1.6840   10.3390 C.3    94  LAP94       0.0257
      8  C6        14.7110    1.3170   11.5610 C.2    94  LAP94      -0.0307
      9  C7        13.2330    1.5120   11.4680 C.2    94  LAP94      -0.0307
     10  C8        12.7360    2.0040   10.1440 C.3    94  LAP94       0.0257
     11  C9        11.2500    2.0690   10.0050 C.3    94  LAP94       0.0047
     12  C10       10.7620    2.1040    8.5870 C.3    94  LAP94       0.0003
     13  C11        9.3270    2.6310    8.4290 C.3    94  LAP94       0.0000
     14  C12        8.3500    1.5900    7.9760 C.3    94  LAP94       0.0000
@<TRIPOS>BOND
     1     1     3   ar
     2    14    13    1
     3    13    12    1
     4    12    11    1
     5     3     2   ar
     6     3     4    1
     7     5     4    1
     8     5     6    1
     9    11    10    1
    10    10     9    1
    11     7     6    1
    12     7     8    1
    13     9     8    2
