@<TRIPOS>MOLECULE
1mio_CLP_B_1.pdb
 16 37 0 0 0
SMALL
GASTEIGER

@<TRIPOS>ATOM
      1 FE1        13.1580  -13.4450   76.4670 Fe    498  CLP498      0.0000
      2 FE2        12.1210  -13.9720   74.0230 Fe    498  CLP498      0.0000
      3 FE3        10.9260  -12.2010   75.7850 Fe    498  CLP498      0.0000
      4 FE4        13.0770  -11.2740   74.4510 Fe    498  CLP498      0.0000
      5  S1A       14.2630  -13.2460   74.5240 S.3   498  CLP498      0.0000
      6  S2A       11.1310  -14.4670   76.0070 S.3   498  CLP498      0.0000
      7  S4A       11.1140  -11.9460   73.4570 S.3   498  CLP498      0.0000
      8  S3A       12.7660  -11.1770   76.7400 S.3   498  CLP498      0.0000
      9 FE5        14.6220  -11.4640   71.1850 Fe    498  CLP498      0.0000
     10 FE6        16.4180  -13.6950   70.5800 Fe    498  CLP498      0.0000
     11 FE7        14.4260  -12.9200   68.8710 Fe    498  CLP498      0.0000
     12 FE8        13.7000  -14.2190   71.1980 Fe    498  CLP498      0.0000
     13  S1B       15.3400  -13.2260   72.4940 S.3   498  CLP498      0.0000
     14  S2B       16.2470  -11.6450   69.5650 S.3   498  CLP498      0.0000
     15  S3B       14.9270  -15.0940   69.4930 S.3   498  CLP498      0.0000
     16  S4B       12.6510  -12.3320   70.2960 S.3   498  CLP498      0.0000
@<TRIPOS>BOND
     1    11    15    1
     2    11    14    1
     3    11    16    1
     4    11    10    1
     5    11     9    1
     6    11    12    1
     7    15    10    1
     8    15    12    1
     9    14    10    1
    10    14     9    1
    11    16     9    1
    12    16    12    1
    13    10     9    1
    14    10    12    1
    15    10    13    1
    16     9    12    1
    17     9    13    1
    18    12    13    1
    19    13     5    1
    20     7     2    1
    21     7     4    1
    22     7     3    1
    23     2     4    1
    24     2     5    1
    25     2     3    1
    26     2     6    1
    27     2     1    1
    28     4     5    1
    29     4     3    1
    30     4     1    1
    31     4     8    1
    32     5     1    1
    33     3     6    1
    34     3     1    1
    35     3     8    1
    36     6     1    1
    37     1     8    1
