@<TRIPOS>MOLECULE
1mio_CFM_B_1.pdb
 17 35 0 0 0
SMALL
GASTEIGER

@<TRIPOS>ATOM
      1 FE1        -3.4310   -4.4860   82.3750 Fe    496  CFM496      0.0000
      2 FE2        -1.6840   -5.7740   80.9110 Fe    496  CFM496      0.0000
      3 FE3        -3.1350   -3.6440   79.8670 Fe    496  CFM496      0.0000
      4 FE4        -4.6010   -6.1070   80.6360 Fe    496  CFM496      0.0000
      5 FE5        -4.1980   -6.9410   78.2840 Fe    496  CFM496      0.0000
      6 FE6        -1.3880   -6.8150   78.4850 Fe    496  CFM496      0.0000
      7 FE7        -2.7560   -4.6220   77.6170 Fe    496  CFM496      0.0000
      8 MO1        -2.5920   -6.9570   76.0380 Mo    496  CFM496      0.0000
      9  S1A       -3.2000   -6.7720   82.3050 S.3   496  CFM496      0.0000
     10  S4A       -5.1400   -3.8640   80.9450 S.3   496  CFM496      0.0000
     11  S3A       -6.0650   -7.4440   79.5520 S.3   496  CFM496      0.0000
     12  S2A       -1.5220   -3.5610   81.5190 S.3   496  CFM496      0.0000
     13  S1B       -2.6190   -8.5670   77.7710 S.3   496  CFM496      0.0000
     14  S2B        0.0930   -7.0160   80.1630 S.3   496  CFM496      0.0000
     15  S3B       -0.8460   -5.5400   76.6910 S.3   496  CFM496      0.0000
     16  S4B       -4.4530   -5.6000   76.4490 S.3   496  CFM496      0.0000
     17  S5        -2.8440   -2.4000   77.9560 S.3   496  CFM496      0.0000
@<TRIPOS>BOND
     1     8    16    1
     2     8    15    1
     3     8    13    1
     4     8     5    1
     5     8     6    1
     6    16     7    1
     7    16     5    1
     8    15     7    1
     9    15     6    1
    10     7    17    1
    11     7     5    1
    12     7     6    1
    13     7     3    1
    14    13     5    1
    15    13     6    1
    16    17     3    1
    17     5    11    1
    18     5     4    1
    19     6    14    1
    20     6     2    1
    21    11     4    1
    22     3     2    1
    23     3    10    1
    24     3    12    1
    25     3     1    1
    26    14     2    1
    27     4    10    1
    28     4     9    1
    29     4     1    1
    30     2    12    1
    31     2     9    1
    32     2     1    1
    33    10     1    1
    34    12     1    1
    35     9     1    1
