@<TRIPOS>MOLECULE
1miw_ATP_A_1.pdb
 31 33 0 0 0
SMALL
GASTEIGER

@<TRIPOS>ATOM
      1  PG         7.9850   27.2470   30.9750 P.3   5501  ATP5501     0.5373
      2  O1G        8.7610   26.5650   32.0190 O.3   5501  ATP5501    -0.1143
      3  O2G        8.4820   26.9160   29.5790 O.2   5501  ATP5501    -0.2221
      4  O3G        8.1530   28.7480   31.0660 O.3   5501  ATP5501    -0.1143
      5  PB         5.5460   27.4300   32.0880 P.3   5501  ATP5501     0.2277
      6  O1B        4.6760   28.3840   31.4290 O.2   5501  ATP5501    -0.5168
      7  O2B        4.5330   26.5640   32.8090 O.3   5501  ATP5501    -0.4368
      8  O3B        6.5060   26.7210   31.0780 O.3   5501  ATP5501    -0.2258
      9  PA         6.2070   29.4460   33.7620 P.3   5501  ATP5501     0.2189
     10  O1A        7.4440   29.5980   34.5280 O.3   5501  ATP5501    -0.4371
     11  O2A        5.8470   30.7570   33.0400 O.2   5501  ATP5501    -0.5170
     12  O3A        6.5950   28.0950   33.0020 O.3   5501  ATP5501    -0.2700
     13  O5'        5.1280   28.8850   34.7760 O.3   5501  ATP5501    -0.3112
     14  C5'        4.0410   29.6690   34.9700 C.3   5501  ATP5501     0.1813
     15  C4'        3.0390   28.6840   35.4180 C.3   5501  ATP5501     0.1821
     16  O4'        2.2050   29.5110   36.1530 O.3   5501  ATP5501    -0.3135
     17  C3'        2.2770   28.3050   34.1740 C.3   5501  ATP5501     0.2184
     18  O3'        2.3620   26.9300   34.0520 O.3   5501  ATP5501    -0.2174
     19  C2'        0.8660   28.7440   34.4680 C.3   5501  ATP5501     0.2570
     20  O2'        0.2510   27.7380   35.2510 O.3   5501  ATP5501    -0.2130
     21  C1'        1.0960   29.9420   35.3800 C.3   5501  ATP5501     0.3186
     22  N9         1.2830   31.3160   34.7840 N.pl3 5501  ATP5501    -0.1439
     23  C8         2.4420   32.0000   34.4950 C.3   5501  ATP5501     0.3377
     24  N7         2.1640   33.2420   34.0200 N.2   5501  ATP5501    -0.2095
     25  C5         0.8150   33.3730   34.0090 C.2   5501  ATP5501     0.2526
     26  C6        -0.0500   34.3980   33.6270 C.2   5501  ATP5501     0.4393
     27  N6         0.4270   35.5000   33.0940 N.pl3 5501  ATP5501     0.2180
     28  N1        -1.4050   34.2690   33.7260 N.2   5501  ATP5501     0.0021
     29  C2        -1.9190   33.1030   34.2060 C.3   5501  ATP5501     0.5254
     30  N3        -1.0780   32.0760   34.5590 N.2   5501  ATP5501    -0.0055
     31  C4         0.2640   32.1890   34.4830 C.2   5501  ATP5501     0.3518
@<TRIPOS>BOND
     1     3     1    2
     2     1     4    1
     3     1     8    1
     4     1     2    1
     5     8     5    1
     6     6     5    2
     7     5     7    1
     8     5    12    1
     9    12     9    1
    10    11     9    2
    11    27    26    1
    12    26    28    2
    13    26    25    1
    14    28    29    1
    15     9    10    1
    16     9    13    1
    17    25    24    2
    18    25    31    1
    19    24    23    1
    20    18    17    1
    21    17    19    1
    22    17    15    1
    23    29    30    1
    24    19    20    1
    25    19    21    1
    26    31    30    2
    27    31    22    1
    28    23    22    1
    29    13    14    1
    30    22    21    1
    31    14    15    1
    32    21    16    1
    33    15    16    1
