@<TRIPOS>MOLECULE
1miy_CTP_A_1.pdb
 29 30 0 0 0
SMALL
GASTEIGER

@<TRIPOS>ATOM
      1  N1         1.5370   32.1070   34.6240 N.am  5501  CTP5501    -0.1778
      2  C2         0.3580   32.8450   34.6600 C.1   5501  CTP5501     0.2756
      3  N3         0.2960   34.1020   34.0820 N.2   5501  CTP5501    -0.3024
      4  C4         1.3970   34.6370   33.4640 C.2   5501  CTP5501     0.2346
      5  C5         2.6010   33.9410   33.4400 C.2   5501  CTP5501     0.0687
      6  C6         2.6460   32.6500   33.9890 C.2   5501  CTP5501     0.0836
      7  O2        -0.6530   32.3790   35.2100 O.2   5501  CTP5501    -0.1925
      8  N4         1.2840   35.8210   32.9060 N.pl3 5501  CTP5501    -0.0921
      9  C1'        1.5680   30.8120   35.3810 C.3   5501  CTP5501     0.2400
     10  C2'        1.3190   29.5780   34.5090 C.3   5501  CTP5501     0.2319
     11  O2'       -0.0180   29.1410   34.6840 O.3   5501  CTP5501    -0.2157
     12  C3'        2.4190   28.5720   34.9160 C.3   5501  CTP5501     0.2158
     13  C4'        3.2110   29.2480   36.0570 C.3   5501  CTP5501     0.1799
     14  O4'        2.7840   30.6110   36.1020 O.3   5501  CTP5501    -0.3320
     15  O3'        1.9770   27.2440   35.2200 O.3   5501  CTP5501    -0.2175
     16  C5'        4.7260   29.1690   35.8580 C.3   5501  CTP5501     0.1813
     17  O5'        5.0610   30.1840   34.9340 O.3   5501  CTP5501    -0.3112
     18  PA         6.0980   29.9690   33.7030 P.3   5501  CTP5501     0.2189
     19  O1A        7.4740   30.3350   34.1850 O.3   5501  CTP5501    -0.4371
     20  O2A        5.7970   30.8300   32.4310 O.2   5501  CTP5501    -0.5170
     21  O3A        5.9750   28.3570   33.4300 O.3   5501  CTP5501    -0.2700
     22  PB         4.8820   27.7300   32.3900 P.3   5501  CTP5501     0.2277
     23  O1B        3.9020   28.7990   31.9950 O.2   5501  CTP5501    -0.5168
     24  O2B        4.2150   26.5430   33.1590 O.3   5501  CTP5501    -0.4368
     25  O3B        5.6710   27.3250   31.0070 O.3   5501  CTP5501    -0.2258
     26  PG         7.2420   27.6700   30.8020 P.3   5501  CTP5501     0.5373
     27  O1G        7.9100   26.8730   32.0250 O.3   5501  CTP5501    -0.1143
     28  O2G        7.7480   27.0780   29.4090 O.2   5501  CTP5501    -0.2221
     29  O3G        7.6270   29.2140   30.9490 O.3   5501  CTP5501    -0.1143
@<TRIPOS>BOND
     1    28    26    2
     2    26    29    1
     3    26    25    1
     4    26    27    1
     5    25    22    1
     6    23    22    2
     7    22    24    1
     8    22    21    1
     9    20    18    2
    10     8     4    1
    11    21    18    1
    12     5     4    1
    13     5     6    2
    14     4     3    2
    15    18    19    1
    16    18    17    1
    17     6     1    1
    18     3     2    2
    19    10    11    1
    20    10    12    1
    21    10     9    1
    22     1     2   am
    23     1     9    1
    24     2     7    2
    25    12    15    1
    26    12    13    1
    27    17    16    1
    28     9    14    1
    29    16    13    1
    30    13    14    1
