@<TRIPOS>MOLECULE
1mj4_HEM_A_1.pdb
 43 50 0 0 0
SMALL
GASTEIGER

@<TRIPOS>ATOM
      1  CHA       28.6390    2.6520    8.1350 C.2   502  HEM502      0.0000
      2  CHB       24.0180    3.1250    9.3360 C.2   502  HEM502      0.0000
      3  CHC       22.8340    0.2650    5.6500 C.2   502  HEM502      0.0000
      4  CHD       27.4870   -0.3430    4.5860 C.2   502  HEM502      0.0000
      5  C1A       27.5150    2.9790    8.8230 C.2   502  HEM502      0.0000
      6  C2A       27.4380    3.8390   10.0230 C.2   502  HEM502      0.0000
      7  C3A       26.1420    4.0060   10.3070 C.2   502  HEM502      0.0000
      8  C4A       25.3880    3.2110    9.3340 C.2   502  HEM502      0.0000
      9  CMA       25.5270    4.8270   11.4130 C.3   502  HEM502      0.0000
     10  CAA       28.6560    4.3990   10.7480 C.3   502  HEM502      0.0000
     11  CBA       29.0040    3.5980   11.9990 C.3   502  HEM502      0.0000
     12  CGA       30.1870    4.0570   12.7620 C.2   502  HEM502      0.0000
     13  O1A       31.2010    4.2720   12.0550 O.co2 502  HEM502      0.0000
     14  O2A       30.2280    4.0800   13.9600 O.co2 502  HEM502      0.0000
     15  C1B       23.3140    2.3530    8.4640 C.ar  502  HEM502      0.0000
     16  C2B       21.8680    2.3250    8.3840 C.ar  502  HEM502      0.0000
     17  C3B       21.5270    1.5950    7.3130 C.ar  502  HEM502      0.0000
     18  C4B       22.7410    1.1310    6.7310 C.ar  502  HEM502      0.0000
     19  CMB       20.9840    2.9680    9.4140 C.3   502  HEM502      0.0000
     20  CAB       20.1980    1.2610    6.7840 C.2   502  HEM502      0.0000
     21  CBB       19.0600    1.8840    6.9460 C.2   502  HEM502      0.0000
     22  C1C       23.9740   -0.2120    5.0620 C.2   502  HEM502      0.0000
     23  C2C       24.0630   -1.2170    4.0090 C.2   502  HEM502      0.0000
     24  C3C       25.3800   -1.3830    3.7260 C.2   502  HEM502      0.0000
     25  C4C       26.1190   -0.5020    4.6060 C.2   502  HEM502      0.0000
     26  CMC       22.8840   -1.8600    3.4370 C.3   502  HEM502      0.0000
     27  CAC       26.0150   -2.3300    2.7770 C.2   502  HEM502      0.0000
     28  CBC       25.5430   -2.8050    1.6640 C.2   502  HEM502      0.0000
     29  C1D       28.2010    0.5250    5.3650 C.ar  502  HEM502      0.0000
     30  C2D       29.6010    0.7360    5.2600 C.ar  502  HEM502      0.0000
     31  C3D       29.9550    1.6080    6.3030 C.ar  502  HEM502      0.0000
     32  C4D       28.7290    1.8720    7.0190 C.ar  502  HEM502      0.0000
     33  CMD       30.5080    0.1860    4.1690 C.3   502  HEM502      0.0000
     34  CAD       31.3200    2.0930    6.6330 C.3   502  HEM502      0.0000
     35  CBD       31.6380    3.4020    5.9800 C.3   502  HEM502      0.0000
     36  CGD       32.9940    3.9630    6.3160 C.2   502  HEM502      0.0000
     37  O1D       33.4150    4.0800    7.5050 O.co2 502  HEM502      0.0000
     38  O2D       33.5870    4.2240    5.3110 O.co2 502  HEM502      0.0000
     39  NA        26.2630    2.6270    8.4320 N.2   502  HEM502      0.0000
     40  NB        23.8480    1.5780    7.3970 N.ar  502  HEM502      0.0000
     41  NC        25.2640    0.1620    5.4180 N.2   502  HEM502      0.0000
     42  ND        27.6420    1.2460    6.4030 N.ar  502  HEM502      0.0000
     43 FE         25.7640    1.4070    6.9340 Fe    502  HEM502      0.0000
@<TRIPOS>BOND
     1    28    27    2
     2    27    24    1
     3    26    23    1
     4    24    23    2
     5    24    25    1
     6    23    22    1
     7    33    30    1
     8     4    25    1
     9     4    29    2
    10    25    41    2
    11    22    41    1
    12    22     3    2
    13    30    29   ar
    14    30    31   ar
    15    38    36   ar
    16    29    42   ar
    17    41    43    1
    18     3    18    1
    19    35    36    1
    20    35    34    1
    21    31    34    1
    22    31    32   ar
    23    36    37   ar
    24    42    43    1
    25    42    32   ar
    26    18    17   ar
    27    18    40   ar
    28    20    21    2
    29    20    17    1
    30    43    40    1
    31    43    39    1
    32    32     1    2
    33    17    16   ar
    34    40    15   ar
    35     1     5    1
    36    16    15   ar
    37    16    19    1
    38    39     5    2
    39    39     8    1
    40    15     2    1
    41     5     6    1
    42     8     2    2
    43     8     7    1
    44     6     7    2
    45     6    10    1
    46     7     9    1
    47    10    11    1
    48    11    12    1
    49    13    12   ar
    50    12    14   ar
