@<TRIPOS>MOLECULE
1mj7_HAL_H_1.pdb
 33 34 0 0 0
SMALL
GASTEIGER

@<TRIPOS>ATOM
      1  CP1       62.1250    3.3260   32.6680 C.ar  301  HAL301     -0.0204
      2  CP2       63.3270    3.0910   32.0030 C.ar  301  HAL301     -0.0042
      3  CP3       63.9290    4.0960   31.2270 C.ar  301  HAL301     -0.0003
      4  CP4       63.3160    5.3420   31.1220 C.ar  301  HAL301     -0.0000
      5  CP5       62.1130    5.5830   31.7880 C.ar  301  HAL301     -0.0003
      6  CP6       61.5300    4.5850   32.5510 C.ar  301  HAL301     -0.0042
      7  C1        61.4650    2.2350   33.4780 C.3   301  HAL301      0.0498
      8  C2        59.9720    2.3880   33.5790 C.3   301  HAL301      0.1199
      9  N1        59.3120    1.3160   34.3140 N.am  301  HAL301     -0.2029
     10  C3        57.9910    1.2230   34.4530 C.2   301  HAL301      0.2721
     11  O1        57.2100    2.0320   33.9470 O.2   301  HAL301     -0.2706
     12  C4        57.4620    0.0400   35.2430 C.3   301  HAL301      0.2375
     13  O2        58.1620   -0.0880   36.4750 O.3   301  HAL301     -0.2815
     14  P         59.2410   -1.2450   36.6890 P.3   301  HAL301      0.3895
     15  O3        60.6000   -0.6890   36.4220 O.3   301  HAL301     -0.1383
     16  O4        58.7910   -2.4570   35.9540 O.2   301  HAL301     -0.2537
     17  C5        59.1850   -1.5780   38.0930 C.3   301  HAL301      0.2049
     18  C6        60.3240   -2.5300   38.5080 C.3   301  HAL301      0.0606
     19  CR1       60.0360   -3.3360   39.7550 C.ar  301  HAL301     -0.0198
     20  CR2       59.5560   -4.6410   39.6590 C.ar  301  HAL301     -0.0042
     21  CR3       59.2680   -5.3870   40.8100 C.ar  301  HAL301     -0.0003
     22  CR4       59.4590   -4.8300   42.0730 C.ar  301  HAL301     -0.0000
     23  CR5       59.9430   -3.5210   42.1830 C.ar  301  HAL301     -0.0003
     24  CR6       60.2290   -2.7820   41.0250 C.ar  301  HAL301     -0.0042
     25  N2        59.2070   -0.3850   38.9390 N.am  301  HAL301     -0.1943
     26  C7        58.2390   -0.1580   39.8190 C.2   301  HAL301      0.2419
     27  O5        57.2910   -0.9230   39.9590 O.2   301  HAL301     -0.2733
     28  C8        58.3360    1.1190   40.6500 C.3   301  HAL301      0.0874
     29  C9        57.4440    1.0850   41.9000 C.3   301  HAL301      0.0214
     30  C10       57.8850   -0.0510   42.8130 C.3   301  HAL301      0.1146
     31  C11       57.0660   -0.1850   44.0910 C.2   301  HAL301      0.3649
     32  O6        57.1480   -1.2650   44.7120 O.co2 301  HAL301     -0.2457
     33  O7        56.3590    0.7630   44.4900 O.co2 301  HAL301     -0.2457
@<TRIPOS>BOND
     1     4     3   ar
     2     4     5   ar
     3     3     2   ar
     4     5     6   ar
     5     2     1   ar
     6     6     1   ar
     7     1     7    1
     8     7     8    1
     9     8     9    1
    10    11    10    2
    11     9    10   am
    12    10    12    1
    13    12    13    1
    14    16    14    2
    15    15    14    1
    16    13    14    1
    17    14    17    1
    18    17    18    1
    19    17    25    1
    20    18    19    1
    21    25    26   am
    22    20    19   ar
    23    20    21   ar
    24    19    24   ar
    25    26    27    2
    26    26    28    1
    27    28    29    1
    28    21    22   ar
    29    24    23   ar
    30    29    30    1
    31    22    23   ar
    32    30    31    1
    33    31    33   ar
    34    31    32   ar
