@<TRIPOS>MOLECULE
1mj9_COA_A_1.pdb
 48 50 0 0 0
SMALL
GASTEIGER

@<TRIPOS>ATOM
      1  N1A       19.5390   91.5680   19.6830 N.2   500  COA500      0.0021
      2  C2A       19.1190   90.4050   19.0320 C.3   500  COA500      0.5254
      3  N3A       17.9790   89.7080   19.2790 N.2   500  COA500     -0.0055
      4  C4A       17.2230   90.2490   20.2610 C.2   500  COA500      0.3518
      5  C5A       17.4960   91.4270   21.0300 C.2   500  COA500      0.2526
      6  C6A       18.7770   92.1390   20.6950 C.2   500  COA500      0.4393
      7  N6A       19.1600   93.2140   21.3000 N.pl3 500  COA500      0.2180
      8  N7A       16.5120   91.6810   21.9410 N.2   500  COA500     -0.2095
      9  C8A       15.6100   90.6760   21.7630 C.3   500  COA500      0.3377
     10  N9A       15.9890   89.7780   20.7600 N.pl3 500  COA500     -0.1439
     11  C1B       15.2540   88.5430   20.2790 C.3   500  COA500      0.3185
     12  C2B       15.4090   87.3580   21.2150 C.3   500  COA500      0.2543
     13  O2B       16.7280   86.8530   21.0940 O.3   500  COA500     -0.2131
     14  C3B       14.3110   86.4120   20.6880 C.3   500  COA500      0.1928
     15  O3B       14.6810   85.7570   19.5250 O.3   500  COA500     -0.2673
     16  P3B       14.0110   84.2220   19.3880 P.3   500  COA500      0.5327
     17  O7A       14.6410   83.3650   20.5780 O.3   500  COA500     -0.1145
     18  O8A       14.4850   83.5150   18.0220 O.2   500  COA500     -0.2224
     19  O9A       12.4290   84.3490   19.5370 O.3   500  COA500     -0.1145
     20  C4B       13.1420   87.4150   20.5750 C.3   500  COA500      0.1795
     21  O4B       13.8060   88.7490   20.3240 O.3   500  COA500     -0.3136
     22  C5B       12.2960   87.5620   21.8130 C.3   500  COA500      0.1812
     23  O5B       11.0070   88.1040   21.3730 O.3   500  COA500     -0.3112
     24  P1A       10.6400   89.6050   21.8520 P.3   500  COA500      0.2189
     25  O1A       11.5780   90.5400   21.1520 O.2   500  COA500     -0.5170
     26  O2A       10.5660   89.6940   23.3520 O.3   500  COA500     -0.4371
     27  O3A        9.2740   89.8330   21.2480 O.3   500  COA500     -0.2703
     28  P2A        8.7160   90.7810   20.0480 P.3   500  COA500      0.2188
     29  O4A        9.3470   90.4560   18.7160 O.2   500  COA500     -0.5170
     30  O5A        8.8350   92.2680   20.3250 O.3   500  COA500     -0.4371
     31  O6A        7.1310   90.3630   20.1380 O.3   500  COA500     -0.3138
     32  CBP        5.2000   89.1540   19.3100 C.3   500  COA500      0.0645
     33  CCP        6.6340   89.0360   19.9260 C.3   500  COA500      0.1519
     34  CDP        4.4970   87.7590   19.1190 C.3   500  COA500      0.0056
     35  CEP        4.4790   89.9950   20.3890 C.3   500  COA500      0.0056
     36  CAP        5.3760   89.8690   17.8900 C.3   500  COA500      0.2312
     37  OAP        6.0340   88.9690   16.9410 O.3   500  COA500     -0.2131
     38  C9P        4.0640   90.3690   17.2970 C.2   500  COA500      0.2719
     39  O9P        3.4570   91.4930   17.7880 O.2   500  COA500     -0.2706
     40  N8P        3.5850   89.6390   16.3160 N.am  500  COA500     -0.2028
     41  C7P        2.3410   89.9210   15.5960 C.3   500  COA500      0.1248
     42  C6P        1.1490   89.7150   16.5450 C.3   500  COA500      0.1102
     43  C5P        1.0310   88.2810   17.0020 C.2   500  COA500      0.2432
     44  O5P        1.3360   87.2870   16.2370 O.2   500  COA500     -0.2733
     45  N4P        0.5820   88.1620   18.2480 N.am  500  COA500     -0.2044
     46  C3P        0.3430   86.8540   19.0190 C.3   500  COA500      0.1276
     47  C2P       -1.1670   86.5950   18.9940 C.3   500  COA500      0.0920
     48  S1P       -1.9100   86.3460   20.6720 S.3   500  COA500     -0.0802
@<TRIPOS>BOND
     1    41    40    1
     2    41    42    1
     3    44    43    2
     4    40    38   am
     5    42    43    1
     6    37    36    1
     7    43    45   am
     8    38    39    2
     9    38    36    1
    10    36    32    1
    11    18    16    2
    12    45    46    1
    13    29    28    2
    14    47    46    1
    15    47    48    1
    16     2     3    1
    17     2     1    1
    18    34    32    1
    19     3     4    2
    20    32    33    1
    21    32    35    1
    22    16    15    1
    23    16    19    1
    24    16    17    1
    25    15    14    1
    26     1     6    2
    27    33    31    1
    28    28    31    1
    29    28    30    1
    30    28    27    1
    31     4    10    1
    32     4     5    1
    33    11    21    1
    34    11    10    1
    35    11    12    1
    36    21    20    1
    37    20    14    1
    38    20    22    1
    39    14    12    1
    40     6     5    1
    41     6     7    1
    42    10     9    1
    43     5     8    2
    44    13    12    1
    45    25    24    2
    46    27    24    1
    47    23    22    1
    48    23    24    1
    49     9     8    1
    50    24    26    1
