@<TRIPOS>MOLECULE
1mja_COA_A_1.pdb
 48 50 0 0 0
SMALL
GASTEIGER

@<TRIPOS>ATOM
      1  N1A       19.1170   92.2250   20.1430 N.2   500  COA500      0.0021
      2  C2A       18.8230   91.0920   19.3730 C.3   500  COA500      0.5254
      3  N3A       17.7310   90.2990   19.4930 N.2   500  COA500     -0.0055
      4  C4A       16.8970   90.6950   20.4770 C.2   500  COA500      0.3518
      5  C5A       17.0350   91.8220   21.3530 C.2   500  COA500      0.2526
      6  C6A       18.2680   92.6450   21.1560 C.2   500  COA500      0.4393
      7  N6A       18.5320   93.6900   21.8700 N.pl3 500  COA500      0.2180
      8  N7A       16.0010   91.9210   22.2280 N.2   500  COA500     -0.2095
      9  C8A       15.1960   90.8770   21.9170 C.3   500  COA500      0.3377
     10  N9A       15.6870   90.1050   20.8650 N.pl3 500  COA500     -0.1439
     11  C1B       15.0470   88.8910   20.2470 C.3   500  COA500      0.3185
     12  C2B       15.3170   87.6290   21.0440 C.3   500  COA500      0.2543
     13  O2B       16.6180   87.1740   20.7170 O.3   500  COA500     -0.2131
     14  C3B       14.1900   86.6860   20.5810 C.3   500  COA500      0.1928
     15  O3B       14.4600   86.0500   19.3860 O.3   500  COA500     -0.2673
     16  P3B       13.8450   84.4870   19.3510 P.3   500  COA500      0.5327
     17  O7A       14.6610   83.6820   20.4580 O.3   500  COA500     -0.1145
     18  O8A       14.1730   83.7760   17.9520 O.2   500  COA500     -0.2224
     19  O9A       12.2960   84.5570   19.7090 O.3   500  COA500     -0.1145
     20  C4B       12.9950   87.6570   20.5670 C.3   500  COA500      0.1795
     21  O4B       13.5960   89.0110   20.3510 O.3   500  COA500     -0.3136
     22  C5B       12.1990   87.7350   21.8430 C.3   500  COA500      0.1812
     23  O5B       10.8850   88.2590   21.4490 O.3   500  COA500     -0.3112
     24  P1A       10.4980   89.7540   21.9300 P.3   500  COA500      0.2189
     25  O1A       11.3960   90.7280   21.2130 O.2   500  COA500     -0.5170
     26  O2A       10.4410   89.8490   23.4300 O.3   500  COA500     -0.4371
     27  O3A        9.0970   89.9580   21.3660 O.3   500  COA500     -0.2703
     28  P2A        8.4890   90.9450   20.2260 P.3   500  COA500      0.2188
     29  O4A        9.0900   90.7390   18.8670 O.2   500  COA500     -0.5170
     30  O5A        8.5940   92.4240   20.5910 O.3   500  COA500     -0.4371
     31  O6A        6.9090   90.4780   20.3320 O.3   500  COA500     -0.3138
     32  CBP        5.0000   89.2790   19.4180 C.3   500  COA500      0.0645
     33  CCP        6.4250   89.1530   20.0660 C.3   500  COA500      0.1519
     34  CDP        4.2730   87.8980   19.2530 C.3   500  COA500      0.0056
     35  CEP        4.2660   90.1790   20.4440 C.3   500  COA500      0.0056
     36  CAP        5.2380   89.9350   17.9740 C.3   500  COA500      0.2312
     37  OAP        5.9040   88.9850   17.0840 O.3   500  COA500     -0.2131
     38  C9P        3.9720   90.4480   17.3010 C.2   500  COA500      0.2719
     39  O9P        3.3710   91.5980   17.7190 O.2   500  COA500     -0.2706
     40  N8P        3.5290   89.6980   16.3110 N.am  500  COA500     -0.2028
     41  C7P        2.3450   89.9890   15.4880 C.3   500  COA500      0.1248
     42  C6P        1.0860   89.9590   16.3470 C.3   500  COA500      0.1102
     43  C5P        0.8630   88.5860   16.9250 C.2   500  COA500      0.2432
     44  O5P        0.9670   87.5090   16.2240 O.2   500  COA500     -0.2733
     45  N4P        0.5520   88.6120   18.2030 N.am  500  COA500     -0.2044
     46  C3P        0.2650   87.4050   19.0750 C.3   500  COA500      0.1276
     47  C2P       -1.1690   86.9940   18.7790 C.3   500  COA500      0.0920
     48  S1P       -1.5670   85.3470   19.4680 S.3   500  COA500     -0.0802
@<TRIPOS>BOND
     1    41    40    1
     2    41    42    1
     3    44    43    2
     4    40    38   am
     5    42    43    1
     6    43    45   am
     7    37    36    1
     8    38    39    2
     9    38    36    1
    10    18    16    2
    11    36    32    1
    12    45    46    1
    13    47    46    1
    14    47    48    1
    15    29    28    2
    16    34    32    1
    17    16    15    1
    18    16    19    1
    19    16    17    1
    20     2     3    1
    21     2     1    1
    22    15    14    1
    23    32    33    1
    24    32    35    1
    25     3     4    2
    26    33    31    1
    27     1     6    2
    28    28    31    1
    29    28    30    1
    30    28    27    1
    31    11    21    1
    32    11    10    1
    33    11    12    1
    34    21    20    1
    35     4    10    1
    36     4     5    1
    37    20    14    1
    38    20    22    1
    39    14    12    1
    40    13    12    1
    41    10     9    1
    42     6     5    1
    43     6     7    1
    44    25    24    2
    45     5     8    2
    46    27    24    1
    47    23    22    1
    48    23    24    1
    49     9     8    1
    50    24    26    1
