@<TRIPOS>MOLECULE
1mjh_ATP_A_1.pdb
 31 33 0 0 0
SMALL
GASTEIGER

@<TRIPOS>ATOM
      1  PG         7.3750   11.5920   29.4660 P.3   2001  ATP2001     0.5373
      2  O1G        6.5970   10.6500   28.6970 O.3   2001  ATP2001    -0.1143
      3  O2G        8.1590   12.4270   28.5610 O.2   2001  ATP2001    -0.2221
      4  O3G        6.5660   12.5210   30.2880 O.3   2001  ATP2001    -0.1143
      5  PB         9.7570   11.0220   31.1300 P.3   2001  ATP2001     0.2277
      6  O1B        9.8230   10.6600   32.5730 O.3   2001  ATP2001    -0.4368
      7  O2B       10.2190   12.3890   30.9300 O.2   2001  ATP2001    -0.5168
      8  O3B        8.2960   10.7920   30.5480 O.3   2001  ATP2001    -0.2258
      9  PA        11.3190    9.9770   28.8150 P.3   2001  ATP2001     0.2189
     10  O1A       10.6890    8.8750   28.0940 O.2   2001  ATP2001    -0.5170
     11  O2A       11.1090   11.2640   28.1620 O.3   2001  ATP2001    -0.4371
     12  O3A       10.6900   10.0040   30.3100 O.3   2001  ATP2001    -0.2700
     13  O5'       12.8390    9.8120   29.1050 O.3   2001  ATP2001    -0.3112
     14  C5'       13.5080    8.5100   28.8420 C.3   2001  ATP2001     0.1813
     15  C4'       14.8540    8.8190   28.1900 C.3   2001  ATP2001     0.1821
     16  O4'       14.5020    9.3740   26.8810 O.3   2001  ATP2001    -0.3135
     17  C3'       15.7030    9.9250   28.8300 C.3   2001  ATP2001     0.2184
     18  O3'       16.4770    9.4050   29.9540 O.3   2001  ATP2001    -0.2174
     19  C2'       16.6210   10.2470   27.6100 C.3   2001  ATP2001     0.2570
     20  O2'       17.6550    9.2430   27.4830 O.3   2001  ATP2001    -0.2130
     21  C1'       15.5840   10.1560   26.4350 C.3   2001  ATP2001     0.3186
     22  N9        15.0070   11.4460   26.0910 N.pl3 2001  ATP2001    -0.1439
     23  C8        13.8580   12.0480   26.4920 C.3   2001  ATP2001     0.3377
     24  N7        13.6220   13.2270   25.9480 N.2   2001  ATP2001    -0.2095
     25  C5        14.6630   13.4530   25.1780 C.2   2001  ATP2001     0.2526
     26  C6        15.0120   14.5190   24.3730 C.2   2001  ATP2001     0.4393
     27  N6        14.2180   15.6050   24.2340 N.pl3 2001  ATP2001     0.2180
     28  N1        16.1630   14.4360   23.7220 N.2   2001  ATP2001     0.0021
     29  C2        17.0230   13.3540   23.7850 C.3   2001  ATP2001     0.5254
     30  N3        16.7220   12.3270   24.5570 N.2   2001  ATP2001    -0.0055
     31  C4        15.5720   12.4230   25.2060 C.2   2001  ATP2001     0.3518
@<TRIPOS>BOND
     1    28    29    1
     2    28    26    2
     3    29    30    1
     4    27    26    1
     5    26    25    1
     6    30    31    2
     7    25    31    1
     8    25    24    2
     9    31    22    1
    10    24    23    1
    11    22    21    1
    12    22    23    1
    13    21    16    1
    14    21    19    1
    15    16    15    1
    16    20    19    1
    17    19    17    1
    18    10     9    2
    19    11     9    1
    20    15    17    1
    21    15    14    1
    22     3     1    2
    23     2     1    1
    24     9    13    1
    25     9    12    1
    26    17    18    1
    27    14    13    1
    28     1     4    1
    29     1     8    1
    30    12     5    1
    31     8     5    1
    32     7     5    2
    33     5     6    1
