@<TRIPOS>MOLECULE
1mjj_HAL_A_1.pdb
 33 34 0 0 0
SMALL
GASTEIGER

@<TRIPOS>ATOM
      1  CP1        0.9290   44.8040   49.5320 C.ar  1001  HAL1001    -0.0164
      2  CP2        1.8140   45.3060   48.5900 C.ar  1001  HAL1001    -0.0039
      3  CP3        1.6210   45.0410   47.2170 C.ar  1001  HAL1001    -0.0003
      4  CP4        0.5340   44.2670   46.8060 C.ar  1001  HAL1001    -0.0000
      5  CP5       -0.3540   43.7690   47.7430 C.ar  1001  HAL1001    -0.0003
      6  CP6       -0.1510   44.0450   49.1040 C.ar  1001  HAL1001    -0.0039
      7  C1         1.2050   44.9530   51.0010 C.3   1001  HAL1001     0.0705
      8  C2         1.4930   43.6330   51.6780 C.2   1001  HAL1001     0.0670
      9  N1         1.8830   43.7210   53.0910 N.am  1001  HAL1001    -0.1801
     10  C3         1.9650   42.6430   53.8630 C.2   1001  HAL1001     0.2760
     11  O1         1.7290   41.5160   53.4220 O.2   1001  HAL1001    -0.2702
     12  C4         2.4090   42.8350   55.3130 C.3   1001  HAL1001     0.2378
     13  O2         1.9130   44.0670   55.8320 O.3   1001  HAL1001    -0.2815
     14  P          2.8310   45.3760   55.8720 P.3   1001  HAL1001     0.3895
     15  O3         2.4290   46.2660   54.7550 O.2   1001  HAL1001    -0.2537
     16  O4         4.2530   44.9690   55.9870 O.3   1001  HAL1001    -0.1383
     17  C5         2.4930   46.0840   57.1370 C.3   1001  HAL1001     0.2049
     18  C6         3.1840   47.4680   57.2620 C.3   1001  HAL1001     0.0606
     19  CR1        2.8780   48.2080   58.5710 C.ar  1001  HAL1001    -0.0198
     20  CR2        3.7320   48.1050   59.6700 C.ar  1001  HAL1001    -0.0042
     21  CR3        3.4410   48.7710   60.8850 C.ar  1001  HAL1001    -0.0003
     22  CR4        2.2770   49.5490   61.0000 C.ar  1001  HAL1001    -0.0000
     23  CR5        1.4180   49.6540   59.8950 C.ar  1001  HAL1001    -0.0003
     24  CR6        1.7270   48.9890   58.7020 C.ar  1001  HAL1001    -0.0042
     25  N2         1.0620   46.3130   57.3530 N.am  1001  HAL1001    -0.1943
     26  C7         0.3640   45.7610   58.3510 C.2   1001  HAL1001     0.2419
     27  O5         0.8420   44.9520   59.1510 O.2   1001  HAL1001    -0.2733
     28  C8        -1.1120   46.1430   58.4520 C.3   1001  HAL1001     0.0874
     29  C9        -1.6610   46.0580   59.9190 C.3   1001  HAL1001     0.0214
     30  C10       -0.8230   46.9040   60.8740 C.3   1001  HAL1001     0.1146
     31  C11       -1.3660   46.8920   62.3060 C.2   1001  HAL1001     0.3649
     32  O6        -1.1790   47.9010   63.0130 O.co2 1001  HAL1001    -0.2457
     33  O7        -1.9530   45.8750   62.7330 O.co2 1001  HAL1001    -0.2457
@<TRIPOS>BOND
     1     4     3   ar
     2     4     5   ar
     3     3     2   ar
     4     5     6   ar
     5     2     1   ar
     6     6     1   ar
     7     1     7    1
     8     7     8    1
     9     8     9    2
    10     9    10    1
    11    11    10    2
    12    10    12    1
    13    15    14    2
    14    12    13    1
    15    13    14    1
    16    14    16    1
    17    14    17    1
    18    17    18    1
    19    17    25    1
    20    18    19    1
    21    25    26   am
    22    26    28    1
    23    26    27    2
    24    28    29    1
    25    19    24   ar
    26    19    20   ar
    27    24    23   ar
    28    20    21   ar
    29    23    22   ar
    30    29    30    1
    31    30    31    1
    32    21    22   ar
    33    31    33   ar
    34    31    32   ar
