@<TRIPOS>MOLECULE
1mjt_HEM_A_1.pdb
 43 50 0 0 0
SMALL
GASTEIGER

@<TRIPOS>ATOM
      1 FE         24.6720   78.8720   34.8780 Fe    500  HEM500      0.0000
      2  CHA       25.4760   82.1650   35.5210 C.2   500  HEM500      0.0000
      3  CHB       23.6200   79.7560   31.7300 C.2   500  HEM500      0.0000
      4  CHC       25.1190   75.6240   33.7130 C.2   500  HEM500      0.0000
      5  CHD       26.1550   77.9690   37.8330 C.2   500  HEM500      0.0000
      6  NA        24.6130   80.5690   33.8480 N.ar  500  HEM500      0.0000
      7  C1A       25.0210   81.8330   34.2480 C.ar  500  HEM500      0.0000
      8  C2A       24.7770   82.8070   33.1840 C.ar  500  HEM500      0.0000
      9  C3A       24.1850   82.1520   32.1550 C.ar  500  HEM500      0.0000
     10  C4A       24.1010   80.7650   32.5630 C.ar  500  HEM500      0.0000
     11  CMA       23.6760   82.7930   30.8630 C.3   500  HEM500      0.0000
     12  CAA       25.1160   84.2900   33.1480 C.3   500  HEM500      0.0000
     13  CBA       26.6150   84.4860   33.0050 C.3   500  HEM500      0.0000
     14  CGA       26.9870   85.9340   32.8120 C.2   500  HEM500      0.0000
     15  O1A       26.5130   86.5400   31.8310 O.co2 500  HEM500      0.0000
     16  O2A       27.7510   86.4690   33.6360 O.co2 500  HEM500      0.0000
     17  NB        24.1940   77.8670   33.2050 N.2   500  HEM500      0.0000
     18  C1B       23.6570   78.4000   32.0360 C.2   500  HEM500      0.0000
     19  C2B       23.4540   77.3890   31.0330 C.2   500  HEM500      0.0000
     20  C3B       23.9090   76.2130   31.5480 C.2   500  HEM500      0.0000
     21  C4B       24.3980   76.5120   32.9020 C.2   500  HEM500      0.0000
     22  CMB       22.8790   77.6180   29.6400 C.3   500  HEM500      0.0000
     23  CAB       23.9680   75.0180   30.8270 C.3   500  HEM500      0.0000
     24  CBB       23.7510   73.6200   31.3970 C.3   500  HEM500      0.0000
     25  NC        25.4710   77.1750   35.5790 N.ar  500  HEM500      0.0000
     26  C1C       25.6180   75.9340   34.9700 C.ar  500  HEM500      0.0000
     27  C2C       26.2120   74.9610   35.9020 C.ar  500  HEM500      0.0000
     28  C3C       26.3610   75.5750   37.1030 C.ar  500  HEM500      0.0000
     29  C4C       25.9630   76.9620   36.8720 C.ar  500  HEM500      0.0000
     30  CMC       26.5580   73.5120   35.6240 C.3   500  HEM500      0.0000
     31  CAC       26.6590   75.0600   38.3840 C.3   500  HEM500      0.0000
     32  CBC       27.3550   73.7810   38.7960 C.3   500  HEM500      0.0000
     33  ND        25.4420   79.8460   36.3980 N.2   500  HEM500      0.0000
     34  C1D       25.9360   79.3060   37.5940 C.2   500  HEM500      0.0000
     35  C2D       26.4080   80.3410   38.4860 C.2   500  HEM500      0.0000
     36  C3D       26.2200   81.5170   37.8570 C.2   500  HEM500      0.0000
     37  C4D       25.6510   81.2290   36.5360 C.2   500  HEM500      0.0000
     38  CMD       27.0400   80.1400   39.8480 C.3   500  HEM500      0.0000
     39  CAD       26.6280   82.8650   38.4020 C.3   500  HEM500      0.0000
     40  CBD       28.1250   83.0470   38.2100 C.3   500  HEM500      0.0000
     41  CGD       28.5620   84.4710   38.4300 C.2   500  HEM500      0.0000
     42  O1D       28.2810   85.0110   39.5200 O.co2 500  HEM500      0.0000
     43  O2D       29.1830   85.0490   37.5120 O.co2 500  HEM500      0.0000
@<TRIPOS>BOND
     1    22    19    1
     2    23    24    1
     3    23    20    1
     4    11     9    1
     5    19    20    2
     6    19    18    1
     7    20    21    1
     8     3    18    1
     9     3    10    2
    10    15    14   ar
    11    18    17    2
    12     9    10   ar
    13     9     8   ar
    14    10     6   ar
    15    14    13    1
    16    14    16   ar
    17    21    17    1
    18    21     4    2
    19    13    12    1
    20    12     8    1
    21     8     7   ar
    22    17     1    1
    23     4    26    1
    24     6     7   ar
    25     6     1    1
    26     7     2    2
    27     1    25    1
    28     1    33    1
    29    26    25   ar
    30    26    27   ar
    31     2    37    1
    32    25    29   ar
    33    30    27    1
    34    27    28   ar
    35    33    37    2
    36    33    34    1
    37    37    36    1
    38    29    28   ar
    39    29     5    1
    40    28    31    1
    41    43    41   ar
    42    34     5    2
    43    34    35    1
    44    36    39    1
    45    36    35    2
    46    40    39    1
    47    40    41    1
    48    31    32    1
    49    41    42   ar
    50    35    38    1
