@<TRIPOS>MOLECULE
1mjt_NAD_A_1.pdb
 26 27 0 0 0
SMALL
GASTEIGER

@<TRIPOS>ATOM
      1  PA        22.7150   94.7260   42.8560 P.3   700  NAD700      0.5373
      2  O1A       22.4580   93.6480   43.8660 O.3   700  NAD700     -0.1143
      3  O2A       23.7520   94.4850   41.8030 O.2   700  NAD700     -0.2221
      4  O5B       23.0450   96.1120   43.7260 O.3   700  NAD700     -0.1143
      5  O3        21.3560   95.1830   42.0530 O.3   700  NAD700     -0.2261
      6  PN        20.9930   95.8410   40.6160 P.3   700  NAD700      0.2231
      7  O1N       19.5950   95.5210   40.2360 O.2   700  NAD700     -0.5169
      8  O2N       21.4780   97.3000   40.8730 O.3   700  NAD700     -0.4370
      9  O5D       22.0100   94.9840   39.6950 O.3   700  NAD700     -0.3111
     10  C5D       22.4550   95.4150   38.4580 C.3   700  NAD700      0.1813
     11  C4D       23.8950   95.0130   38.3620 C.3   700  NAD700      0.1799
     12  O4D       23.9600   93.6850   37.7300 O.3   700  NAD700     -0.3327
     13  C3D       24.7500   95.9620   37.4750 C.3   700  NAD700      0.2158
     14  O3D       25.8980   96.3340   38.2550 O.3   700  NAD700     -0.2175
     15  C2D       25.0570   95.1320   36.2110 C.3   700  NAD700      0.2309
     16  O2D       26.2700   95.4810   35.4970 O.3   700  NAD700     -0.2158
     17  C1D       25.0410   93.7110   36.7240 C.3   700  NAD700      0.2263
     18  N1N       24.6790   92.6690   35.7550 N.pl3 700  NAD700     -0.2787
     19  C2N       25.7840   91.8260   35.4450 C.3   700  NAD700      0.1244
     20  C3N       25.5810   90.7780   34.5010 C.2   700  NAD700      0.0544
     21  C7N       26.6980   89.7790   34.0590 C.2   700  NAD700      0.2818
     22  O7N       26.3950   88.6600   33.6270 O.2   700  NAD700     -0.2670
     23  N7N       28.0050   90.1660   34.1610 N.am  700  NAD700     -0.0839
     24  C4N       24.2870   90.5450   33.8480 C.2   700  NAD700      0.0033
     25  C5N       23.2380   91.4610   34.2380 C.2   700  NAD700      0.0157
     26  C6N       23.3490   92.5070   35.1490 C.2   700  NAD700      0.0633
@<TRIPOS>BOND
     1    22    21    2
     2    24    25    1
     3    24    20    2
     4    21    23   am
     5    21    20    1
     6    25    26    2
     7    20    19    1
     8    26    18    1
     9    19    18    1
    10    16    15    1
    11    18    17    1
    12    15    17    1
    13    15    13    1
    14    17    12    1
    15    13    14    1
    16    13    11    1
    17    12    11    1
    18    11    10    1
    19    10     9    1
    20     9     6    1
    21     7     6    2
    22     6     8    1
    23     6     5    1
    24     3     1    2
    25     5     1    1
    26     1     4    1
    27     1     2    1
