@<TRIPOS>MOLECULE
1mk1_APR_A_1.pdb
 36 39 0 0 0
SMALL
GASTEIGER

@<TRIPOS>ATOM
      1  N1        33.2200   21.9430    5.4630 N.2   208  APR208      0.0021
      2  C2        33.0810   23.0620    4.6830 C.3   208  APR208      0.5254
      3  N3        31.8810   23.2590    4.0510 N.2   208  APR208     -0.0055
      4  C4        30.8540   22.3740    4.1920 C.2   208  APR208      0.3518
      5  C5        31.0110   21.2390    4.9910 C.2   208  APR208      0.2526
      6  C6        32.1910   21.0440    5.6100 C.2   208  APR208      0.4393
      7  N6        32.3280   19.9400    6.3750 N.pl3 208  APR208      0.2180
      8  N7        29.8530   20.5070    4.9780 N.2   208  APR208     -0.2095
      9  C8        28.9740   21.1680    4.1790 C.3   208  APR208      0.3377
     10  N9        29.5770   22.3080    3.6940 N.pl3 208  APR208     -0.1439
     11  C1'       28.8980   23.2450    2.7850 C.3   208  APR208      0.3186
     12  C2'       29.0190   23.4950    1.3030 C.3   208  APR208      0.2570
     13  O2'       29.3840   24.8710    1.2130 O.3   208  APR208     -0.2130
     14  C3'       27.6250   23.1170    0.9350 C.3   208  APR208      0.2184
     15  O3'       27.3810   23.5920   -0.3670 O.3   208  APR208     -0.2174
     16  O4'       27.7300   23.9970    3.1610 O.3   208  APR208     -0.3135
     17  C4'       26.8290   23.8850    2.0230 C.3   208  APR208      0.1821
     18  C5'       25.6980   22.8560    2.0930 C.3   208  APR208      0.1813
     19  O5'       24.5800   23.5260    2.6210 O.3   208  APR208     -0.3112
     20  PA        23.1830   22.9060    2.9190 P.3   208  APR208      0.2189
     21  O1A       22.7240   22.3220    1.5490 O.2   208  APR208     -0.5170
     22  O2A       22.4090   24.1460    3.4410 O.3   208  APR208     -0.4371
     23  O3A       23.1820   21.8230    4.0550 O.3   208  APR208     -0.2703
     24  PB        23.6850   20.3760    4.3480 P.3   208  APR208      0.2189
     25  O1B       25.2080   20.2080    4.1880 O.3   208  APR208     -0.4371
     26  O2B       22.9920   19.3380    3.4140 O.2   208  APR208     -0.5170
     27  O5D       23.3090   19.9490    5.7750 O.3   208  APR208     -0.3112
     28  C5D       21.9840   19.9720    6.2950 C.3   208  APR208      0.1813
     29  O4D       22.2880   17.7170    7.0090 O.3   208  APR208     -0.3237
     30  O1D       22.9450   15.9720    8.0530 O.3   208  APR208     -0.1869
     31  C1D       23.4990   17.1210    7.4460 C.3   208  APR208      0.3023
     32  O2D       24.7410   17.4560    9.3880 O.3   208  APR208     -0.2148
     33  C2D       24.2850   18.1390    8.2540 C.3   208  APR208      0.2433
     34  O3D       22.5560   19.2960    9.6820 O.3   208  APR208     -0.2175
     35  C3D       23.2880   19.2280    8.4810 C.3   208  APR208      0.2168
     36  C4D       22.0830   19.0350    7.5120 C.3   208  APR208      0.1807
@<TRIPOS>BOND
     1    15    14    1
     2    14    12    1
     3    14    17    1
     4    13    12    1
     5    12    11    1
     6    21    20    2
     7    17    18    1
     8    17    16    1
     9    18    19    1
    10    19    20    1
    11    11    16    1
    12    11    10    1
    13    20    22    1
    14    20    23    1
    15    26    24    2
    16    10     9    1
    17    10     4    1
    18     3     4    2
    19     3     2    1
    20    23    24    1
    21     9     8    1
    22    25    24    1
    23     4     5    1
    24    24    27    1
    25     2     1    1
    26     8     5    2
    27     5     6    1
    28     1     6    2
    29     6     7    1
    30    27    28    1
    31    28    36    1
    32    29    31    1
    33    29    36    1
    34    31    30    1
    35    31    33    1
    36    36    35    1
    37    33    35    1
    38    33    32    1
    39    35    34    1
