@<TRIPOS>MOLECULE
1mk5_BTN_A_1.pdb
 16 17 0 0 0
SMALL
GASTEIGER

@<TRIPOS>ATOM
      1  C11       32.6920   18.0830   13.9880 C.2   5100  BTN5100     0.3649
      2  O11       33.5800   17.3700   13.4530 O.co2 5100  BTN5100    -0.2457
      3  O12       32.6200   19.3280   13.7750 O.co2 5100  BTN5100    -0.2457
      4  C10       31.7150   17.4590   14.9100 C.3   5100  BTN5100     0.1141
      5  C9        31.3080   16.0370   14.5250 C.3   5100  BTN5100     0.0118
      6  C8        30.5210   16.0390   13.1930 C.3   5100  BTN5100     0.0015
      7  C7        30.1010   14.5980   12.8000 C.3   5100  BTN5100     0.0129
      8  C2        29.3000   14.5470   11.5050 C.3   5100  BTN5100     0.0729
      9  S1        27.5890   15.1970   11.6360 S.3   5100  BTN5100    -0.1369
     10  C6        27.2490   14.5590    9.9820 C.3   5100  BTN5100     0.0848
     11  C5        27.8730   13.1670    9.9310 C.3   5100  BTN5100     0.1509
     12  N1        27.0270   12.1200   10.4720 N.2   5100  BTN5100    -0.1859
     13  C3        27.5510   11.5300   11.5630 C.1   5100  BTN5100     0.2386
     14  O3        26.9870   10.6260   12.2170 O.2   5100  BTN5100    -0.2023
     15  N2        28.7390   12.1070   11.8320 N.2   5100  BTN5100    -0.1860
     16  C4        29.0950   13.1550   10.8780 C.3   5100  BTN5100     0.1500
@<TRIPOS>BOND
     1    11    10    1
     2    11    12    1
     3    11    16    1
     4    10     9    1
     5    12    13    2
     6    16     8    1
     7    16    15    1
     8     8     9    1
     9     8     7    1
    10    13    15    2
    11    13    14    2
    12     7     6    1
    13     6     5    1
    14     2     1   ar
    15     3     1   ar
    16     1     4    1
    17     5     4    1
