@<TRIPOS>MOLECULE
1mk8_HEM_A_1.pdb
 43 50 0 0 0
SMALL
GASTEIGER

@<TRIPOS>ATOM
      1 FE         28.0200   91.8020   52.0740 Fe    296  HEM296      0.0000
      2  CHA       27.6470   93.9730   49.4890 C.2   296  HEM296      0.0000
      3  CHB       30.3820   93.8900   53.4920 C.2   296  HEM296      0.0000
      4  CHC       28.1930   89.7810   54.8370 C.2   296  HEM296      0.0000
      5  CHD       25.2870   90.0130   50.9630 C.2   296  HEM296      0.0000
      6  NA        28.8050   93.6160   51.6350 N.2   296  HEM296      0.0000
      7  C1A       28.5570   94.3300   50.4820 C.2   296  HEM296      0.0000
      8  C2A       29.4080   95.4940   50.4400 C.2   296  HEM296      0.0000
      9  C3A       30.1730   95.4730   51.5570 C.2   296  HEM296      0.0000
     10  C4A       29.8060   94.2950   52.2960 C.2   296  HEM296      0.0000
     11  CMA       31.2400   96.4850   51.9560 C.3   296  HEM296      0.0000
     12  CAA       29.4100   96.5370   49.3470 C.3   296  HEM296      0.0000
     13  CBA       28.2750   97.5350   49.4690 C.3   296  HEM296      0.0000
     14  CGA       28.2990   98.5520   48.3520 C.2   296  HEM296      0.0000
     15  O1A       29.3400   99.2230   48.1900 O.co2 296  HEM296      0.0000
     16  O2A       27.2820   98.6780   47.6380 O.co2 296  HEM296      0.0000
     17  NB        29.0550   91.8490   53.8280 N.ar  296  HEM296      0.0000
     18  C1B       30.0360   92.7470   54.2010 C.ar  296  HEM296      0.0000
     19  C2B       30.6870   92.3020   55.4040 C.ar  296  HEM296      0.0000
     20  C3B       30.1050   91.1330   55.7630 C.ar  296  HEM296      0.0000
     21  C4B       29.0680   90.8610   54.7920 C.ar  296  HEM296      0.0000
     22  CMB       31.8290   93.0500   56.0960 C.3   296  HEM296      0.0000
     23  CAB       30.4140   90.3330   56.8710 C.3   296  HEM296      0.0000
     24  CBB       31.7210   90.1170   57.4440 C.3   296  HEM296      0.0000
     25  NC        26.8870   90.2710   52.8100 N.2   296  HEM296      0.0000
     26  C1C       27.1720   89.5150   53.9280 C.2   296  HEM296      0.0000
     27  C2C       26.1800   88.4720   54.0790 C.2   296  HEM296      0.0000
     28  C3C       25.3160   88.5890   53.0390 C.2   296  HEM296      0.0000
     29  C4C       25.8120   89.6540   52.2010 C.2   296  HEM296      0.0000
     30  CMC       26.1050   87.5110   55.2580 C.3   296  HEM296      0.0000
     31  CAC       24.1090   87.8980   52.8150 C.3   296  HEM296      0.0000
     32  CBC       23.8500   86.4950   53.0600 C.3   296  HEM296      0.0000
     33  ND        26.7370   91.9430   50.5250 N.ar  296  HEM296      0.0000
     34  C1D       25.7360   91.0640   50.1740 C.ar  296  HEM296      0.0000
     35  C2D       25.3180   91.3230   48.8160 C.ar  296  HEM296      0.0000
     36  C3D       25.9870   92.4220   48.3960 C.ar  296  HEM296      0.0000
     37  C4D       26.8170   92.8560   49.4970 C.ar  296  HEM296      0.0000
     38  CMD       24.3270   90.4740   48.0180 C.3   296  HEM296      0.0000
     39  CAD       25.8960   93.0820   46.9990 C.3   296  HEM296      0.0000
     40  CBD       24.9790   94.3060   47.0440 C.3   296  HEM296      0.0000
     41  CGD       24.8950   95.0490   45.7200 C.2   296  HEM296      0.0000
     42  O1D       24.2260   96.1070   45.6800 O.co2 296  HEM296      0.0000
     43  O2D       25.4880   94.5820   44.7240 O.co2 296  HEM296      0.0000
@<TRIPOS>BOND
     1    43    41   ar
     2    42    41   ar
     3    41    40    1
     4    39    40    1
     5    39    36    1
     6    16    14   ar
     7    38    35    1
     8    15    14   ar
     9    14    13    1
    10    36    35   ar
    11    36    37   ar
    12    35    34   ar
    13    12    13    1
    14    12     8    1
    15     2    37    2
    16     2     7    1
    17    37    33   ar
    18    34    33   ar
    19    34     5    2
    20     8     7    1
    21     8     9    2
    22     7     6    2
    23    33     1    1
    24     5    29    1
    25     9    11    1
    26     9    10    1
    27     6     1    1
    28     6    10    1
    29     1    25    1
    30     1    17    1
    31    29    25    2
    32    29    28    1
    33    10     3    2
    34    25    26    1
    35    31    28    1
    36    31    32    1
    37    28    27    2
    38     3    18    1
    39    17    18   ar
    40    17    21   ar
    41    26    27    1
    42    26     4    2
    43    27    30    1
    44    18    19   ar
    45    21     4    1
    46    21    20   ar
    47    19    20   ar
    48    19    22    1
    49    20    23    1
    50    23    24    1
