@<TRIPOS>MOLECULE
1mka_DAC_A_1.pdb
 18 17 0 0 0
SMALL
GASTEIGER

@<TRIPOS>ATOM
      1  C1         0.9520   10.4680   17.3960 C.2   172  DAC172      0.2213
      2  O1         1.7260   10.2380   16.4760 O.2   172  DAC172     -0.2797
      3  C2         0.5030    9.5330   18.3730 C.2   172  DAC172      0.0441
      4  C3         0.3040    8.2030   18.1880 C.2   172  DAC172     -0.0223
      5  C4         0.5360    7.5850   16.8140 C.3   172  DAC172      0.0262
      6  C5         1.9230    7.0040   16.6270 C.3   172  DAC172      0.0047
      7  C6         2.1210    6.5050   15.2090 C.3   172  DAC172      0.0003
      8  C7         3.5930    6.2640   14.9120 C.3   172  DAC172      0.0000
      9  C8         4.1500    5.1340   15.7550 C.3   172  DAC172      0.0000
     10  C9         5.5720    4.8170   15.3470 C.3   172  DAC172      0.0000
     11  C10        6.1140    3.6580   16.1360 C.3   172  DAC172      0.0000
     12  S          0.3290   12.0790   17.7060 S.3   172  DAC172     -0.0709
     13  C1'        1.0650   12.9310   16.3240 C.3   172  DAC172      0.0887
     14  C2'        1.6140   14.2380   16.8090 C.3   172  DAC172      0.1272
     15  N3'        2.4270   14.9160   15.8080 N.am  172  DAC172     -0.2045
     16  C4'        3.4800   15.6530   16.1250 C.2   172  DAC172      0.2419
     17  O4'        3.8360   15.7830   17.2950 O.2   172  DAC172     -0.2733
     18  C5'        4.2220   16.3030   15.0000 C.3   172  DAC172      0.0964
@<TRIPOS>BOND
     1     8     7    1
     2     8     9    1
     3    18    16    1
     4     7     6    1
     5    10     9    1
     6    10    11    1
     7    15    16   am
     8    15    14    1
     9    16    17    2
    10    13    14    1
    11    13    12    1
    12     2     1    2
    13     6     5    1
    14     5     4    1
    15     1    12    1
    16     1     3    1
    17     4     3    2
