@<TRIPOS>MOLECULE
1mkd_ZAR_A_1.pdb
 19 20 0 0 0
SMALL
GASTEIGER

@<TRIPOS>ATOM
      1  O1        44.2410    5.3070  116.0970 O.2   3001  ZAR3001    -0.2204
      2  C2        44.3400    5.5750  117.2810 C.1   3001  ZAR3001     0.1733
      3  N3        44.4200    4.5560  118.2300 N.2   3001  ZAR3001    -0.0726
      4  N4        44.5350    4.8710  119.5950 N.2   3001  ZAR3001    -0.1377
      5  C5        44.5750    6.0820  120.0540 C.2   3001  ZAR3001     0.1044
      6  C6        44.4910    7.2210  119.0520 C.2   3001  ZAR3001     0.0333
      7  C7        44.3770    7.0080  117.7210 C.2   3001  ZAR3001     0.0971
      8  C8        44.6910    6.2460  121.4060 C.ar  3001  ZAR3001     0.0227
      9  C9        44.7530    5.1070  122.2860 C.ar  3001  ZAR3001     0.0416
     10  C10       44.8750    5.2540  123.7050 C.ar  3001  ZAR3001     0.1726
     11  C11       44.9380    6.5610  124.2820 C.ar  3001  ZAR3001     0.1779
     12  C12       44.8770    7.7010  123.4130 C.ar  3001  ZAR3001     0.0403
     13  C13       44.7530    7.5400  122.0140 C.ar  3001  ZAR3001     0.0049
     14  C14       45.1660    7.7870  126.5070 C.3   3001  ZAR3001     0.5087
     15  O15       45.0640    6.6480  125.6510 O.3   3001  ZAR3001    -0.4205
     16  F16       46.3110    8.5220  126.1970 F     3001  ZAR3001    -0.1550
     17  F17       44.0770    8.6300  126.3890 F     3001  ZAR3001    -0.1550
     18  O18       44.9340    4.1790  124.5490 O.3   3001  ZAR3001    -0.4684
     19  C19       44.8910    2.7960  124.2100 C.3   3001  ZAR3001     0.2526
@<TRIPOS>BOND
     1     1     2    2
     2     2     7    1
     3     2     3    2
     4     7     6    2
     5     3     4    1
     6     6     5    1
     7     4     5    2
     8     5     8    1
     9     8    13   ar
    10     8     9   ar
    11    13    12   ar
    12     9    10   ar
    13    12    11   ar
    14    10    11   ar
    15    10    18    1
    16    19    18    1
    17    11    15    1
    18    15    14    1
    19    16    14    1
    20    17    14    1
