@<TRIPOS>MOLECULE
1mkj_ADP_A_1.pdb
 27 29 0 0 0
SMALL
GASTEIGER

@<TRIPOS>ATOM
      1  PB        76.8170   37.9770   87.1590 P.3   600  ADP600      0.5373
      2  O1B       75.5000   37.3870   86.8550 O.2   600  ADP600     -0.2221
      3  O2B       76.7580   39.5580   87.0060 O.3   600  ADP600     -0.1143
      4  O3B       77.2760   37.6090   88.5200 O.3   600  ADP600     -0.1143
      5  PA        78.8350   38.3500   85.1210 P.3   600  ADP600      0.2231
      6  O1A       78.0880   38.8640   83.9740 O.2   600  ADP600     -0.5169
      7  O2A       79.4520   39.4860   85.8230 O.3   600  ADP600     -0.4370
      8  O3A       77.8870   37.5340   86.1070 O.3   600  ADP600     -0.2261
      9  O5'       79.9930   37.4030   84.6600 O.3   600  ADP600     -0.3111
     10  C5'       80.2840   36.0430   85.0070 C.3   600  ADP600      0.1813
     11  C4'       81.5690   35.7040   84.1590 C.3   600  ADP600      0.1821
     12  O4'       81.0240   35.1690   82.9580 O.3   600  ADP600     -0.3135
     13  C3'       82.3960   36.9390   83.7010 C.3   600  ADP600      0.2184
     14  O3'       83.8090   36.6620   83.6210 O.3   600  ADP600     -0.2174
     15  C2'       81.8070   37.3410   82.3460 C.3   600  ADP600      0.2570
     16  O2'       82.6830   38.1530   81.5320 O.3   600  ADP600     -0.2130
     17  C1'       81.3940   35.9730   81.7920 C.3   600  ADP600      0.3186
     18  N9        80.1680   36.0000   80.9070 N.pl3 600  ADP600     -0.1439
     19  C8        78.8950   36.2070   81.3470 C.3   600  ADP600      0.3377
     20  N7        78.0520   36.1620   80.3230 N.2   600  ADP600     -0.2095
     21  C5        78.7370   35.9310   79.2290 C.2   600  ADP600      0.2526
     22  C6        78.4240   35.7750   77.8590 C.2   600  ADP600      0.4393
     23  N6        77.1430   35.8570   77.4510 N.pl3 600  ADP600      0.2180
     24  N1        79.4460   35.5320   76.9310 N.2   600  ADP600      0.0021
     25  C2        80.7610   35.4410   77.3140 C.3   600  ADP600      0.5254
     26  N3        81.0730   35.5890   78.6420 N.2   600  ADP600     -0.0055
     27  C4        80.1200   35.8320   79.6030 C.2   600  ADP600      0.3518
@<TRIPOS>BOND
     1    24    25    1
     2    24    22    2
     3    25    26    1
     4    23    22    1
     5    22    21    1
     6    26    27    2
     7    21    27    1
     8    21    20    2
     9    27    18    1
    10    20    19    1
    11    18    19    1
    12    18    17    1
    13    16    15    1
    14    17    15    1
    15    17    12    1
    16    15    13    1
    17    12    11    1
    18    14    13    1
    19    13    11    1
    20     6     5    2
    21    11    10    1
    22     9    10    1
    23     9     5    1
    24     5     7    1
    25     5     8    1
    26     8     1    1
    27     2     1    2
    28     3     1    1
    29     1     4    1
