@<TRIPOS>MOLECULE
1mko_HEM_A_1.pdb
 43 50 0 0 0
SMALL
GASTEIGER

@<TRIPOS>ATOM
      1 FE         37.1040   68.6470   -3.0180 Fe    143  HEM143      0.0000
      2  CHA       37.1490   69.7550   -6.2140 C.2   143  HEM143      0.0000
      3  CHB       38.5330   71.7250   -2.0140 C.2   143  HEM143      0.0000
      4  CHC       36.8880   67.6670    0.2820 C.2   143  HEM143      0.0000
      5  CHD       36.0910   65.5030   -4.1230 C.2   143  HEM143      0.0000
      6  NA        37.7220   70.4010   -3.9000 N.2   143  HEM143      0.0000
      7  C1A       37.6090   70.6940   -5.2360 C.2   143  HEM143      0.0000
      8  C2A       38.0230   72.0070   -5.5380 C.2   143  HEM143      0.0000
      9  C3A       38.4440   72.5160   -4.4000 C.2   143  HEM143      0.0000
     10  C4A       38.2670   71.5310   -3.3590 C.2   143  HEM143      0.0000
     11  CMA       39.0770   73.8920   -4.1720 C.3   143  HEM143      0.0000
     12  CAA       37.9040   72.6620   -6.9320 C.3   143  HEM143      0.0000
     13  CBA       36.5560   73.3470   -7.2020 C.3   143  HEM143      0.0000
     14  CGA       36.5020   73.9260   -8.6190 C.2   143  HEM143      0.0000
     15  O1A       37.1130   73.3160   -9.5210 O.co2 143  HEM143      0.0000
     16  O2A       35.8690   74.9870   -8.8410 O.co2 143  HEM143      0.0000
     17  NB        37.6700   69.4890   -1.2780 N.ar  143  HEM143      0.0000
     18  C1B       38.2200   70.7750   -1.0470 C.ar  143  HEM143      0.0000
     19  C2B       38.5100   70.9750    0.3870 C.ar  143  HEM143      0.0000
     20  C3B       38.1460   69.8010    1.0220 C.ar  143  HEM143      0.0000
     21  C4B       37.5220   68.9360    0.0110 C.ar  143  HEM143      0.0000
     22  CMB       38.8690   72.3150    1.0430 C.3   143  HEM143      0.0000
     23  CAB       38.3030   69.4360    2.3660 C.3   143  HEM143      0.0000
     24  CBB       39.3780   69.7060    3.2790 C.3   143  HEM143      0.0000
     25  NC        36.6390   66.9240   -2.1130 N.2   143  HEM143      0.0000
     26  C1C       36.5610   66.6750   -0.7150 C.2   143  HEM143      0.0000
     27  C2C       36.3020   65.2360   -0.5550 C.2   143  HEM143      0.0000
     28  C3C       36.0650   64.5710   -1.7880 C.2   143  HEM143      0.0000
     29  C4C       36.2800   65.6470   -2.7510 C.2   143  HEM143      0.0000
     30  CMC       36.3360   64.5100    0.7620 C.3   143  HEM143      0.0000
     31  CAC       35.8970   63.1600   -2.0680 C.3   143  HEM143      0.0000
     32  CBC       36.7850   62.2030   -1.2940 C.3   143  HEM143      0.0000
     33  ND        36.6640   67.8490   -4.7600 N.ar  143  HEM143      0.0000
     34  C1D       36.2450   66.5520   -5.0420 C.ar  143  HEM143      0.0000
     35  C2D       35.9760   66.3710   -6.4120 C.ar  143  HEM143      0.0000
     36  C3D       36.2380   67.5170   -6.9900 C.ar  143  HEM143      0.0000
     37  C4D       36.7140   68.4370   -5.9800 C.ar  143  HEM143      0.0000
     38  CMD       35.4960   65.0240   -7.0500 C.3   143  HEM143      0.0000
     39  CAD       35.9780   67.8060   -8.4860 C.3   143  HEM143      0.0000
     40  CBD       37.1700   67.2860   -9.2930 C.3   143  HEM143      0.0000
     41  CGD       36.9290   67.3700  -10.7810 C.2   143  HEM143      0.0000
     42  O1D       36.2650   66.4630  -11.2980 O.co2 143  HEM143      0.0000
     43  O2D       37.3730   68.3470  -11.4220 O.co2 143  HEM143      0.0000
@<TRIPOS>BOND
     1    43    41   ar
     2    42    41   ar
     3    41    40    1
     4    15    14   ar
     5    40    39    1
     6    16    14   ar
     7    14    13    1
     8    39    36    1
     9    13    12    1
    10    38    35    1
    11    36    35   ar
    12    36    37   ar
    13    12     8    1
    14    35    34   ar
    15     2    37    2
    16     2     7    1
    17    37    33   ar
    18     8     7    1
    19     8     9    2
    20     7     6    2
    21    34    33   ar
    22    34     5    2
    23    33     1    1
    24     9    11    1
    25     9    10    1
    26     5    29    1
    27     6    10    1
    28     6     1    1
    29    10     3    2
    30     1    25    1
    31     1    17    1
    32    29    25    2
    33    29    28    1
    34    25    26    1
    35    31    28    1
    36    31    32    1
    37     3    18    1
    38    28    27    2
    39    17    18   ar
    40    17    21   ar
    41    18    19   ar
    42    26    27    1
    43    26     4    2
    44    27    30    1
    45    21     4    1
    46    21    20   ar
    47    19    20   ar
    48    19    22    1
    49    20    23    1
    50    23    24    1
