@<TRIPOS>MOLECULE
1mkq_HEM_A_1.pdb
 43 50 0 0 0
SMALL
GASTEIGER

@<TRIPOS>ATOM
      1 FE         27.7650   16.3600    1.0330 Fe    296  HEM296      0.0000
      2  CHA       27.3240   18.5750   -1.5440 C.2   296  HEM296      0.0000
      3  CHB       30.0710   18.5070    2.4600 C.2   296  HEM296      0.0000
      4  CHC       27.9460   14.3700    3.8030 C.2   296  HEM296      0.0000
      5  CHD       25.0180   14.5890   -0.0560 C.2   296  HEM296      0.0000
      6  NA        28.4780   18.2250    0.6010 N.2   296  HEM296      0.0000
      7  C1A       28.2200   18.9460   -0.5460 C.2   296  HEM296      0.0000
      8  C2A       29.0520   20.1230   -0.5760 C.2   296  HEM296      0.0000
      9  C3A       29.8170   20.1030    0.5390 C.2   296  HEM296      0.0000
     10  C4A       29.4680   18.9140    1.2720 C.2   296  HEM296      0.0000
     11  CMA       30.8880   21.1110    0.9390 C.3   296  HEM296      0.0000
     12  CAA       29.0640   21.1640   -1.6710 C.3   296  HEM296      0.0000
     13  CBA       27.9520   22.1910   -1.6160 C.3   296  HEM296      0.0000
     14  CGA       28.0180   23.1450   -2.7870 C.2   296  HEM296      0.0000
     15  O1A       29.0970   23.7370   -2.9940 O.co2 296  HEM296      0.0000
     16  O2A       27.0030   23.2980   -3.5000 O.co2 296  HEM296      0.0000
     17  NB        28.8030   16.4350    2.7860 N.ar  296  HEM296      0.0000
     18  C1B       29.7690   17.3470    3.1600 C.ar  296  HEM296      0.0000
     19  C2B       30.4700   16.8760    4.3310 C.ar  296  HEM296      0.0000
     20  C3B       29.9090   15.6890    4.6790 C.ar  296  HEM296      0.0000
     21  C4B       28.8270   15.4490    3.7510 C.ar  296  HEM296      0.0000
     22  CMB       31.6360   17.6180    4.9930 C.3   296  HEM296      0.0000
     23  CAB       30.2880   14.8080    5.7140 C.3   296  HEM296      0.0000
     24  CBB       31.5870   14.6860    6.3570 C.3   296  HEM296      0.0000
     25  NC        26.6360   14.8410    1.7700 N.2   296  HEM296      0.0000
     26  C1C       26.9230   14.0990    2.8980 C.2   296  HEM296      0.0000
     27  C2C       25.9580   13.0320    3.0370 C.2   296  HEM296      0.0000
     28  C3C       25.0830   13.1470    2.0050 C.2   296  HEM296      0.0000
     29  C4C       25.5590   14.2230    1.1710 C.2   296  HEM296      0.0000
     30  CMC       25.9150   12.0220    4.1810 C.3   296  HEM296      0.0000
     31  CAC       23.9020   12.4280    1.7560 C.3   296  HEM296      0.0000
     32  CBC       23.6770   11.0350    1.9920 C.3   296  HEM296      0.0000
     33  ND        26.4620   16.5250   -0.5060 N.ar  296  HEM296      0.0000
     34  C1D       25.4560   15.6430   -0.8450 C.ar  296  HEM296      0.0000
     35  C2D       25.0480   15.8800   -2.2090 C.ar  296  HEM296      0.0000
     36  C3D       25.7010   16.9850   -2.6340 C.ar  296  HEM296      0.0000
     37  C4D       26.5220   17.4390   -1.5350 C.ar  296  HEM296      0.0000
     38  CMD       24.0970   14.9990   -3.0060 C.3   296  HEM296      0.0000
     39  CAD       25.6070   17.6200   -4.0290 C.3   296  HEM296      0.0000
     40  CBD       24.6410   18.7980   -4.0570 C.3   296  HEM296      0.0000
     41  CGD       24.6330   19.5350   -5.3870 C.2   296  HEM296      0.0000
     42  O1D       23.9880   20.6040   -5.4660 O.co2 296  HEM296      0.0000
     43  O2D       25.2580   19.0510   -6.3510 O.co2 296  HEM296      0.0000
@<TRIPOS>BOND
     1    43    41   ar
     2    42    41   ar
     3    41    40    1
     4    40    39    1
     5    39    36    1
     6    16    14   ar
     7    38    35    1
     8    15    14   ar
     9    14    13    1
    10    36    35   ar
    11    36    37   ar
    12    35    34   ar
    13    12    13    1
    14    12     8    1
    15     2    37    2
    16     2     7    1
    17    37    33   ar
    18    34    33   ar
    19    34     5    2
    20     8     7    1
    21     8     9    2
    22     7     6    2
    23    33     1    1
    24     5    29    1
    25     9    11    1
    26     9    10    1
    27     6     1    1
    28     6    10    1
    29     1    25    1
    30     1    17    1
    31    29    25    2
    32    29    28    1
    33    10     3    2
    34    31    32    1
    35    31    28    1
    36    25    26    1
    37    28    27    2
    38     3    18    1
    39    17    18   ar
    40    17    21   ar
    41    26    27    1
    42    26     4    2
    43    27    30    1
    44    18    19   ar
    45    21     4    1
    46    21    20   ar
    47    19    20   ar
    48    19    22    1
    49    20    23    1
    50    23    24    1
