@<TRIPOS>MOLECULE
1mkr_HEM_A_1.pdb
 43 50 0 0 0
SMALL
GASTEIGER

@<TRIPOS>ATOM
      1 FE         14.3830   23.7370   42.0110 Fe    296  HEM296      0.0000
      2  CHA       13.3660   21.1500   44.0370 C.2   296  HEM296      0.0000
      3  CHB       11.2580   25.1780   42.3420 C.2   296  HEM296      0.0000
      4  CHC       15.4620   26.5190   40.3470 C.2   296  HEM296      0.0000
      5  CHD       17.6120   22.6050   42.2420 C.2   296  HEM296      0.0000
      6  NA        12.6930   23.3220   43.0900 N.2   296  HEM296      0.0000
      7  C1A       12.4470   22.1630   43.7980 C.2   296  HEM296      0.0000
      8  C2A       11.0660   22.1240   44.2080 C.2   296  HEM296      0.0000
      9  C3A       10.4800   23.2550   43.7540 C.2   296  HEM296      0.0000
     10  C4A       11.4870   23.9990   43.0450 C.2   296  HEM296      0.0000
     11  CMA        9.0150   23.6280   43.9130 C.3   296  HEM296      0.0000
     12  CAA       10.4260   20.9830   44.9920 C.3   296  HEM296      0.0000
     13  CBA       10.7050   21.0800   46.4810 C.3   296  HEM296      0.0000
     14  CGA       10.0980   19.9290   47.2450 C.2   296  HEM296      0.0000
     15  O1A        8.8790   19.7050   47.0810 O.co2 296  HEM296      0.0000
     16  O2A       10.8340   19.2530   48.0030 O.co2 296  HEM296      0.0000
     17  NB        13.5190   25.4790   41.4270 N.ar  296  HEM296      0.0000
     18  C1B       12.2010   25.8590   41.5780 C.ar  296  HEM296      0.0000
     19  C2B       11.9310   27.0270   40.7750 C.ar  296  HEM296      0.0000
     20  C3B       13.1070   27.4020   40.2090 C.ar  296  HEM296      0.0000
     21  C4B       14.1060   26.4600   40.6550 C.ar  296  HEM296      0.0000
     22  CMB       10.5530   27.6810   40.6290 C.3   296  HEM296      0.0000
     23  CAB       13.3570   28.4920   39.3550 C.3   296  HEM296      0.0000
     24  CBB       12.4290   29.0170   38.3600 C.3   296  HEM296      0.0000
     25  NC        16.1950   24.4600   41.4840 N.2   296  HEM296      0.0000
     26  C1C       16.4300   25.6000   40.7420 C.2   296  HEM296      0.0000
     27  C2C       17.8420   25.7230   40.4700 C.2   296  HEM296      0.0000
     28  C3C       18.4590   24.6730   41.0710 C.2   296  HEM296      0.0000
     29  C4C       17.4190   23.8430   41.6330 C.2   296  HEM296      0.0000
     30  CMC       18.4760   26.8710   39.6730 C.3   296  HEM296      0.0000
     31  CAC       19.8340   24.4160   41.1860 C.3   296  HEM296      0.0000
     32  CBC       20.9070   24.6800   40.2470 C.3   296  HEM296      0.0000
     33  ND        15.2960   22.1860   42.9530 N.ar  296  HEM296      0.0000
     34  C1D       16.6220   21.8250   42.8310 C.ar  296  HEM296      0.0000
     35  C2D       16.7950   20.4570   43.2700 C.ar  296  HEM296      0.0000
     36  C3D       15.5980   20.0360   43.7460 C.ar  296  HEM296      0.0000
     37  C4D       14.6890   21.1490   43.6260 C.ar  296  HEM296      0.0000
     38  CMD       18.0840   19.6420   43.1260 C.3   296  HEM296      0.0000
     39  CAD       15.2550   18.6440   44.3130 C.3   296  HEM296      0.0000
     40  CBD       15.3110   18.6550   45.8470 C.3   296  HEM296      0.0000
     41  CGD       14.9090   17.3280   46.4820 C.2   296  HEM296      0.0000
     42  O1D       14.7490   17.2880   47.7220 O.co2 296  HEM296      0.0000
     43  O2D       14.7560   16.3280   45.7570 O.co2 296  HEM296      0.0000
@<TRIPOS>BOND
     1    24    23    1
     2    23    20    1
     3    30    27    1
     4    20    21   ar
     5    20    19   ar
     6    32    31    1
     7     4    21    1
     8     4    26    2
     9    27    26    1
    10    27    28    2
    11    22    19    1
    12    21    17   ar
    13    26    25    1
    14    19    18   ar
    15    28    31    1
    16    28    29    1
    17    17    18   ar
    18    17     1    1
    19    25    29    2
    20    25     1    1
    21    18     3    1
    22    29     5    1
    23     1    33    1
    24     1     6    1
    25     5    34    2
    26     3    10    2
    27    34    33   ar
    28    34    35   ar
    29    33    37   ar
    30    10     6    1
    31    10     9    1
    32     6     7    2
    33    38    35    1
    34    35    36   ar
    35    37    36   ar
    36    37     2    2
    37    36    39    1
    38     9    11    1
    39     9     8    2
    40     7     2    1
    41     7     8    1
    42     8    12    1
    43    39    40    1
    44    12    13    1
    45    43    41   ar
    46    40    41    1
    47    13    14    1
    48    41    42   ar
    49    15    14   ar
    50    14    16   ar
