@<TRIPOS>MOLECULE
1mkv_GEL_A_1.pdb
 31 30 0 0 0
SMALL
GASTEIGER

@<TRIPOS>ATOM
      1  C1        32.7280    5.1620   68.4240 C.3   150  GEL150      0.2093
      2  O1        32.9950    3.8230   67.9240 O.3   150  GEL150     -0.3457
      3  C11       34.2430    3.7810   67.1740 C.3   150  GEL150      0.1428
      4  C12       34.4310    2.5320   66.2810 C.3   150  GEL150      0.0321
      5  C13       34.3790    1.2430   67.1010 C.3   150  GEL150      0.0026
      6  C14       35.4710    0.2490   66.6670 C.3   150  GEL150      0.0001
      7  C15       36.8510    0.7350   67.0960 C.3   150  GEL150      0.0000
      8  C16       37.3600   -0.0060   68.3440 C.3   150  GEL150      0.0000
      9  C17       38.9160   -0.1350   68.3220 C.3   150  GEL150      0.0000
     10  C18       39.6470    0.3830   69.6060 C.3   150  GEL150      0.0000
     11  C2        31.5590    5.8080   67.6380 C.2   150  GEL150      0.1911
     12  O2        30.3310    5.0060   67.2990 O.2   150  GEL150     -0.4195
     13  P2        29.7190    4.7880   65.7880 P.3   150  GEL150      0.4174
     14  O1P       28.3300    5.5670   65.8680 O.3   150  GEL150     -0.1296
     15  O2P       30.6000    5.4190   64.7190 O.2   150  GEL150     -0.2411
     16  C22       29.4070    3.0970   65.5920 C.3   150  GEL150      0.1313
     17  C23       30.1410    2.1120   66.4910 C.3   150  GEL150      0.0140
     18  C24       29.5980    0.7660   66.2860 C.3   150  GEL150      0.0007
     19  C25       30.6530   -0.2550   66.2010 C.3   150  GEL150      0.0000
     20  C26       30.5700   -1.1640   67.3830 C.3   150  GEL150      0.0000
     21  C27       31.2980   -0.5560   68.5900 C.3   150  GEL150      0.0000
     22  C28       30.7770   -1.1530   69.8910 C.3   150  GEL150      0.0000
     23  C3        31.4880    7.2990   67.2920 C.2   150  GEL150      0.2137
     24  O3        32.6580    8.0640   67.5960 O.2   150  GEL150     -0.4338
     25  P3        33.2920    8.7100   66.2200 P.3   150  GEL150      0.2700
     26  O3P       32.9430    7.9990   64.9640 O.2   150  GEL150     -0.5082
     27  O4P       34.8620    8.4880   66.4000 O.3   150  GEL150     -0.4274
     28  O5P       32.9840   10.2490   65.9670 O.3   150  GEL150     -0.3036
     29  C31       32.4250   10.7700   67.1160 C.3   150  GEL150      0.1706
     30  C32       32.3640   12.2510   66.8550 C.3   150  GEL150      0.1418
     31  N3        31.5040   12.4360   65.6990 N.3   150  GEL150     -0.1286
@<TRIPOS>BOND
     1    15    13    2
     2    26    25    2
     3    16    13    1
     4    16    17    1
     5    31    30    1
     6    13    14    1
     7    13    12    1
     8    28    25    1
     9    28    29    1
    10    19    18    1
    11    19    20    1
    12    25    27    1
    13    25    24    1
    14     4     5    1
    15     4     3    1
    16    18    17    1
    17     6     7    1
    18     6     5    1
    19    30    29    1
    20     7     8    1
    21     3     2    1
    22    23    24    1
    23    23    11    2
    24    12    11    1
    25    20    21    1
    26    11     1    1
    27     2     1    1
    28     9     8    1
    29     9    10    1
    30    21    22    1
