@<TRIPOS>MOLECULE
1mky_GDP_A_1.pdb
 28 30 0 0 0
SMALL
GASTEIGER

@<TRIPOS>ATOM
      1  PB        26.5070   29.0460   88.8480 P.3   500  GDP500      0.5373
      2  O1B       26.8130   29.9790   89.9610 O.3   500  GDP500     -0.1143
      3  O2B       26.5430   29.5000   87.4300 O.2   500  GDP500     -0.2221
      4  O3B       27.3770   27.7830   88.6280 O.3   500  GDP500     -0.1143
      5  O3A       25.1610   28.4720   88.5370 O.3   500  GDP500     -0.2261
      6  PA        24.2320   27.5930   89.5430 P.3   500  GDP500      0.2231
      7  O1A       23.9380   26.4810   88.6060 O.2   500  GDP500     -0.5169
      8  O2A       24.6650   27.1800   90.8830 O.3   500  GDP500     -0.4370
      9  O5'       22.4310   27.9070   89.4680 O.3   500  GDP500     -0.3111
     10  C5'       21.9140   29.2040   89.7850 C.3   500  GDP500      0.1813
     11  C4'       20.5490   29.0700   90.4870 C.3   500  GDP500      0.1799
     12  O4'       19.4140   29.1750   89.5570 O.3   500  GDP500     -0.3326
     13  C3'       20.2530   27.7020   91.1640 C.3   500  GDP500      0.2158
     14  O3'       19.3580   28.0180   92.2650 O.3   500  GDP500     -0.2175
     15  C2'       19.5230   26.8790   90.0840 C.3   500  GDP500      0.2310
     16  O2'       18.6190   25.9090   90.6010 O.3   500  GDP500     -0.2158
     17  C1'       18.7950   27.9470   89.2970 C.3   500  GDP500      0.2293
     18  N9        18.8750   27.6980   87.8070 N.pl3 500  GDP500     -0.2354
     19  C8        19.9290   27.3410   86.9900 C.3   500  GDP500      0.2246
     20  N7        19.5870   27.2100   85.7480 N.2   500  GDP500     -0.2322
     21  C5        18.2340   27.4930   85.7120 C.2   500  GDP500      0.2182
     22  C6        17.2920   27.5190   84.6400 C.1   500  GDP500      0.2372
     23  O6        17.5050   27.2720   83.4530 O.2   500  GDP500     -0.2069
     24  N1        15.9790   27.8710   85.0730 N.2   500  GDP500     -0.2485
     25  C2        15.6290   28.1680   86.3780 C.1   500  GDP500      0.2531
     26  N2        14.3480   28.4800   86.5950 N.pl3 500  GDP500     -0.0226
     27  N3        16.5110   28.1400   87.4100 N.2   500  GDP500     -0.3074
     28  C4        17.7590   27.8050   86.9870 C.2   500  GDP500      0.2300
@<TRIPOS>BOND
     1    23    22    2
     2    22    24    2
     3    22    21    1
     4    24    25    2
     5    21    20    2
     6    21    28    1
     7    20    19    1
     8    25    26    1
     9    25    27    2
    10    28    27    2
    11    28    18    1
    12    19    18    1
    13     3     1    2
    14    18    17    1
    15     5     1    1
    16     5     6    1
    17     7     6    2
    18     4     1    1
    19     1     2    1
    20    17    12    1
    21    17    15    1
    22     9     6    1
    23     9    10    1
    24     6     8    1
    25    12    11    1
    26    10    11    1
    27    15    16    1
    28    15    13    1
    29    11    13    1
    30    13    14    1
