@<TRIPOS>MOLECULE
1ml2_ZEM_A_1.pdb
 44 51 0 0 0
SMALL
GASTEIGER

@<TRIPOS>ATOM
      1 ZN         14.3570   23.7990   41.9530 Zn    296  ZEM296      0.0000
      2  NA        12.6310   23.3450   42.9650 N.2   296  ZEM296      0.0000
      3  NB        13.4640   25.5120   41.2980 N.ar  296  ZEM296      0.0000
      4  NC        16.1840   24.4650   41.3730 N.2   296  ZEM296      0.0000
      5  ND        15.2800   22.1960   42.8260 N.ar  296  ZEM296      0.0000
      6  C1A       12.4340   22.2400   43.7720 C.2   296  ZEM296      0.0000
      7  CHA       13.3780   21.2610   44.0630 C.2   296  ZEM296      0.0000
      8  C4D       14.6880   21.2270   43.6050 C.ar  296  ZEM296      0.0000
      9  C1B       12.1780   25.9570   41.5370 C.ar  296  ZEM296      0.0000
     10  CHB       11.2340   25.2880   42.3370 C.2   296  ZEM296      0.0000
     11  OZ        10.0160   25.8640   42.4760 O.2   296  ZEM296      0.0000
     12  C4A       11.4520   24.0660   42.9970 C.2   296  ZEM296      0.0000
     13  C1C       16.4240   25.6350   40.6800 C.2   296  ZEM296      0.0000
     14  CHC       15.4550   26.5680   40.3060 C.2   296  ZEM296      0.0000
     15  C4B       14.0890   26.5120   40.5840 C.ar  296  ZEM296      0.0000
     16  C1D       16.6160   21.8670   42.7740 C.ar  296  ZEM296      0.0000
     17  CHD       17.6180   22.6600   42.2230 C.2   296  ZEM296      0.0000
     18  C4C       17.4180   23.8820   41.5820 C.2   296  ZEM296      0.0000
     19  C2A       11.0600   22.1940   44.1960 C.2   296  ZEM296      0.0000
     20  CAA       10.4230   21.0520   44.9780 C.3   296  ZEM296      0.0000
     21  C3A       10.4570   23.3130   43.7360 C.2   296  ZEM296      0.0000
     22  CMA        8.9760   23.6050   43.9750 C.3   296  ZEM296      0.0000
     23  CBA       10.6380   21.1420   46.4780 C.3   296  ZEM296      0.0000
     24  CGA       10.0450   19.9570   47.2060 C.2   296  ZEM296      0.0000
     25  O1A        8.8410   19.6790   47.0000 O.co2 296  ZEM296      0.0000
     26  O2A       10.7770   19.3070   47.9820 O.co2 296  ZEM296      0.0000
     27  C2B       11.9420   27.1690   40.7700 C.ar  296  ZEM296      0.0000
     28  CMB       10.6300   27.9550   40.6560 C.3   296  ZEM296      0.0000
     29  C3B       13.1080   27.4810   40.1490 C.ar  296  ZEM296      0.0000
     30  CAB       13.3480   28.5320   39.2440 C.3   296  ZEM296      0.0000
     31  CBB       12.4490   28.9590   38.1900 C.3   296  ZEM296      0.0000
     32  C2C       17.8420   25.7750   40.4340 C.2   296  ZEM296      0.0000
     33  CMC       18.4890   26.9310   39.6610 C.3   296  ZEM296      0.0000
     34  C3C       18.4590   24.7240   41.0350 C.2   296  ZEM296      0.0000
     35  CAC       19.8400   24.4740   41.1460 C.3   296  ZEM296      0.0000
     36  CBC       20.8630   24.7580   40.1560 C.3   296  ZEM296      0.0000
     37  C2D       16.7820   20.5050   43.2310 C.ar  296  ZEM296      0.0000
     38  CMD       18.0310   19.6440   43.0700 C.3   296  ZEM296      0.0000
     39  C3D       15.5900   20.1080   43.7380 C.ar  296  ZEM296      0.0000
     40  CAD       15.2420   18.7260   44.3070 C.3   296  ZEM296      0.0000
     41  CBD       15.3240   18.7250   45.8320 C.3   296  ZEM296      0.0000
     42  CGD       14.8970   17.4070   46.4570 C.2   296  ZEM296      0.0000
     43  O1D       14.7340   17.3700   47.6960 O.co2 296  ZEM296      0.0000
     44  O2D       14.7280   16.4100   45.7230 O.co2 296  ZEM296      0.0000
@<TRIPOS>BOND
     1    31    30    1
     2    30    29    1
     3    33    32    1
     4    29    15   ar
     5    29    27   ar
     6    36    35    1
     7    14    15    1
     8    14    13    2
     9    32    13    1
    10    32    34    2
    11    15     3   ar
    12    28    27    1
    13    13     4    1
    14    27     9   ar
    15    34    35    1
    16    34    18    1
    17     3     9   ar
    18     3     1    1
    19     4    18    2
    20     4     1    1
    21     9    10    1
    22    18    17    1
    23     1     5    1
    24     1     2    1
    25    17    16    2
    26    10    11    1
    27    10    12    2
    28    16     5   ar
    29    16    37   ar
    30     5     8   ar
    31     2    12    1
    32     2     6    2
    33    12    21    1
    34    38    37    1
    35    37    39   ar
    36     8    39   ar
    37     8     7    2
    38    21    22    1
    39    21    19    2
    40    39    40    1
    41     6     7    1
    42     6    19    1
    43    19    20    1
    44    40    41    1
    45    20    23    1
    46    44    42   ar
    47    41    42    1
    48    42    43   ar
    49    23    24    1
    50    25    24   ar
    51    24    26   ar
