@<TRIPOS>MOLECULE
1ml3_CYX_B_1.pdb
 10 9 0 0 0
SMALL
GASTEIGER

@<TRIPOS>ATOM
      1  C1        -4.3070   -4.8620   21.3520 C.2   1166  CYX1166     0.2299
      2  C2        -5.1520   -5.7380   22.3160 C.2   1166  CYX1166     0.0204
      3  O3        -3.1820   -4.4460   21.6520 O.2   1166  CYX1166    -0.2835
      4  C4        -5.4180   -7.0390   22.0670 C.2   1166  CYX1166    -0.0012
      5  C5        -5.7120   -5.0960   23.6010 C.3   1166  CYX1166     0.0374
      6  C6        -4.6400   -4.2940   24.4020 C.3   1166  CYX1166     0.0637
      7  P7        -4.9580   -4.0840   26.1080 P.3   1166  CYX1166     0.1175
      8  O8        -4.4510   -2.6300   26.5590 O.3   1166  CYX1166    -0.3571
      9  O9        -4.1680   -5.2150   26.9310 O.3   1166  CYX1166    -0.3571
     10  O10       -6.5350   -4.2220   26.3910 O.2   1166  CYX1166    -0.4601
@<TRIPOS>BOND
     1     1     3    2
     2     1     2    1
     3     4     2    2
     4     2     5    1
     5     5     6    1
     6     6     7    1
     7     7    10    2
     8     7     8    1
     9     7     9    1
