@<TRIPOS>MOLECULE
1ml3_NAD_B_1.pdb
 44 48 0 0 0
SMALL
GASTEIGER

@<TRIPOS>ATOM
      1  PA        -6.2290    3.8920   27.8730 P.3   1362  NAD1362     0.2189
      2  O1A       -5.9530    3.5840   29.2940 O.3   1362  NAD1362    -0.4371
      3  O2A       -5.2390    4.6120   27.0920 O.2   1362  NAD1362    -0.5170
      4  O5B       -7.6800    4.5620   27.7240 O.3   1362  NAD1362    -0.3112
      5  C5B       -8.6270    4.5350   28.8830 C.3   1362  NAD1362     0.1813
      6  C4B       -9.2000    5.9620   28.9990 C.3   1362  NAD1362     0.1821
      7  O4B      -10.6120    5.9000   29.3390 O.3   1362  NAD1362    -0.3135
      8  C3B       -8.5210    6.8360   30.0860 C.3   1362  NAD1362     0.2184
      9  O3B       -8.0820    8.0610   29.4590 O.3   1362  NAD1362    -0.2174
     10  C2B       -9.6440    7.1070   31.1060 C.3   1362  NAD1362     0.2570
     11  O2B       -9.6400    8.4540   31.6100 O.3   1362  NAD1362    -0.2130
     12  C1B      -10.9390    6.9810   30.2680 C.3   1362  NAD1362     0.3186
     13  N9A      -12.1110    6.4910   31.0640 N.pl3 1362  NAD1362    -0.1439
     14  C8A      -12.2490    5.4170   31.9170 C.3   1362  NAD1362     0.3377
     15  N7A      -13.4830    5.2970   32.4420 N.2   1362  NAD1362    -0.2095
     16  C5A      -14.1700    6.3570   31.8940 C.2   1362  NAD1362     0.2526
     17  C6A      -15.5280    6.7970   32.0200 C.2   1362  NAD1362     0.4393
     18  N6A      -16.4450    6.1760   32.7750 N.pl3 1362  NAD1362     0.2180
     19  N1A      -15.8800    7.9150   31.3140 N.2   1362  NAD1362     0.0021
     20  C2A      -14.9630    8.5770   30.5220 C.3   1362  NAD1362     0.5254
     21  N3A      -13.6990    8.2320   30.3500 N.2   1362  NAD1362    -0.0055
     22  C4A      -13.3570    7.1110   31.0590 C.2   1362  NAD1362     0.3518
     23  O3        -6.5060    2.4410   27.1910 O.3   1362  NAD1362    -0.2703
     24  PN        -6.4940    1.9890   25.6970 P.3   1362  NAD1362     0.2189
     25  O1N       -5.6770    0.7550   25.5230 O.3   1362  NAD1362    -0.4371
     26  O2N       -6.1870    3.0280   24.7310 O.2   1362  NAD1362    -0.5170
     27  O5D       -8.0810    1.6250   25.4800 O.3   1362  NAD1362    -0.3112
     28  C5D       -8.7700    0.7850   26.4940 C.3   1362  NAD1362     0.1813
     29  C4D       -9.7410   -0.1660   25.7180 C.3   1362  NAD1362     0.1799
     30  O4D       -9.3610   -0.1510   24.2940 O.3   1362  NAD1362    -0.3327
     31  C3D       -9.6690   -1.6620   26.1320 C.3   1362  NAD1362     0.2158
     32  O3D      -10.9710   -2.1940   25.9570 O.3   1362  NAD1362    -0.2175
     33  C2D       -8.6740   -2.2200   25.0940 C.3   1362  NAD1362     0.2309
     34  O2D       -8.8600   -3.6210   24.8900 O.3   1362  NAD1362    -0.2158
     35  C1D       -9.0750   -1.4640   23.8280 C.3   1362  NAD1362     0.2263
     36  N1N       -8.0450   -1.3470   22.7560 N.pl3 1362  NAD1362    -0.2787
     37  C2N       -6.7660   -0.9200   23.1030 C.3   1362  NAD1362     0.1244
     38  C3N       -5.7930   -0.7830   22.1310 C.2   1362  NAD1362     0.0544
     39  C7N       -4.3090   -0.3000   22.3400 C.2   1362  NAD1362     0.2818
     40  O7N       -3.3970   -0.9240   21.7750 O.2   1362  NAD1362    -0.2670
     41  N7N       -4.0920    0.7620   23.1370 N.am  1362  NAD1362    -0.0839
     42  C4N       -6.0490   -1.0620   20.7450 C.2   1362  NAD1362     0.0033
     43  C5N       -7.3610   -1.5070   20.4740 C.2   1362  NAD1362     0.0157
     44  C6N       -8.4070   -1.6740   21.3930 C.2   1362  NAD1362     0.0633
@<TRIPOS>BOND
     1    43    42    1
     2    43    44    2
     3    42    38    2
     4    44    36    1
     5    40    39    2
     6    38    39    1
     7    38    37    1
     8    39    41   am
     9    36    37    1
    10    36    35    1
    11    35    30    1
    12    35    33    1
    13    30    29    1
    14    26    24    2
    15    34    33    1
    16    33    31    1
    17    27    24    1
    18    27    28    1
    19    25    24    1
    20    24    23    1
    21    29    31    1
    22    29    28    1
    23    32    31    1
    24     3     1    2
    25    23     1    1
    26     4     1    1
    27     4     5    1
    28     1     2    1
    29     5     6    1
    30     6     7    1
    31     6     8    1
    32     7    12    1
    33     9     8    1
    34     8    10    1
    35    12    13    1
    36    12    10    1
    37    21    20    1
    38    21    22    2
    39    20    19    1
    40    22    13    1
    41    22    16    1
    42    13    14    1
    43    10    11    1
    44    19    17    2
    45    16    17    1
    46    16    15    2
    47    14    15    1
    48    17    18    1
