@<TRIPOS>MOLECULE
1ml4_PAL_A_1.pdb
 16 15 0 0 0
SMALL
GASTEIGER

@<TRIPOS>ATOM
      1  P         -6.7050   32.3510    2.5570 P.3   385  PAL385      0.1264
      2  O1P       -7.1080   32.7960    3.8900 O.3   385  PAL385     -0.3568
      3  O2P       -5.2350   32.1820    2.4500 O.3   385  PAL385     -0.3568
      4  O3P       -7.1780   33.3230    1.4740 O.2   385  PAL385     -0.4596
      5  C1P       -7.4560   30.7610    2.0170 C.3   385  PAL385      0.1454
      6  C1        -8.8830   30.6860    2.4520 C.2   385  PAL385      0.2492
      7  O1        -9.8100   31.1950    1.7870 O.2   385  PAL385     -0.2728
      8  N2        -9.1440   30.0680    3.5530 N.am  385  PAL385     -0.1946
      9  C2       -10.3850   29.8320    4.1990 C.3   385  PAL385      0.2090
     10  C4       -11.0860   30.9880    4.8310 C.2   385  PAL385      0.3848
     11  O2       -12.1820   30.8310    5.4040 O.co2 385  PAL385     -0.2437
     12  O3       -10.5770   32.1620    4.8040 O.co2 385  PAL385     -0.2437
     13  C3       -10.1790   28.6690    5.2750 C.3   385  PAL385      0.1472
     14  C5        -9.4450   29.0180    6.5900 C.2   385  PAL385      0.3672
     15  O4        -9.0340   30.2120    6.7910 O.co2 385  PAL385     -0.2456
     16  O5        -9.2410   28.1210    7.4900 O.co2 385  PAL385     -0.2456
@<TRIPOS>BOND
     1     4     1    2
     2     7     6    2
     3     5     6    1
     4     5     1    1
     5     3     1    1
     6     6     8   am
     7     1     2    1
     8     8     9    1
     9     9    10    1
    10     9    13    1
    11    12    10   ar
    12    10    11   ar
    13    13    14    1
    14    14    15   ar
    15    14    16   ar
