@<TRIPOS>MOLECULE
1ml6_GBX_A_1.pdb
 43 47 0 0 0
SMALL
GASTEIGER

@<TRIPOS>ATOM
      1  O2        31.4310   12.6860   13.8420 O.2   230  GBX230     -0.2714
      2  C1        27.2640    6.5650   11.3820 C.2   230  GBX230      0.3819
      3  C2        31.5620   12.0840   14.9160 C.2   230  GBX230      0.2626
      4  C3        30.6500   14.6730   17.2530 C.2   230  GBX230      0.3865
      5  N1        25.8630    6.1350   13.4040 N.3   230  GBX230     -0.1208
      6  C7        34.7540    7.6220   19.3860 C.3   230  GBX230      0.2067
      7  N2        30.5950    9.9860   14.0370 N.am  230  GBX230     -0.1969
      8  N3        31.6920   12.6970   16.0920 N.am  230  GBX230     -0.1917
      9  CA1       26.8000    7.0970   12.7580 C.3   230  GBX230      0.1948
     10  O11       27.6260    7.3360   10.4950 O.co2 230  GBX230     -0.2441
     11  O12       27.2610    5.3320   11.2360 O.co2 230  GBX230     -0.2441
     12  CB1       28.0020    7.3260   13.6660 C.3   230  GBX230      0.0402
     13  CG1       28.9220    8.4600   13.2290 C.3   230  GBX230      0.0889
     14  CD1       29.8680    8.9050   14.3230 C.2   230  GBX230      0.2418
     15  OE1       29.9320    8.2920   15.4030 O.2   230  GBX230     -0.2733
     16  CA2       31.5790   10.5590   14.9570 C.3   230  GBX230      0.1834
     17  CB2       32.9830   10.0390   14.6230 C.3   230  GBX230      0.0890
     18  SG2       34.1510   10.1260   15.9930 S.3   230  GBX230     -0.1316
     19  CA3       31.7010   14.1500   16.2800 C.3   230  GBX230      0.2285
     20  O31       30.5840   15.8790   17.5050 O.co2 230  GBX230     -0.2437
     21  O32       29.8710   13.8490   17.7780 O.co2 230  GBX230     -0.2437
     22  O7        34.4260    8.6510   19.9990 O.3   230  GBX230     -0.2155
     23  C8        33.7570    7.0990   18.7740 C.3   230  GBX230      0.2176
     24  O8        33.9940    5.9290   18.4290 O.3   230  GBX230     -0.2173
     25  C9        33.2160    7.9690   17.5530 C.3   230  GBX230      0.1989
     26  O9        32.1730    7.2500   16.8830 O.3   230  GBX230     -0.2190
     27  C10       34.3420    8.3810   16.4910 C.3   230  GBX230      0.1026
     28  C1'       37.2700    7.7600   19.0270 C.ar  230  GBX230     -0.0020
     29  C2'       35.9510    7.8650   18.4780 C.ar  230  GBX230      0.0072
     30  C3'       35.7610    8.2240   17.0770 C.ar  230  GBX230     -0.0114
     31  C4'       36.8080    8.6950   14.8210 C.ar  230  GBX230     -0.0003
     32  C5'       37.9610    8.9320   14.0190 C.ar  230  GBX230     -0.0000
     33  C6'       40.3950    9.1490   13.7990 C.ar  230  GBX230     -0.0000
     34  C7'       41.6950    9.0890   14.3800 C.ar  230  GBX230      0.0000
     35  C8'       41.8640    8.7560   15.7650 C.ar  230  GBX230     -0.0000
     36  C9'       40.8800    8.1460   17.9610 C.ar  230  GBX230     -0.0000
     37  C9A       39.7250    7.8960   18.7760 C.ar  230  GBX230     -0.0000
     38  C11       38.4120    7.9880   18.2150 C.ar  230  GBX230     -0.0003
     39  C12       38.2480    8.3180   16.8140 C.ar  230  GBX230     -0.0003
     40  C13       36.9320    8.4250   16.2350 C.ar  230  GBX230     -0.0033
     41  C16       39.2500    8.8890   14.5930 C.ar  230  GBX230     -0.0000
     42  C17       39.4070    8.5640   15.9960 C.ar  230  GBX230     -0.0000
     43  C18       40.7270    8.4890   16.5770 C.ar  230  GBX230     -0.0000
@<TRIPOS>BOND
     1    10     2   ar
     2    11     2   ar
     3     2     9    1
     4     9     5    1
     5     9    12    1
     6    13    12    1
     7    13    14    1
     8    33    34   ar
     9    33    41   ar
    10     1     3    2
    11    32    41   ar
    12    32    31   ar
    13     7    14   am
    14     7    16    1
    15    14    15    2
    16    34    35   ar
    17    41    42   ar
    18    17    16    1
    19    17    18    1
    20    31    40   ar
    21     3    16    1
    22     3     8   am
    23    35    43   ar
    24    18    27    1
    25    42    43   ar
    26    42    39   ar
    27     8    19    1
    28    40    39   ar
    29    40    30   ar
    30    19     4    1
    31    27    30    1
    32    27    25    1
    33    43    36   ar
    34    39    38   ar
    35    26    25    1
    36    30    29   ar
    37     4    20   ar
    38     4    21   ar
    39    25    23    1
    40    36    37   ar
    41    38    37   ar
    42    38    28   ar
    43    24    23    1
    44    29    28   ar
    45    29     6    1
    46    23     6    1
    47     6    22    1
