@<TRIPOS>MOLECULE
1ml7_HEV_A_1.pdb
 45 52 0 0 0
SMALL
GASTEIGER

@<TRIPOS>ATOM
      1 FE         11.1110   20.2440   36.4100 Fe    185  HEV185      0.0000
      2  CHA       11.5750   23.2200   34.8040 C.2   185  HEV185      0.0000
      3  CHB        7.7140   20.5930   36.0730 C.2   185  HEV185      0.0000
      4  CHC       10.6770   17.4700   38.2630 C.2   185  HEV185      0.0000
      5  CHD       14.5340   19.8350   36.5550 C.2   185  HEV185      0.0000
      6  NA         9.9360   21.5710   35.5750 N.ar  185  HEV185      0.0000
      7  C1A       10.2910   22.7900   35.0370 C.ar  185  HEV185      0.0000
      8  C2A        9.0900   23.5570   34.6600 C.ar  185  HEV185      0.0000
      9  C3A        8.0170   22.8150   35.0000 C.ar  185  HEV185      0.0000
     10  C4A        8.5430   21.5850   35.5920 C.ar  185  HEV185      0.0000
     11  CMA        6.5320   23.2280   34.9150 C.3   185  HEV185      0.0000
     12  CAA        9.0680   24.9740   34.0670 C.3   185  HEV185      0.0000
     13  CBA        8.8700   25.9940   35.1920 C.3   185  HEV185      0.0000
     14  CGA        8.8660   27.4340   34.6990 C.2   185  HEV185      0.0000
     15  O1A        9.5970   27.7370   33.7350 O.co2 185  HEV185      0.0000
     16  O2A        8.0720   28.2250   35.2970 O.co2 185  HEV185      0.0000
     17  NB         9.5260   19.1950   37.0220 N.2   185  HEV185      0.0000
     18  C1B        8.1670   19.4690   36.8110 C.2   185  HEV185      0.0000
     19  C2B        7.3120   18.4330   37.3890 C.2   185  HEV185      0.0000
     20  C3B        8.1840   17.5380   38.0410 C.2   185  HEV185      0.0000
     21  C4B        9.5210   18.0870   37.8180 C.2   185  HEV185      0.0000
     22  CMB        5.8160   18.3340   37.2270 C.3   185  HEV185      0.0000
     23  CM1        4.8950   18.0730   38.2400 C.3   185  HEV185      0.0000
     24  CAB        7.9040   16.3590   38.8210 C.2   185  HEV185      0.0000
     25  CBB        6.7680   16.0650   39.4540 C.2   185  HEV185      0.0000
     26  NC        12.3910   18.9530   37.2830 N.ar  185  HEV185      0.0000
     27  C1C       11.9940   17.9310   38.0170 C.ar  185  HEV185      0.0000
     28  C2C       13.1920   17.1040   38.3790 C.ar  185  HEV185      0.0000
     29  C3C       14.2560   17.7230   37.9710 C.ar  185  HEV185      0.0000
     30  C4C       13.7270   18.9330   37.2150 C.ar  185  HEV185      0.0000
     31  CMC       13.0730   15.8480   39.2730 C.3   185  HEV185      0.0000
     32  CM2       13.7890   15.8280   40.4670 C.3   185  HEV185      0.0000
     33  CAC       15.5790   17.3540   37.9410 C.3   185  HEV185      0.0000
     34  CBC       15.6870   16.1900   37.3040 C.3   185  HEV185      0.0000
     35  ND        12.7110   21.3250   35.8100 N.2   185  HEV185      0.0000
     36  C1D       14.0900   20.9840   35.9540 C.2   185  HEV185      0.0000
     37  C2D       14.8890   21.9910   35.3290 C.2   185  HEV185      0.0000
     38  C3D       14.0540   22.9060   34.7610 C.2   185  HEV185      0.0000
     39  C4D       12.7050   22.5410   35.1160 C.2   185  HEV185      0.0000
     40  CMD       16.4150   21.9900   35.3770 C.3   185  HEV185      0.0000
     41  CAD       14.4100   24.1190   33.9450 C.3   185  HEV185      0.0000
     42  CBD       14.0810   23.8580   32.5020 C.3   185  HEV185      0.0000
     43  CGD       14.5780   24.9180   31.6190 C.2   185  HEV185      0.0000
     44  O1D       15.5150   24.6590   30.8070 O.co2 185  HEV185      0.0000
     45  O2D       14.0750   26.0510   31.6670 O.co2 185  HEV185      0.0000
@<TRIPOS>BOND
     1    44    43   ar
     2    43    45   ar
     3    43    42    1
     4    42    41    1
     5    15    14   ar
     6    41    38    1
     7    12     8    1
     8    12    13    1
     9     8     9   ar
    10     8     7   ar
    11    14    13    1
    12    14    16   ar
    13    38    39    1
    14    38    37    2
    15     2     7    2
    16     2    39    1
    17    11     9    1
    18     9    10   ar
    19     7     6   ar
    20    39    35    2
    21    37    40    1
    22    37    36    1
    23     6    10   ar
    24     6     1    1
    25    10     3    2
    26    35    36    1
    27    35     1    1
    28    36     5    2
    29     3    18    1
    30     1    17    1
    31     1    26    1
    32     5    30    1
    33    18    17    2
    34    18    19    1
    35    17    21    1
    36    30    26   ar
    37    30    29   ar
    38    22    19    1
    39    22    23    1
    40    26    27   ar
    41    34    33    1
    42    19    20    2
    43    21    20    1
    44    21     4    2
    45    33    29    1
    46    29    28   ar
    47    27     4    1
    48    27    28   ar
    49    20    24    1
    50    28    31    1
    51    24    25    2
    52    31    32    1
