@<TRIPOS>MOLECULE
1mld_CIT_A_1.pdb
 13 12 0 0 0
SMALL
GASTEIGER

@<TRIPOS>ATOM
      1  C1        71.7980   64.8830   12.6170 C.2   375  CIT375      0.3680
      2  O1        73.0170   65.0330   12.6450 O.co2 375  CIT375     -0.2455
      3  O2        71.0670   65.8610   12.5840 O.co2 375  CIT375     -0.2455
      4  C2        71.2090   63.5020   12.3340 C.3   375  CIT375      0.1560
      5  C3        72.0140   62.2470   12.7930 C.3   375  CIT375      0.2402
      6  O7        72.3540   62.4760   14.1660 O.3   375  CIT375     -0.2129
      7  C4        71.1330   60.9900   12.6990 C.3   375  CIT375      0.1560
      8  C5        69.7860   61.0900   13.3420 C.2   375  CIT375      0.3680
      9  O3        69.6890   61.1950   14.5480 O.co2 375  CIT375     -0.2455
     10  O4        68.6250   61.0760   12.6220 O.co2 375  CIT375     -0.2455
     11  C6        73.3000   62.0930   11.9940 C.2   375  CIT375      0.3927
     12  O5        74.3690   61.9460   12.5360 O.co2 375  CIT375     -0.2429
     13  O6        73.2550   62.0730   10.7710 O.co2 375  CIT375     -0.2429
@<TRIPOS>BOND
     1    13    11   ar
     2    11    12   ar
     3    11     5    1
     4     4     1    1
     5     4     5    1
     6     3     1   ar
     7     1     2   ar
     8    10     8   ar
     9     7     5    1
    10     7     8    1
    11     5     6    1
    12     8     9   ar
