@<TRIPOS>MOLECULE
1mlf_HEM_A_1.pdb
 43 50 0 0 0
SMALL
GASTEIGER

@<TRIPOS>ATOM
      1  CHA       37.8540    2.5150   11.3860 C.2   154  HEM154      0.0000
      2  CHB       37.1190    5.5430    7.6650 C.2   154  HEM154      0.0000
      3  CHC       32.5040    6.2860    9.0960 C.2   154  HEM154      0.0000
      4  CHD       33.3150    3.3570   12.9230 C.2   154  HEM154      0.0000
      5  C1A       37.9710    3.2880   10.2710 C.ar  154  HEM154      0.0000
      6  C2A       39.2510    3.3440    9.4990 C.ar  154  HEM154      0.0000
      7  C3A       39.0030    4.2260    8.3820 C.ar  154  HEM154      0.0000
      8  C4A       37.6440    4.6600    8.5310 C.ar  154  HEM154      0.0000
      9  CMA       39.9310    4.5100    7.2050 C.3   154  HEM154      0.0000
     10  CAA       40.5290    2.4150    9.7070 C.3   154  HEM154      0.0000
     11  CBA       40.6380    1.2140    8.7660 C.3   154  HEM154      0.0000
     12  CGA       39.4210    0.2900    8.7890 C.2   154  HEM154      0.0000
     13  O1A       39.0520   -0.1900    9.8620 O.co2 154  HEM154      0.0000
     14  O2A       38.6980    0.2500    7.7800 O.co2 154  HEM154      0.0000
     15  C1B       35.7240    6.0410    7.7870 C.2   154  HEM154      0.0000
     16  C2B       35.1590    6.9230    6.7520 C.2   154  HEM154      0.0000
     17  C3B       33.8730    7.0590    7.1130 C.2   154  HEM154      0.0000
     18  C4B       33.7000    6.2750    8.3570 C.2   154  HEM154      0.0000
     19  CMB       35.8840    7.4760    5.4640 C.3   154  HEM154      0.0000
     20  CAB       32.9120    7.9110    6.3800 C.3   154  HEM154      0.0000
     21  CBB       33.1430    9.3130    6.0800 C.3   154  HEM154      0.0000
     22  C1C       32.4350    5.6070   10.2740 C.ar  154  HEM154      0.0000
     23  C2C       31.2740    5.6780   11.0870 C.ar  154  HEM154      0.0000
     24  C3C       31.4370    4.8450   12.2000 C.ar  154  HEM154      0.0000
     25  C4C       32.7570    4.2420   11.9880 C.ar  154  HEM154      0.0000
     26  CMC       30.1580    6.5610   10.7920 C.3   154  HEM154      0.0000
     27  CAC       30.6690    4.6210   13.4130 C.3   154  HEM154      0.0000
     28  CBC       29.5430    5.2710   14.0280 C.3   154  HEM154      0.0000
     29  C1D       34.6270    2.9710   12.8850 C.2   154  HEM154      0.0000
     30  C2D       35.2190    2.0520   13.8130 C.2   154  HEM154      0.0000
     31  C3D       36.5050    1.9070   13.3710 C.2   154  HEM154      0.0000
     32  C4D       36.6830    2.5360   12.1390 C.2   154  HEM154      0.0000
     33  CMD       34.4630    1.3390   15.0000 C.3   154  HEM154      0.0000
     34  CAD       37.5910    1.2290   14.1730 C.3   154  HEM154      0.0000
     35  CBD       38.2340    2.2280   15.1540 C.3   154  HEM154      0.0000
     36  CGD       39.4450    1.6310   15.9030 C.2   154  HEM154      0.0000
     37  O1D       39.2220    0.9670   16.9030 O.co2 154  HEM154      0.0000
     38  O2D       40.4300    1.3290   15.2580 O.co2 154  HEM154      0.0000
     39  NA        37.0120    4.1140    9.6750 N.ar  154  HEM154      0.0000
     40  NB        34.8010    5.6620    8.6960 N.2   154  HEM154      0.0000
     41  NC        33.3420    4.7540   10.8050 N.ar  154  HEM154      0.0000
     42  ND        35.5360    3.2170   11.7610 N.2   154  HEM154      0.0000
     43 FE         35.1880    4.4690   10.1660 Fe    154  HEM154      0.0000
@<TRIPOS>BOND
     1    19    16    1
     2    21    20    1
     3    20    17    1
     4    16    17    2
     5    16    15    1
     6    17    18    1
     7     9     7    1
     8     2    15    1
     9     2     8    2
    10    14    12   ar
    11    15    40    2
    12    18    40    1
    13    18     3    2
    14     7     8   ar
    15     7     6   ar
    16     8    39   ar
    17    40    43    1
    18    11    12    1
    19    11    10    1
    20    12    13   ar
    21     3    22    1
    22     6    10    1
    23     6     5   ar
    24    39    43    1
    25    39     5   ar
    26    43    41    1
    27    43    42    1
    28     5     1    2
    29    22    41   ar
    30    22    23   ar
    31    26    23    1
    32    41    25   ar
    33    23    24   ar
    34     1    32    1
    35    42    32    2
    36    42    29    1
    37    25    24   ar
    38    25     4    1
    39    32    31    1
    40    24    27    1
    41    29     4    2
    42    29    30    1
    43    31    30    2
    44    31    34    1
    45    27    28    1
    46    30    33    1
    47    34    35    1
    48    35    36    1
    49    38    36   ar
    50    36    37   ar
