@<TRIPOS>MOLECULE
1mlg_HEM_A_1.pdb
 43 50 0 0 0
SMALL
GASTEIGER

@<TRIPOS>ATOM
      1  CHA       37.8040    2.5310   11.2500 C.2   154  HEM154      0.0000
      2  CHB       37.1020    5.6570    7.6170 C.2   154  HEM154      0.0000
      3  CHC       32.5030    6.6090    9.1280 C.2   154  HEM154      0.0000
      4  CHD       33.3960    3.5270   12.8580 C.2   154  HEM154      0.0000
      5  C1A       37.9870    3.3860   10.1270 C.ar  154  HEM154      0.0000
      6  C2A       39.2950    3.3900    9.3250 C.ar  154  HEM154      0.0000
      7  C3A       39.0090    4.2420    8.2340 C.ar  154  HEM154      0.0000
      8  C4A       37.6680    4.7500    8.4430 C.ar  154  HEM154      0.0000
      9  CMA       39.9500    4.5000    7.0540 C.3   154  HEM154      0.0000
     10  CAA       40.5720    2.4320    9.5030 C.3   154  HEM154      0.0000
     11  CBA       40.6160    1.1920    8.5960 C.3   154  HEM154      0.0000
     12  CGA       39.3450    0.3490    8.6480 C.2   154  HEM154      0.0000
     13  O1A       39.0050   -0.1450    9.7200 O.co2 154  HEM154      0.0000
     14  O2A       38.6380    0.2700    7.6360 O.co2 154  HEM154      0.0000
     15  C1B       35.7150    6.1010    7.6850 C.2   154  HEM154      0.0000
     16  C2B       35.1460    7.1060    6.6980 C.2   154  HEM154      0.0000
     17  C3B       33.9260    7.3640    7.1180 C.2   154  HEM154      0.0000
     18  C4B       33.7310    6.5340    8.3650 C.2   154  HEM154      0.0000
     19  CMB       35.8370    7.6560    5.4120 C.3   154  HEM154      0.0000
     20  CAB       32.9490    8.2460    6.5880 C.3   154  HEM154      0.0000
     21  CBB       33.1390    9.6070    6.1310 C.3   154  HEM154      0.0000
     22  C1C       32.3800    5.8250   10.3610 C.ar  154  HEM154      0.0000
     23  C2C       31.3160    5.9660   11.2700 C.ar  154  HEM154      0.0000
     24  C3C       31.5320    5.1070   12.3190 C.ar  154  HEM154      0.0000
     25  C4C       32.7450    4.3830   11.9580 C.ar  154  HEM154      0.0000
     26  CMC       30.0800    6.8560   10.9670 C.3   154  HEM154      0.0000
     27  CAC       30.8410    4.8820   13.6650 C.3   154  HEM154      0.0000
     28  CBC       29.5350    5.3380   14.0840 C.3   154  HEM154      0.0000
     29  C1D       34.7400    3.1220   12.8080 C.2   154  HEM154      0.0000
     30  C2D       35.3190    2.1290   13.7500 C.2   154  HEM154      0.0000
     31  C3D       36.5740    1.8800   13.2950 C.2   154  HEM154      0.0000
     32  C4D       36.7230    2.5840   12.0240 C.2   154  HEM154      0.0000
     33  CMD       34.6360    1.5070   15.0080 C.3   154  HEM154      0.0000
     34  CAD       37.6570    1.2710   14.1090 C.3   154  HEM154      0.0000
     35  CBD       38.3210    2.3110   15.0310 C.3   154  HEM154      0.0000
     36  CGD       39.5660    1.7530   15.7410 C.2   154  HEM154      0.0000
     37  O1D       39.5020    0.5850   16.1050 O.co2 154  HEM154      0.0000
     38  O2D       40.6630    2.2060   15.4250 O.co2 154  HEM154      0.0000
     39  NA        37.0130    4.1830    9.5520 N.ar  154  HEM154      0.0000
     40  NB        34.8510    5.7810    8.6630 N.2   154  HEM154      0.0000
     41  NC        33.3190    4.8600   10.7800 N.ar  154  HEM154      0.0000
     42  ND        35.6000    3.3610   11.7330 N.2   154  HEM154      0.0000
     43 FE         35.1320    4.3280   10.0890 Fe    154  HEM154      0.0000
@<TRIPOS>BOND
     1    19    16    1
     2    21    20    1
     3    20    17    1
     4    16    17    2
     5    16    15    1
     6     9     7    1
     7    17    18    1
     8     2    15    1
     9     2     8    2
    10    14    12   ar
    11    15    40    2
    12     7     8   ar
    13     7     6   ar
    14    18    40    1
    15    18     3    2
    16     8    39   ar
    17    11    12    1
    18    11    10    1
    19    12    13   ar
    20    40    43    1
    21     3    22    1
    22     6    10    1
    23     6     5   ar
    24    39    43    1
    25    39     5   ar
    26    43    41    1
    27    43    42    1
    28     5     1    2
    29    22    41   ar
    30    22    23   ar
    31    41    25   ar
    32    26    23    1
    33     1    32    1
    34    23    24   ar
    35    42    32    2
    36    42    29    1
    37    25    24   ar
    38    25     4    1
    39    32    31    1
    40    24    27    1
    41    29     4    2
    42    29    30    1
    43    31    30    2
    44    31    34    1
    45    27    28    1
    46    30    33    1
    47    34    35    1
    48    35    36    1
    49    38    36   ar
    50    36    37   ar
