@<TRIPOS>MOLECULE
1mlh_HEM_A_1.pdb
 43 50 0 0 0
SMALL
GASTEIGER

@<TRIPOS>ATOM
      1  CHA       37.8920    2.5100   11.3510 C.2   154  HEM154      0.0000
      2  CHB       37.1320    5.5120    7.6560 C.2   154  HEM154      0.0000
      3  CHC       32.4600    6.2970    9.0350 C.2   154  HEM154      0.0000
      4  CHD       33.3710    3.4170   12.8910 C.2   154  HEM154      0.0000
      5  C1A       38.0290    3.2580   10.2120 C.ar  154  HEM154      0.0000
      6  C2A       39.2890    3.2430    9.4140 C.ar  154  HEM154      0.0000
      7  C3A       39.0390    4.1280    8.3510 C.ar  154  HEM154      0.0000
      8  C4A       37.6740    4.6230    8.5130 C.ar  154  HEM154      0.0000
      9  CMA       40.0570    4.5590    7.2250 C.3   154  HEM154      0.0000
     10  CAA       40.5710    2.3250    9.5980 C.3   154  HEM154      0.0000
     11  CBA       40.6210    1.0870    8.7110 C.3   154  HEM154      0.0000
     12  CGA       39.3340    0.2800    8.7440 C.2   154  HEM154      0.0000
     13  O1A       38.9650   -0.2910    9.8380 O.co2 154  HEM154      0.0000
     14  O2A       38.6620    0.2270    7.6910 O.co2 154  HEM154      0.0000
     15  C1B       35.8120    5.9740    7.7320 C.2   154  HEM154      0.0000
     16  C2B       35.2530    6.9270    6.7240 C.2   154  HEM154      0.0000
     17  C3B       33.9270    7.1380    7.1490 C.2   154  HEM154      0.0000
     18  C4B       33.7290    6.3240    8.3540 C.2   154  HEM154      0.0000
     19  CMB       35.8320    7.4120    5.3560 C.3   154  HEM154      0.0000
     20  CAB       32.9280    7.9490    6.4480 C.3   154  HEM154      0.0000
     21  CBB       33.2570    9.3460    6.1840 C.3   154  HEM154      0.0000
     22  C1C       32.4120    5.6470   10.2670 C.ar  154  HEM154      0.0000
     23  C2C       31.3140    5.7120   11.1340 C.ar  154  HEM154      0.0000
     24  C3C       31.5230    4.9000   12.2330 C.ar  154  HEM154      0.0000
     25  C4C       32.7850    4.2630   11.9710 C.ar  154  HEM154      0.0000
     26  CMC       30.1080    6.5070   10.8130 C.3   154  HEM154      0.0000
     27  CAC       30.6730    4.6130   13.4380 C.3   154  HEM154      0.0000
     28  CBC       29.5440    5.2920   14.0230 C.3   154  HEM154      0.0000
     29  C1D       34.6560    2.9110   12.8540 C.2   154  HEM154      0.0000
     30  C2D       35.1650    1.9390   13.8200 C.2   154  HEM154      0.0000
     31  C3D       36.4590    1.7000   13.3710 C.2   154  HEM154      0.0000
     32  C4D       36.6770    2.4570   12.0750 C.2   154  HEM154      0.0000
     33  CMD       34.4910    1.3260   15.0570 C.3   154  HEM154      0.0000
     34  CAD       37.5950    1.1150   14.1870 C.3   154  HEM154      0.0000
     35  CBD       38.3030    2.1610   15.0670 C.3   154  HEM154      0.0000
     36  CGD       39.4410    1.5770   15.9420 C.2   154  HEM154      0.0000
     37  O1D       39.1400    0.8270   16.8720 O.co2 154  HEM154      0.0000
     38  O2D       40.5580    1.5230   15.4930 O.co2 154  HEM154      0.0000
     39  NA        37.0260    4.0150    9.6390 N.ar  154  HEM154      0.0000
     40  NB        34.8990    5.6540    8.6870 N.2   154  HEM154      0.0000
     41  NC        33.3740    4.7260   10.7290 N.ar  154  HEM154      0.0000
     42  ND        35.5810    3.1150   11.7570 N.2   154  HEM154      0.0000
     43 FE         35.2140    4.3490   10.1860 Fe    154  HEM154      0.0000
@<TRIPOS>BOND
     1    19    16    1
     2    21    20    1
     3    20    17    1
     4    16    17    2
     5    16    15    1
     6    17    18    1
     7     9     7    1
     8     2    15    1
     9     2     8    2
    10    14    12   ar
    11    15    40    2
    12     7     8   ar
    13     7     6   ar
    14    18    40    1
    15    18     3    2
    16     8    39   ar
    17    40    43    1
    18    11    12    1
    19    11    10    1
    20    12    13   ar
    21     3    22    1
    22     6    10    1
    23     6     5   ar
    24    39    43    1
    25    39     5   ar
    26    43    41    1
    27    43    42    1
    28     5     1    2
    29    22    41   ar
    30    22    23   ar
    31    41    25   ar
    32    26    23    1
    33    23    24   ar
    34     1    32    1
    35    42    32    2
    36    42    29    1
    37    25    24   ar
    38    25     4    1
    39    32    31    1
    40    24    27    1
    41    29     4    2
    42    29    30    1
    43    31    30    2
    44    31    34    1
    45    27    28    1
    46    30    33    1
    47    34    35    1
    48    35    36    1
    49    38    36   ar
    50    36    37   ar
