@<TRIPOS>MOLECULE
1mlj_HEM_A_1.pdb
 43 50 0 0 0
SMALL
GASTEIGER

@<TRIPOS>ATOM
      1  CHA       37.8370    2.5170   11.4650 C.2   154  HEM154      0.0000
      2  CHB       37.1110    5.5640    7.6700 C.2   154  HEM154      0.0000
      3  CHC       32.3670    6.3000    8.8920 C.2   154  HEM154      0.0000
      4  CHD       33.3020    3.3710   12.8840 C.2   154  HEM154      0.0000
      5  C1A       37.9400    3.3160   10.3060 C.ar  154  HEM154      0.0000
      6  C2A       39.2470    3.4470    9.5460 C.ar  154  HEM154      0.0000
      7  C3A       39.0550    4.2860    8.4430 C.ar  154  HEM154      0.0000
      8  C4A       37.6420    4.7270    8.6260 C.ar  154  HEM154      0.0000
      9  CMA       39.8930    4.5310    7.2300 C.3   154  HEM154      0.0000
     10  CAA       40.4540    2.5070    9.8180 C.3   154  HEM154      0.0000
     11  CBA       40.5470    1.2550    8.9600 C.3   154  HEM154      0.0000
     12  CGA       39.2580    0.4170    8.9070 C.2   154  HEM154      0.0000
     13  O1A       38.9040   -0.1770    9.9550 O.co2 154  HEM154      0.0000
     14  O2A       38.6730    0.2740    7.7950 O.co2 154  HEM154      0.0000
     15  C1B       35.7140    5.8860    7.6340 C.2   154  HEM154      0.0000
     16  C2B       35.1900    6.8570    6.7050 C.2   154  HEM154      0.0000
     17  C3B       33.9140    7.0870    7.0580 C.2   154  HEM154      0.0000
     18  C4B       33.6410    6.2890    8.2160 C.2   154  HEM154      0.0000
     19  CMB       35.8470    7.3520    5.3570 C.3   154  HEM154      0.0000
     20  CAB       32.9260    7.7840    6.3310 C.3   154  HEM154      0.0000
     21  CBB       32.7090    9.0210    5.6330 C.3   154  HEM154      0.0000
     22  C1C       32.3110    5.6070   10.1650 C.ar  154  HEM154      0.0000
     23  C2C       31.1240    5.6700   10.9810 C.ar  154  HEM154      0.0000
     24  C3C       31.3260    4.8870   12.1810 C.ar  154  HEM154      0.0000
     25  C4C       32.6650    4.2770   11.9670 C.ar  154  HEM154      0.0000
     26  CMC       29.9370    6.5240   10.6200 C.3   154  HEM154      0.0000
     27  CAC       30.5100    4.7070   13.3920 C.3   154  HEM154      0.0000
     28  CBC       29.2930    5.3600   13.8150 C.3   154  HEM154      0.0000
     29  C1D       34.5880    3.0160   12.8100 C.2   154  HEM154      0.0000
     30  C2D       35.1570    2.1130   13.7030 C.2   154  HEM154      0.0000
     31  C3D       36.4490    1.8850   13.3650 C.2   154  HEM154      0.0000
     32  C4D       36.6460    2.5970   12.1750 C.2   154  HEM154      0.0000
     33  CMD       34.3020    1.4960   14.9040 C.3   154  HEM154      0.0000
     34  CAD       37.4890    1.3610   14.2610 C.3   154  HEM154      0.0000
     35  CBD       38.1950    2.4060   15.1590 C.3   154  HEM154      0.0000
     36  CGD       39.4110    1.8060   15.9070 C.2   154  HEM154      0.0000
     37  O1D       39.2430    1.2780   17.0040 O.co2 154  HEM154      0.0000
     38  O2D       40.3410    1.3740   15.2460 O.co2 154  HEM154      0.0000
     39  NA        36.9700    4.0700    9.7180 N.ar  154  HEM154      0.0000
     40  NB        34.8390    5.5630    8.5920 N.2   154  HEM154      0.0000
     41  NC        33.2320    4.7490   10.7660 N.ar  154  HEM154      0.0000
     42  ND        35.5110    3.2680   11.7790 N.2   154  HEM154      0.0000
     43 FE         35.0950    4.4920   10.2300 Fe    154  HEM154      0.0000
@<TRIPOS>BOND
     1    19    16    1
     2    21    20    1
     3    20    17    1
     4    16    17    2
     5    16    15    1
     6    17    18    1
     7     9     7    1
     8    15     2    1
     9    15    40    2
    10     2     8    2
    11    14    12   ar
    12    18    40    1
    13    18     3    2
    14     7     8   ar
    15     7     6   ar
    16    40    43    1
    17     8    39   ar
    18     3    22    1
    19    12    11    1
    20    12    13   ar
    21    11    10    1
    22     6    10    1
    23     6     5   ar
    24    39    43    1
    25    39     5   ar
    26    22    41   ar
    27    22    23   ar
    28    43    41    1
    29    43    42    1
    30     5     1    2
    31    26    23    1
    32    41    25   ar
    33    23    24   ar
    34     1    32    1
    35    42    32    2
    36    42    29    1
    37    25    24   ar
    38    25     4    1
    39    32    31    1
    40    24    27    1
    41    29     4    2
    42    29    30    1
    43    31    30    2
    44    31    34    1
    45    27    28    1
    46    30    33    1
    47    34    35    1
    48    35    36    1
    49    38    36   ar
    50    36    37   ar
