@<TRIPOS>MOLECULE
1mlk_HEM_A_1.pdb
 43 50 0 0 0
SMALL
GASTEIGER

@<TRIPOS>ATOM
      1  CHA       37.8580    2.6130   11.2300 C.2   154  HEM154      0.0000
      2  CHB       37.0430    5.6050    7.4290 C.2   154  HEM154      0.0000
      3  CHC       32.5590    6.4980    8.8940 C.2   154  HEM154      0.0000
      4  CHD       33.4270    3.6160   12.7350 C.2   154  HEM154      0.0000
      5  C1A       37.9820    3.3900   10.0790 C.ar  154  HEM154      0.0000
      6  C2A       39.2540    3.3890    9.2770 C.ar  154  HEM154      0.0000
      7  C3A       38.9780    4.2280    8.1870 C.ar  154  HEM154      0.0000
      8  C4A       37.6080    4.7230    8.3530 C.ar  154  HEM154      0.0000
      9  CMA       39.9710    4.5790    7.0750 C.3   154  HEM154      0.0000
     10  CAA       40.4840    2.4560    9.4630 C.3   154  HEM154      0.0000
     11  CBA       40.5600    1.2180    8.5800 C.3   154  HEM154      0.0000
     12  CGA       39.3330    0.3290    8.6730 C.2   154  HEM154      0.0000
     13  O1A       39.0560   -0.2030    9.7680 O.co2 154  HEM154      0.0000
     14  O2A       38.5650    0.2730    7.6860 O.co2 154  HEM154      0.0000
     15  C1B       35.7280    6.0830    7.4950 C.2   154  HEM154      0.0000
     16  C2B       35.1430    7.0340    6.5180 C.2   154  HEM154      0.0000
     17  C3B       33.8940    7.3730    6.9420 C.2   154  HEM154      0.0000
     18  C4B       33.7390    6.4970    8.1600 C.2   154  HEM154      0.0000
     19  CMB       35.8690    7.5430    5.2460 C.3   154  HEM154      0.0000
     20  CAB       32.8730    8.1120    6.3820 C.3   154  HEM154      0.0000
     21  CBB       33.0810    9.4880    6.0340 C.3   154  HEM154      0.0000
     22  C1C       32.4590    5.8050   10.1720 C.ar  154  HEM154      0.0000
     23  C2C       31.3400    5.9670   11.0830 C.ar  154  HEM154      0.0000
     24  C3C       31.5350    5.1350   12.1430 C.ar  154  HEM154      0.0000
     25  C4C       32.8080    4.5130   11.8820 C.ar  154  HEM154      0.0000
     26  CMC       30.0640    6.8390   10.7620 C.3   154  HEM154      0.0000
     27  CAC       30.7430    4.9140   13.4400 C.3   154  HEM154      0.0000
     28  CBC       29.5090    5.4790   13.9470 C.3   154  HEM154      0.0000
     29  C1D       34.7280    3.1340   12.7030 C.2   154  HEM154      0.0000
     30  C2D       35.3240    2.2450   13.6930 C.2   154  HEM154      0.0000
     31  C3D       36.5230    1.9260   13.2970 C.2   154  HEM154      0.0000
     32  C4D       36.7580    2.6370   12.0280 C.2   154  HEM154      0.0000
     33  CMD       34.5320    1.7060   14.9010 C.3   154  HEM154      0.0000
     34  CAD       37.6330    1.2940   14.1070 C.3   154  HEM154      0.0000
     35  CBD       38.4080    2.4050   14.8350 C.3   154  HEM154      0.0000
     36  CGD       39.4740    1.8770   15.7900 C.2   154  HEM154      0.0000
     37  O1D       39.1600    0.8970   16.4580 O.co2 154  HEM154      0.0000
     38  O2D       40.6480    2.0290   15.4900 O.co2 154  HEM154      0.0000
     39  NA        36.9380    4.1700    9.5450 N.ar  154  HEM154      0.0000
     40  NB        34.8400    5.8150    8.4500 N.2   154  HEM154      0.0000
     41  NC        33.4010    4.9360   10.6410 N.ar  154  HEM154      0.0000
     42  ND        35.6920    3.3330   11.7000 N.2   154  HEM154      0.0000
     43 FE         35.0920    4.3570    9.9870 Fe    154  HEM154      0.0000
@<TRIPOS>BOND
     1    19    16    1
     2    21    20    1
     3    20    17    1
     4    16    17    2
     5    16    15    1
     6    17    18    1
     7     9     7    1
     8     2    15    1
     9     2     8    2
    10    15    40    2
    11    14    12   ar
    12    18    40    1
    13    18     3    2
    14     7     8   ar
    15     7     6   ar
    16     8    39   ar
    17    40    43    1
    18    11    12    1
    19    11    10    1
    20    12    13   ar
    21     3    22    1
    22     6    10    1
    23     6     5   ar
    24    39    43    1
    25    39     5   ar
    26    43    41    1
    27    43    42    1
    28     5     1    2
    29    22    41   ar
    30    22    23   ar
    31    41    25   ar
    32    26    23    1
    33    23    24   ar
    34     1    32    1
    35    42    32    2
    36    42    29    1
    37    25    24   ar
    38    25     4    1
    39    32    31    1
    40    24    27    1
    41    29     4    2
    42    29    30    1
    43    31    30    2
    44    31    34    1
    45    27    28    1
    46    30    33    1
    47    34    35    1
    48    35    36    1
    49    38    36   ar
    50    36    37   ar
