@<TRIPOS>MOLECULE
1mll_HEM_A_1.pdb
 43 50 0 0 0
SMALL
GASTEIGER

@<TRIPOS>ATOM
      1  CHA       37.8360    2.5240   11.3880 C.2   154  HEM154      0.0000
      2  CHB       37.1460    5.4450    7.5380 C.2   154  HEM154      0.0000
      3  CHC       32.5530    6.2360    9.0000 C.2   154  HEM154      0.0000
      4  CHD       33.2850    3.4320   12.9020 C.2   154  HEM154      0.0000
      5  C1A       37.9690    3.2470   10.2080 C.ar  154  HEM154      0.0000
      6  C2A       39.2020    3.3100    9.3970 C.ar  154  HEM154      0.0000
      7  C3A       39.0410    4.1500    8.3330 C.ar  154  HEM154      0.0000
      8  C4A       37.6290    4.6480    8.5720 C.ar  154  HEM154      0.0000
      9  CMA       39.9960    4.5060    7.1880 C.3   154  HEM154      0.0000
     10  CAA       40.4630    2.4230    9.7400 C.3   154  HEM154      0.0000
     11  CBA       40.5290    1.1820    8.8630 C.3   154  HEM154      0.0000
     12  CGA       39.2920    0.2540    8.9040 C.2   154  HEM154      0.0000
     13  O1A       38.9720   -0.3080    9.9570 O.co2 154  HEM154      0.0000
     14  O2A       38.6050    0.2420    7.8820 O.co2 154  HEM154      0.0000
     15  C1B       35.7930    5.9710    7.6450 C.2   154  HEM154      0.0000
     16  C2B       35.2220    6.8730    6.6460 C.2   154  HEM154      0.0000
     17  C3B       33.9050    7.0440    7.0480 C.2   154  HEM154      0.0000
     18  C4B       33.7410    6.2420    8.2290 C.2   154  HEM154      0.0000
     19  CMB       35.8820    7.4250    5.3650 C.3   154  HEM154      0.0000
     20  CAB       32.8520    7.8630    6.4650 C.3   154  HEM154      0.0000
     21  CBB       32.9310    9.0000    5.6100 C.3   154  HEM154      0.0000
     22  C1C       32.3960    5.5840   10.2240 C.ar  154  HEM154      0.0000
     23  C2C       31.1260    5.6790   11.0150 C.ar  154  HEM154      0.0000
     24  C3C       31.3820    4.9250   12.1790 C.ar  154  HEM154      0.0000
     25  C4C       32.7150    4.2950   11.9540 C.ar  154  HEM154      0.0000
     26  CMC       29.9820    6.7180   10.8120 C.3   154  HEM154      0.0000
     27  CAC       30.6230    4.7000   13.4640 C.3   154  HEM154      0.0000
     28  CBC       29.4080    5.3710   13.8050 C.3   154  HEM154      0.0000
     29  C1D       34.5970    2.9220   12.7960 C.2   154  HEM154      0.0000
     30  C2D       35.1600    2.0480   13.7780 C.2   154  HEM154      0.0000
     31  C3D       36.4300    1.7980   13.3680 C.2   154  HEM154      0.0000
     32  C4D       36.6020    2.5030   12.0680 C.2   154  HEM154      0.0000
     33  CMD       34.4160    1.4270   14.9320 C.3   154  HEM154      0.0000
     34  CAD       37.5170    1.1460   14.2120 C.3   154  HEM154      0.0000
     35  CBD       38.2460    2.2130   15.0740 C.3   154  HEM154      0.0000
     36  CGD       39.3490    1.6320   15.9940 C.2   154  HEM154      0.0000
     37  O1D       38.9980    0.8390   16.8600 O.co2 154  HEM154      0.0000
     38  O2D       40.4710    1.5440   15.5470 O.co2 154  HEM154      0.0000
     39  NA        36.9860    4.0610    9.6940 N.ar  154  HEM154      0.0000
     40  NB        34.9190    5.5680    8.5430 N.2   154  HEM154      0.0000
     41  NC        33.3180    4.7020   10.7560 N.ar  154  HEM154      0.0000
     42  ND        35.4740    3.1510   11.6840 N.2   154  HEM154      0.0000
     43 FE         35.1510    4.3560   10.1200 Fe    154  HEM154      0.0000
@<TRIPOS>BOND
     1    19    16    1
     2    21    20    1
     3    20    17    1
     4    16    17    2
     5    16    15    1
     6    17    18    1
     7     9     7    1
     8     2    15    1
     9     2     8    2
    10    15    40    2
    11    14    12   ar
    12    18    40    1
    13    18     3    2
    14     7     8   ar
    15     7     6   ar
    16    40    43    1
    17     8    39   ar
    18    11    12    1
    19    11    10    1
    20    12    13   ar
    21     3    22    1
    22     6    10    1
    23     6     5   ar
    24    39    43    1
    25    39     5   ar
    26    43    41    1
    27    43    42    1
    28     5     1    2
    29    22    41   ar
    30    22    23   ar
    31    41    25   ar
    32    26    23    1
    33    23    24   ar
    34     1    32    1
    35    42    32    2
    36    42    29    1
    37    25    24   ar
    38    25     4    1
    39    32    31    1
    40    24    27    1
    41    29     4    2
    42    29    30    1
    43    31    30    2
    44    31    34    1
    45    27    28    1
    46    30    33    1
    47    34    35    1
    48    35    36    1
    49    38    36   ar
    50    36    37   ar
