@<TRIPOS>MOLECULE
1mlm_HEM_A_1.pdb
 43 50 0 0 0
SMALL
GASTEIGER

@<TRIPOS>ATOM
      1  CHA       37.7460    2.4140   11.4510 C.2   154  HEM154      0.0000
      2  CHB       36.8860    5.3770    7.6740 C.2   154  HEM154      0.0000
      3  CHC       32.3920    6.2390    9.1060 C.2   154  HEM154      0.0000
      4  CHD       33.1780    3.2390   12.8750 C.2   154  HEM154      0.0000
      5  C1A       37.8420    3.2180   10.2300 C.ar  154  HEM154      0.0000
      6  C2A       39.1240    3.2610    9.4710 C.ar  154  HEM154      0.0000
      7  C3A       38.9710    4.1430    8.4630 C.ar  154  HEM154      0.0000
      8  C4A       37.5290    4.5600    8.6310 C.ar  154  HEM154      0.0000
      9  CMA       39.8800    4.4020    7.2550 C.3   154  HEM154      0.0000
     10  CAA       40.3900    2.3580    9.7010 C.3   154  HEM154      0.0000
     11  CBA       40.4830    1.1750    8.7510 C.3   154  HEM154      0.0000
     12  CGA       39.2910    0.2250    8.8280 C.2   154  HEM154      0.0000
     13  O1A       38.9490   -0.2590    9.9200 O.co2 154  HEM154      0.0000
     14  O2A       38.5310    0.1770    7.8470 O.co2 154  HEM154      0.0000
     15  C1B       35.6130    5.9150    7.7820 C.2   154  HEM154      0.0000
     16  C2B       35.0710    6.8920    6.7890 C.2   154  HEM154      0.0000
     17  C3B       33.7910    7.0790    7.1580 C.2   154  HEM154      0.0000
     18  C4B       33.5620    6.2500    8.3450 C.2   154  HEM154      0.0000
     19  CMB       35.8230    7.3940    5.5070 C.3   154  HEM154      0.0000
     20  CAB       32.8320    8.0070    6.5860 C.3   154  HEM154      0.0000
     21  CBB       33.1950    9.3210    6.0770 C.3   154  HEM154      0.0000
     22  C1C       32.3390    5.4610   10.3000 C.ar  154  HEM154      0.0000
     23  C2C       31.1350    5.5250   11.1510 C.ar  154  HEM154      0.0000
     24  C3C       31.2530    4.7150   12.2690 C.ar  154  HEM154      0.0000
     25  C4C       32.6270    4.0940   11.9630 C.ar  154  HEM154      0.0000
     26  CMC       30.0010    6.4160   10.8400 C.3   154  HEM154      0.0000
     27  CAC       30.4480    4.5380   13.3840 C.3   154  HEM154      0.0000
     28  CBC       29.3290    5.2900   13.8420 C.3   154  HEM154      0.0000
     29  C1D       34.4330    2.7750   12.8040 C.2   154  HEM154      0.0000
     30  C2D       35.0410    1.7920   13.8240 C.2   154  HEM154      0.0000
     31  C3D       36.3830    1.6850   13.4120 C.2   154  HEM154      0.0000
     32  C4D       36.5550    2.3670   12.1700 C.2   154  HEM154      0.0000
     33  CMD       34.3100    1.1570   15.0520 C.3   154  HEM154      0.0000
     34  CAD       37.4370    1.0620   14.2640 C.3   154  HEM154      0.0000
     35  CBD       38.1460    2.1520   15.0650 C.3   154  HEM154      0.0000
     36  CGD       39.3460    1.5840   15.8620 C.2   154  HEM154      0.0000
     37  O1D       39.1060    0.9990   16.9150 O.co2 154  HEM154      0.0000
     38  O2D       40.3270    1.2130   15.2410 O.co2 154  HEM154      0.0000
     39  NA        36.8680    4.0080    9.7200 N.ar  154  HEM154      0.0000
     40  NB        34.7130    5.5700    8.6750 N.2   154  HEM154      0.0000
     41  NC        33.2040    4.5860   10.8100 N.ar  154  HEM154      0.0000
     42  ND        35.4030    3.0180   11.7620 N.2   154  HEM154      0.0000
     43 FE         35.0380    4.3390   10.1330 Fe    154  HEM154      0.0000
@<TRIPOS>BOND
     1    19    16    1
     2    21    20    1
     3    20    17    1
     4    16    17    2
     5    16    15    1
     6    17    18    1
     7     9     7    1
     8     2    15    1
     9     2     8    2
    10    15    40    2
    11    14    12   ar
    12    18    40    1
    13    18     3    2
    14     7     8   ar
    15     7     6   ar
    16     8    39   ar
    17    40    43    1
    18    11    12    1
    19    11    10    1
    20    12    13   ar
    21     3    22    1
    22     6    10    1
    23     6     5   ar
    24    39    43    1
    25    39     5   ar
    26    43    41    1
    27    43    42    1
    28     5     1    2
    29    22    41   ar
    30    22    23   ar
    31    41    25   ar
    32    26    23    1
    33    23    24   ar
    34     1    32    1
    35    42    32    2
    36    42    29    1
    37    25    24   ar
    38    25     4    1
    39    32    31    1
    40    24    27    1
    41    29     4    2
    42    29    30    1
    43    27    28    1
    44    31    30    2
    45    31    34    1
    46    30    33    1
    47    34    35    1
    48    35    36    1
    49    38    36   ar
    50    36    37   ar
