@<TRIPOS>MOLECULE
1mln_HEM_A_1.pdb
 43 50 0 0 0
SMALL
GASTEIGER

@<TRIPOS>ATOM
      1  CHA       38.0070    2.4100   11.2040 C.2   154  HEM154      0.0000
      2  CHB       37.1680    5.4080    7.4490 C.2   154  HEM154      0.0000
      3  CHC       32.7420    6.5090    9.1590 C.2   154  HEM154      0.0000
      4  CHD       33.5710    3.5950   12.9810 C.2   154  HEM154      0.0000
      5  C1A       38.1070    3.2190   10.0610 C.ar  154  HEM154      0.0000
      6  C2A       39.3440    3.2040    9.1890 C.ar  154  HEM154      0.0000
      7  C3A       39.1440    4.1370    8.1730 C.ar  154  HEM154      0.0000
      8  C4A       37.7530    4.5710    8.3960 C.ar  154  HEM154      0.0000
      9  CMA       40.0210    4.3950    6.9230 C.3   154  HEM154      0.0000
     10  CAA       40.5890    2.3400    9.4680 C.3   154  HEM154      0.0000
     11  CBA       40.6200    1.2170    8.4200 C.3   154  HEM154      0.0000
     12  CGA       39.5340    0.1610    8.5770 C.2   154  HEM154      0.0000
     13  O1A       39.2240   -0.2410    9.7180 O.co2 154  HEM154      0.0000
     14  O2A       38.7450    0.0660    7.6220 O.co2 154  HEM154      0.0000
     15  C1B       35.8340    5.9530    7.5770 C.2   154  HEM154      0.0000
     16  C2B       35.2810    6.9260    6.6090 C.2   154  HEM154      0.0000
     17  C3B       34.0530    7.1710    7.1220 C.2   154  HEM154      0.0000
     18  C4B       33.9180    6.4510    8.3120 C.2   154  HEM154      0.0000
     19  CMB       35.8330    7.4170    5.2460 C.3   154  HEM154      0.0000
     20  CAB       33.1360    8.1340    6.5970 C.3   154  HEM154      0.0000
     21  CBB       33.3510    9.4340    6.0220 C.3   154  HEM154      0.0000
     22  C1C       32.6400    5.7110   10.3480 C.ar  154  HEM154      0.0000
     23  C2C       31.5470    5.8950   11.2350 C.ar  154  HEM154      0.0000
     24  C3C       31.7670    5.1050   12.3340 C.ar  154  HEM154      0.0000
     25  C4C       32.9930    4.4330   12.0990 C.ar  154  HEM154      0.0000
     26  CMC       30.3930    6.8230   10.9440 C.3   154  HEM154      0.0000
     27  CAC       31.0020    4.9140   13.5480 C.3   154  HEM154      0.0000
     28  CBC       29.7680    5.3950   14.0750 C.3   154  HEM154      0.0000
     29  C1D       34.8700    3.1510   12.8120 C.2   154  HEM154      0.0000
     30  C2D       35.4870    2.1120   13.7760 C.2   154  HEM154      0.0000
     31  C3D       36.6750    1.8290   13.2330 C.2   154  HEM154      0.0000
     32  C4D       36.8490    2.5610   11.9640 C.2   154  HEM154      0.0000
     33  CMD       34.7860    1.4810   15.0190 C.3   154  HEM154      0.0000
     34  CAD       37.8060    1.1200   13.9370 C.3   154  HEM154      0.0000
     35  CBD       38.4490    2.0330   15.0060 C.3   154  HEM154      0.0000
     36  CGD       39.6390    1.4120   15.7710 C.2   154  HEM154      0.0000
     37  O1D       39.4090    0.6110   16.6650 O.co2 154  HEM154      0.0000
     38  O2D       40.7080    1.3400   15.2180 O.co2 154  HEM154      0.0000
     39  NA        37.0970    4.0200    9.4740 N.ar  154  HEM154      0.0000
     40  NB        34.9900    5.6660    8.5390 N.2   154  HEM154      0.0000
     41  NC        33.4850    4.8320   10.7850 N.ar  154  HEM154      0.0000
     42  ND        35.7780    3.2650   11.6380 N.2   154  HEM154      0.0000
     43 FE         35.2260    4.2570    9.9160 Fe    154  HEM154      0.0000
@<TRIPOS>BOND
     1    19    16    1
     2    21    20    1
     3    20    17    1
     4    16    17    2
     5    16    15    1
     6     9     7    1
     7    17    18    1
     8     2    15    1
     9     2     8    2
    10    15    40    2
    11    14    12   ar
    12     7     8   ar
    13     7     6   ar
    14    18    40    1
    15    18     3    2
    16     8    39   ar
    17    11    12    1
    18    11    10    1
    19    40    43    1
    20    12    13   ar
    21     3    22    1
    22     6    10    1
    23     6     5   ar
    24    39    43    1
    25    39     5   ar
    26    43    41    1
    27    43    42    1
    28     5     1    2
    29    22    41   ar
    30    22    23   ar
    31    41    25   ar
    32    26    23    1
    33     1    32    1
    34    23    24   ar
    35    42    32    2
    36    42    29    1
    37    32    31    1
    38    25    24   ar
    39    25     4    1
    40    24    27    1
    41    29     4    2
    42    29    30    1
    43    31    30    2
    44    31    34    1
    45    27    28    1
    46    30    33    1
    47    34    35    1
    48    35    36    1
    49    38    36   ar
    50    36    37   ar
