@<TRIPOS>MOLECULE
1mlo_HEM_A_1.pdb
 43 50 0 0 0
SMALL
GASTEIGER

@<TRIPOS>ATOM
      1  CHA       37.7790    2.2180   11.4220 C.2   154  HEM154      0.0000
      2  CHB       36.9900    5.2650    7.7690 C.2   154  HEM154      0.0000
      3  CHC       32.6390    6.1800    9.1040 C.2   154  HEM154      0.0000
      4  CHD       33.3310    3.2490   12.8890 C.2   154  HEM154      0.0000
      5  C1A       37.9790    3.0750   10.2780 C.ar  154  HEM154      0.0000
      6  C2A       39.2350    3.1160    9.5110 C.ar  154  HEM154      0.0000
      7  C3A       39.0270    3.9660    8.4710 C.ar  154  HEM154      0.0000
      8  C4A       37.6290    4.4420    8.6600 C.ar  154  HEM154      0.0000
      9  CMA       39.9850    4.2700    7.3070 C.3   154  HEM154      0.0000
     10  CAA       40.5280    2.2310    9.6500 C.3   154  HEM154      0.0000
     11  CBA       40.5520    0.9030    8.8690 C.3   154  HEM154      0.0000
     12  CGA       39.2800    0.0580    8.9430 C.2   154  HEM154      0.0000
     13  O1A       38.9440   -0.5400    9.9930 O.co2 154  HEM154      0.0000
     14  O2A       38.5290    0.0970    7.9590 O.co2 154  HEM154      0.0000
     15  C1B       35.7550    5.8130    7.8000 C.2   154  HEM154      0.0000
     16  C2B       35.2960    6.8340    6.7720 C.2   154  HEM154      0.0000
     17  C3B       34.0410    7.0400    7.2420 C.2   154  HEM154      0.0000
     18  C4B       33.7890    6.1930    8.4220 C.2   154  HEM154      0.0000
     19  CMB       35.9530    7.4660    5.4900 C.3   154  HEM154      0.0000
     20  CAB       33.0540    7.9730    6.6660 C.3   154  HEM154      0.0000
     21  CBB       33.2100    9.3140    6.1370 C.3   154  HEM154      0.0000
     22  C1C       32.4940    5.4720   10.4010 C.ar  154  HEM154      0.0000
     23  C2C       31.3350    5.5380   11.2280 C.ar  154  HEM154      0.0000
     24  C3C       31.4110    4.6590   12.3380 C.ar  154  HEM154      0.0000
     25  C4C       32.7160    4.0870   11.9970 C.ar  154  HEM154      0.0000
     26  CMC       30.1800    6.4570   10.8670 C.3   154  HEM154      0.0000
     27  CAC       30.6590    4.5450   13.5870 C.3   154  HEM154      0.0000
     28  CBC       29.3160    4.9990   13.8690 C.3   154  HEM154      0.0000
     29  C1D       34.5860    2.6970   12.8350 C.2   154  HEM154      0.0000
     30  C2D       35.1200    1.7540   13.8310 C.2   154  HEM154      0.0000
     31  C3D       36.4180    1.6040   13.4730 C.2   154  HEM154      0.0000
     32  C4D       36.5670    2.2490   12.1620 C.2   154  HEM154      0.0000
     33  CMD       34.3610    1.0980   15.0590 C.3   154  HEM154      0.0000
     34  CAD       37.5410    0.7990   14.1300 C.3   154  HEM154      0.0000
     35  CBD       38.1880    1.8790   15.0210 C.3   154  HEM154      0.0000
     36  CGD       39.2370    1.3130   16.0110 C.2   154  HEM154      0.0000
     37  O1D       38.8920    0.4400   16.8340 O.co2 154  HEM154      0.0000
     38  O2D       40.4070    1.3570   15.6760 O.co2 154  HEM154      0.0000
     39  NA        36.9780    3.8890    9.7970 N.ar  154  HEM154      0.0000
     40  NB        34.8320    5.5380    8.7350 N.2   154  HEM154      0.0000
     41  NC        33.3260    4.5520   10.8200 N.ar  154  HEM154      0.0000
     42  ND        35.4910    2.8790   11.7930 N.2   154  HEM154      0.0000
     43 FE         35.1690    4.1560   10.1380 Fe    154  HEM154      0.0000
@<TRIPOS>BOND
     1    19    16    1
     2    21    20    1
     3    20    17    1
     4    16    17    2
     5    16    15    1
     6    17    18    1
     7     9     7    1
     8     2    15    1
     9     2     8    2
    10    15    40    2
    11    14    12   ar
    12    18    40    1
    13    18     3    2
    14     7     8   ar
    15     7     6   ar
    16     8    39   ar
    17    40    43    1
    18    11    12    1
    19    11    10    1
    20    12    13   ar
    21     3    22    1
    22     6    10    1
    23     6     5   ar
    24    39    43    1
    25    39     5   ar
    26    43    41    1
    27    43    42    1
    28     5     1    2
    29    22    41   ar
    30    22    23   ar
    31    41    25   ar
    32    26    23    1
    33    23    24   ar
    34     1    32    1
    35    42    32    2
    36    42    29    1
    37    25    24   ar
    38    25     4    1
    39    32    31    1
    40    24    27    1
    41    29     4    2
    42    29    30    1
    43    31    30    2
    44    31    34    1
    45    27    28    1
    46    30    33    1
    47    34    35    1
    48    35    36    1
    49    38    36   ar
    50    36    37   ar
