@<TRIPOS>MOLECULE
1mlq_HEM_A_1.pdb
 43 50 0 0 0
SMALL
GASTEIGER

@<TRIPOS>ATOM
      1  CHA       37.8370    2.4660   11.3590 C.2   154  HEM154      0.0000
      2  CHB       37.0790    5.4640    7.5960 C.2   154  HEM154      0.0000
      3  CHC       32.4520    6.2650    8.9990 C.2   154  HEM154      0.0000
      4  CHD       33.3200    3.3680   12.8620 C.2   154  HEM154      0.0000
      5  C1A       37.8860    3.3450   10.1880 C.ar  154  HEM154      0.0000
      6  C2A       39.2040    3.3610    9.4100 C.ar  154  HEM154      0.0000
      7  C3A       38.9910    4.2540    8.3550 C.ar  154  HEM154      0.0000
      8  C4A       37.5850    4.6220    8.4880 C.ar  154  HEM154      0.0000
      9  CMA       39.9050    4.5490    7.2010 C.3   154  HEM154      0.0000
     10  CAA       40.4650    2.4040    9.6470 C.3   154  HEM154      0.0000
     11  CBA       40.6200    1.1800    8.7890 C.3   154  HEM154      0.0000
     12  CGA       39.3780    0.2850    8.8150 C.2   154  HEM154      0.0000
     13  O1A       38.9880   -0.2190    9.8850 O.co2 154  HEM154      0.0000
     14  O2A       38.6820    0.2500    7.7840 O.co2 154  HEM154      0.0000
     15  C1B       35.6840    5.9350    7.6260 C.2   154  HEM154      0.0000
     16  C2B       35.1590    6.8370    6.6690 C.2   154  HEM154      0.0000
     17  C3B       33.8400    7.0010    7.0030 C.2   154  HEM154      0.0000
     18  C4B       33.6500    6.2010    8.2180 C.2   154  HEM154      0.0000
     19  CMB       35.8900    7.3030    5.3780 C.3   154  HEM154      0.0000
     20  CAB       32.8580    7.9010    6.4940 C.3   154  HEM154      0.0000
     21  CBB       33.0800    9.2530    6.0200 C.3   154  HEM154      0.0000
     22  C1C       32.3980    5.5360   10.1860 C.ar  154  HEM154      0.0000
     23  C2C       31.2950    5.6410   11.0430 C.ar  154  HEM154      0.0000
     24  C3C       31.3930    4.8540   12.1120 C.ar  154  HEM154      0.0000
     25  C4C       32.7250    4.1830   11.8670 C.ar  154  HEM154      0.0000
     26  CMC       30.0680    6.4820   10.7860 C.3   154  HEM154      0.0000
     27  CAC       30.5650    4.6370   13.2690 C.3   154  HEM154      0.0000
     28  CBC       29.5260    5.4080   13.9320 C.3   154  HEM154      0.0000
     29  C1D       34.6640    2.9560   12.8150 C.2   154  HEM154      0.0000
     30  C2D       35.2740    2.0390   13.7130 C.2   154  HEM154      0.0000
     31  C3D       36.5050    1.8180   13.3500 C.2   154  HEM154      0.0000
     32  C4D       36.6850    2.4920   12.0780 C.2   154  HEM154      0.0000
     33  CMD       34.4310    1.3990   14.8900 C.3   154  HEM154      0.0000
     34  CAD       37.6010    1.1600   14.1660 C.3   154  HEM154      0.0000
     35  CBD       38.2790    2.1650   15.1140 C.3   154  HEM154      0.0000
     36  CGD       39.5080    1.5880   15.8670 C.2   154  HEM154      0.0000
     37  O1D       39.2990    0.9780   16.8930 O.co2 154  HEM154      0.0000
     38  O2D       40.5470    1.3640   15.2630 O.co2 154  HEM154      0.0000
     39  NA        36.9160    4.0660    9.5610 N.ar  154  HEM154      0.0000
     40  NB        34.7930    5.5920    8.5830 N.2   154  HEM154      0.0000
     41  NC        33.3100    4.7090   10.6500 N.ar  154  HEM154      0.0000
     42  ND        35.5850    3.1960   11.7500 N.2   154  HEM154      0.0000
     43 FE         35.1450    4.4110   10.0840 Fe    154  HEM154      0.0000
@<TRIPOS>BOND
     1    19    16    1
     2    21    20    1
     3    20    17    1
     4    16    17    2
     5    16    15    1
     6    17    18    1
     7     9     7    1
     8     2    15    1
     9     2     8    2
    10    15    40    2
    11    14    12   ar
    12    18    40    1
    13    18     3    2
    14     7     8   ar
    15     7     6   ar
    16     8    39   ar
    17    40    43    1
    18    11    12    1
    19    11    10    1
    20    12    13   ar
    21     3    22    1
    22     6    10    1
    23     6     5   ar
    24    39    43    1
    25    39     5   ar
    26    43    41    1
    27    43    42    1
    28    22    41   ar
    29    22    23   ar
    30     5     1    2
    31    41    25   ar
    32    26    23    1
    33    23    24   ar
    34     1    32    1
    35    42    32    2
    36    42    29    1
    37    25    24   ar
    38    25     4    1
    39    32    31    1
    40    24    27    1
    41    29     4    2
    42    29    30    1
    43    27    28    1
    44    31    30    2
    45    31    34    1
    46    30    33    1
    47    34    35    1
    48    35    36    1
    49    38    36   ar
    50    36    37   ar
