@<TRIPOS>MOLECULE
1mlr_HEM_A_1.pdb
 43 50 0 0 0
SMALL
GASTEIGER

@<TRIPOS>ATOM
      1  CHA       37.9040    2.5190   11.2540 C.2   154  HEM154      0.0000
      2  CHB       37.0730    5.5230    7.5040 C.2   154  HEM154      0.0000
      3  CHC       32.5800    6.4800    9.0810 C.2   154  HEM154      0.0000
      4  CHD       33.4080    3.5280   12.9240 C.2   154  HEM154      0.0000
      5  C1A       37.9310    3.3020   10.0890 C.ar  154  HEM154      0.0000
      6  C2A       39.2030    3.3240    9.2940 C.ar  154  HEM154      0.0000
      7  C3A       38.9780    4.1410    8.2130 C.ar  154  HEM154      0.0000
      8  C4A       37.5850    4.5580    8.3980 C.ar  154  HEM154      0.0000
      9  CMA       39.9370    4.4750    7.1140 C.3   154  HEM154      0.0000
     10  CAA       40.5260    2.4000    9.4970 C.3   154  HEM154      0.0000
     11  CBA       40.6420    1.1780    8.6030 C.3   154  HEM154      0.0000
     12  CGA       39.4290    0.2550    8.6540 C.2   154  HEM154      0.0000
     13  O1A       39.0920   -0.2340    9.7460 O.co2 154  HEM154      0.0000
     14  O2A       38.7330    0.1410    7.6270 O.co2 154  HEM154      0.0000
     15  C1B       35.7560    6.0730    7.5310 C.2   154  HEM154      0.0000
     16  C2B       35.2620    7.0180    6.5450 C.2   154  HEM154      0.0000
     17  C3B       34.0030    7.1610    7.0090 C.2   154  HEM154      0.0000
     18  C4B       33.7760    6.3700    8.1930 C.2   154  HEM154      0.0000
     19  CMB       35.9350    7.4750    5.2500 C.3   154  HEM154      0.0000
     20  CAB       33.0140    8.0260    6.5450 C.3   154  HEM154      0.0000
     21  CBB       33.1450    9.3840    6.0520 C.3   154  HEM154      0.0000
     22  C1C       32.5380    5.6920   10.2760 C.ar  154  HEM154      0.0000
     23  C2C       31.4910    5.8300   11.1480 C.ar  154  HEM154      0.0000
     24  C3C       31.5920    5.0430   12.1630 C.ar  154  HEM154      0.0000
     25  C4C       32.8270    4.3490   11.9250 C.ar  154  HEM154      0.0000
     26  CMC       30.2190    6.7200   10.9770 C.3   154  HEM154      0.0000
     27  CAC       30.7420    4.8480   13.3820 C.3   154  HEM154      0.0000
     28  CBC       29.7790    5.4600   14.2700 C.3   154  HEM154      0.0000
     29  C1D       34.7720    3.1260   12.8010 C.2   154  HEM154      0.0000
     30  C2D       35.4010    2.1850   13.6360 C.2   154  HEM154      0.0000
     31  C3D       36.5870    1.8820   13.2300 C.2   154  HEM154      0.0000
     32  C4D       36.7460    2.5660   12.0050 C.2   154  HEM154      0.0000
     33  CMD       34.6930    1.5540   14.8750 C.3   154  HEM154      0.0000
     34  CAD       37.7200    1.2650   14.0050 C.3   154  HEM154      0.0000
     35  CBD       38.4190    2.2380   14.9760 C.3   154  HEM154      0.0000
     36  CGD       39.5930    1.5930   15.7530 C.2   154  HEM154      0.0000
     37  O1D       39.3340    0.8590   16.7070 O.co2 154  HEM154      0.0000
     38  O2D       40.6770    1.4680   15.1920 O.co2 154  HEM154      0.0000
     39  NA        36.9290    4.0410    9.4790 N.ar  154  HEM154      0.0000
     40  NB        34.8640    5.7110    8.4910 N.2   154  HEM154      0.0000
     41  NC        33.4030    4.8100   10.6800 N.ar  154  HEM154      0.0000
     42  ND        35.6240    3.3120   11.6890 N.2   154  HEM154      0.0000
     43 FE         35.1110    4.2990    9.8840 Fe    154  HEM154      0.0000
@<TRIPOS>BOND
     1    19    16    1
     2    21    20    1
     3    20    17    1
     4    16    17    2
     5    16    15    1
     6    17    18    1
     7     9     7    1
     8     2    15    1
     9     2     8    2
    10    15    40    2
    11    14    12   ar
    12    18    40    1
    13    18     3    2
    14     7     8   ar
    15     7     6   ar
    16     8    39   ar
    17    40    43    1
    18    11    12    1
    19    11    10    1
    20    12    13   ar
    21     3    22    1
    22     6    10    1
    23     6     5   ar
    24    39    43    1
    25    39     5   ar
    26    43    41    1
    27    43    42    1
    28     5     1    2
    29    22    41   ar
    30    22    23   ar
    31    41    25   ar
    32    26    23    1
    33    23    24   ar
    34     1    32    1
    35    42    32    2
    36    42    29    1
    37    25    24   ar
    38    25     4    1
    39    32    31    1
    40    24    27    1
    41    29     4    2
    42    29    30    1
    43    31    30    2
    44    31    34    1
    45    27    28    1
    46    30    33    1
    47    34    35    1
    48    35    36    1
    49    38    36   ar
    50    36    37   ar
