@<TRIPOS>MOLECULE
1mls_HEM_A_1.pdb
 43 50 0 0 0
SMALL
GASTEIGER

@<TRIPOS>ATOM
      1  CHA       37.9120    2.4090   11.3450 C.2   154  HEM154      0.0000
      2  CHB       37.1240    5.3950    7.6780 C.2   154  HEM154      0.0000
      3  CHC       32.5850    6.2390    9.0590 C.2   154  HEM154      0.0000
      4  CHD       33.3570    3.2710   12.9370 C.2   154  HEM154      0.0000
      5  C1A       38.0480    3.1720   10.1930 C.ar  154  HEM154      0.0000
      6  C2A       39.2550    3.1750    9.3920 C.ar  154  HEM154      0.0000
      7  C3A       39.0590    4.0570    8.3110 C.ar  154  HEM154      0.0000
      8  C4A       37.6610    4.5170    8.5420 C.ar  154  HEM154      0.0000
      9  CMA       40.0310    4.4400    7.1760 C.3   154  HEM154      0.0000
     10  CAA       40.5720    2.3080    9.6660 C.3   154  HEM154      0.0000
     11  CBA       40.6240    1.1030    8.7400 C.3   154  HEM154      0.0000
     12  CGA       39.3760    0.2080    8.7920 C.2   154  HEM154      0.0000
     13  O1A       39.0440   -0.3470    9.8530 O.co2 154  HEM154      0.0000
     14  O2A       38.6390    0.2230    7.7980 O.co2 154  HEM154      0.0000
     15  C1B       35.8160    5.8950    7.7180 C.2   154  HEM154      0.0000
     16  C2B       35.2580    6.8610    6.6590 C.2   154  HEM154      0.0000
     17  C3B       33.9710    7.0610    7.1060 C.2   154  HEM154      0.0000
     18  C4B       33.8070    6.2380    8.2860 C.2   154  HEM154      0.0000
     19  CMB       35.8900    7.3430    5.3580 C.3   154  HEM154      0.0000
     20  CAB       32.9630    7.9840    6.5790 C.3   154  HEM154      0.0000
     21  CBB       33.2550    9.2930    6.0370 C.3   154  HEM154      0.0000
     22  C1C       32.4560    5.5480   10.3440 C.ar  154  HEM154      0.0000
     23  C2C       31.3300    5.6610   11.1870 C.ar  154  HEM154      0.0000
     24  C3C       31.4550    4.8270   12.2910 C.ar  154  HEM154      0.0000
     25  C4C       32.7520    4.1580   12.0380 C.ar  154  HEM154      0.0000
     26  CMC       30.1520    6.6010   10.8860 C.3   154  HEM154      0.0000
     27  CAC       30.6650    4.5860   13.5320 C.3   154  HEM154      0.0000
     28  CBC       29.4780    5.2910   13.9540 C.3   154  HEM154      0.0000
     29  C1D       34.6910    2.8050   12.8420 C.2   154  HEM154      0.0000
     30  C2D       35.2910    1.8840   13.7930 C.2   154  HEM154      0.0000
     31  C3D       36.5160    1.6900   13.3720 C.2   154  HEM154      0.0000
     32  C4D       36.6770    2.4040   12.0980 C.2   154  HEM154      0.0000
     33  CMD       34.5920    1.2830   15.0540 C.3   154  HEM154      0.0000
     34  CAD       37.6370    1.0840   14.1440 C.3   154  HEM154      0.0000
     35  CBD       38.2720    2.1270   15.0950 C.3   154  HEM154      0.0000
     36  CGD       39.3720    1.5230   16.0030 C.2   154  HEM154      0.0000
     37  O1D       39.0400    0.6760   16.8390 O.co2 154  HEM154      0.0000
     38  O2D       40.4720    1.4080   15.5150 O.co2 154  HEM154      0.0000
     39  NA        37.0440    3.9880    9.6590 N.ar  154  HEM154      0.0000
     40  NB        34.9200    5.5570    8.6680 N.2   154  HEM154      0.0000
     41  NC        33.3260    4.6350   10.7970 N.ar  154  HEM154      0.0000
     42  ND        35.5730    3.0880   11.7940 N.2   154  HEM154      0.0000
     43 FE         35.2070    4.2820   10.2520 Fe    154  HEM154      0.0000
@<TRIPOS>BOND
     1    19    16    1
     2    21    20    1
     3    20    17    1
     4    16    17    2
     5    16    15    1
     6    17    18    1
     7     9     7    1
     8     2    15    1
     9     2     8    2
    10    15    40    2
    11    14    12   ar
    12    18    40    1
    13    18     3    2
    14     7     8   ar
    15     7     6   ar
    16     8    39   ar
    17    40    43    1
    18    11    12    1
    19    11    10    1
    20    12    13   ar
    21     3    22    1
    22     6    10    1
    23     6     5   ar
    24    39     5   ar
    25    39    43    1
    26     5     1    2
    27    43    41    1
    28    43    42    1
    29    22    41   ar
    30    22    23   ar
    31    41    25   ar
    32    26    23    1
    33    23    24   ar
    34     1    32    1
    35    42    32    2
    36    42    29    1
    37    25    24   ar
    38    25     4    1
    39    32    31    1
    40    24    27    1
    41    29     4    2
    42    29    30    1
    43    31    30    2
    44    31    34    1
    45    27    28    1
    46    30    33    1
    47    34    35    1
    48    35    36    1
    49    38    36   ar
    50    36    37   ar
