@<TRIPOS>MOLECULE
1mlu_HEM_A_1.pdb
 43 50 0 0 0
SMALL
GASTEIGER

@<TRIPOS>ATOM
      1 FE         35.3230    4.4480   10.2170 Fe    154  HEM154      0.0000
      2  CHA       37.9740    2.5640   11.3380 C.2   154  HEM154      0.0000
      3  CHB       37.2140    5.3680    7.5280 C.2   154  HEM154      0.0000
      4  CHC       32.7400    6.2640    9.0130 C.2   154  HEM154      0.0000
      5  CHD       33.4420    3.4520   12.9360 C.2   154  HEM154      0.0000
      6  NA        37.1380    4.0680    9.5830 N.ar  154  HEM154      0.0000
      7  C1A       38.0890    3.3240   10.1850 C.ar  154  HEM154      0.0000
      8  C2A       39.3790    3.3790    9.4120 C.ar  154  HEM154      0.0000
      9  C3A       39.1370    4.1980    8.2740 C.ar  154  HEM154      0.0000
     10  C4A       37.7280    4.5600    8.4530 C.ar  154  HEM154      0.0000
     11  CMA       40.0310    4.4710    7.0430 C.3   154  HEM154      0.0000
     12  CAA       40.6810    2.4770    9.5960 C.3   154  HEM154      0.0000
     13  CBA       40.6790    1.1820    8.7460 C.3   154  HEM154      0.0000
     14  CGA       39.4000    0.3630    8.7780 C.2   154  HEM154      0.0000
     15  O1A       38.9650   -0.1200    9.8280 O.co2 154  HEM154      0.0000
     16  O2A       38.7650    0.2930    7.7400 O.co2 154  HEM154      0.0000
     17  NB        34.9110    5.6370    8.6360 N.2   154  HEM154      0.0000
     18  C1B       35.8180    5.9600    7.6220 C.2   154  HEM154      0.0000
     19  C2B       35.2550    6.8940    6.6520 C.2   154  HEM154      0.0000
     20  C3B       34.0180    7.1060    7.1120 C.2   154  HEM154      0.0000
     21  C4B       33.8350    6.3120    8.2810 C.2   154  HEM154      0.0000
     22  CMB       35.9050    7.4160    5.3140 C.3   154  HEM154      0.0000
     23  CAB       33.0830    8.0300    6.5330 C.3   154  HEM154      0.0000
     24  CBB       33.3520    9.3480    6.0000 C.3   154  HEM154      0.0000
     25  NC        33.4990    4.7630   10.7500 N.ar  154  HEM154      0.0000
     26  C1C       32.6140    5.6250   10.2720 C.ar  154  HEM154      0.0000
     27  C2C       31.5010    5.7750   11.1480 C.ar  154  HEM154      0.0000
     28  C3C       31.6390    4.9960   12.2570 C.ar  154  HEM154      0.0000
     29  C4C       32.9030    4.2690   12.0030 C.ar  154  HEM154      0.0000
     30  CMC       30.2560    6.6340   10.9050 C.3   154  HEM154      0.0000
     31  CAC       30.8690    4.8660   13.5610 C.3   154  HEM154      0.0000
     32  CBC       29.5040    5.2540   13.8170 C.3   154  HEM154      0.0000
     33  ND        35.6400    3.2910   11.7050 N.2   154  HEM154      0.0000
     34  C1D       34.7040    3.0360   12.7950 C.2   154  HEM154      0.0000
     35  C2D       35.3390    2.1290   13.7400 C.2   154  HEM154      0.0000
     36  C3D       36.6120    1.9000   13.2800 C.2   154  HEM154      0.0000
     37  C4D       36.8020    2.6120   12.0430 C.2   154  HEM154      0.0000
     38  CMD       34.7290    1.5420   14.9280 C.3   154  HEM154      0.0000
     39  CAD       37.7330    1.2290   14.0080 C.3   154  HEM154      0.0000
     40  CBD       38.5130    2.3310   14.7210 C.3   154  HEM154      0.0000
     41  CGD       39.6000    1.8050   15.6620 C.2   154  HEM154      0.0000
     42  O1D       39.7010    0.5910   15.8100 O.co2 154  HEM154      0.0000
     43  O2D       40.6010    2.5020   15.7920 O.co2 154  HEM154      0.0000
@<TRIPOS>BOND
     1    22    19    1
     2    24    23    1
     3    23    20    1
     4    19    20    2
     5    19    18    1
     6    11     9    1
     7    20    21    1
     8     3    18    1
     9     3    10    2
    10    18    17    2
    11    16    14   ar
    12     9    10   ar
    13     9     8   ar
    14    21    17    1
    15    21     4    2
    16    10     6   ar
    17    17     1    1
    18    13    14    1
    19    13    12    1
    20    14    15   ar
    21     4    26    1
    22     8    12    1
    23     8     7   ar
    24     6     7   ar
    25     6     1    1
    26     7     2    2
    27     1    25    1
    28     1    33    1
    29    26    25   ar
    30    26    27   ar
    31    25    29   ar
    32    30    27    1
    33    27    28   ar
    34     2    37    1
    35    33    37    2
    36    33    34    1
    37    29    28   ar
    38    29     5    1
    39    37    36    1
    40    28    31    1
    41    34     5    2
    42    34    35    1
    43    36    35    2
    44    36    39    1
    45    31    32    1
    46    35    38    1
    47    39    40    1
    48    40    41    1
    49    41    43   ar
    50    41    42   ar
