@<TRIPOS>MOLECULE
1mlv_SAH_A_1.pdb
 26 28 0 0 0
SMALL
GASTEIGER

@<TRIPOS>ATOM
      1  N         71.4650  131.6150   51.1260 N.3   700  SAH700     -0.1208
      2  CA        70.1050  131.3260   51.5970 C.3   700  SAH700      0.1952
      3  CB        69.5340  132.5480   52.3600 C.3   700  SAH700      0.0422
      4  CG        69.9540  132.6450   53.7910 C.3   700  SAH700      0.0597
      5  SD        69.0730  131.5580   54.9620 S.3   700  SAH700     -0.1375
      6  C         69.1820  130.9190   50.4010 C.2   700  SAH700      0.3819
      7  O         67.9860  130.6180   50.6180 O.co2 700  SAH700     -0.2441
      8  OXT       69.6430  130.8910   49.2410 O.co2 700  SAH700     -0.2441
      9  C5'       70.4900  130.7450   55.6810 C.3   700  SAH700      0.0899
     10  C4'       70.9550  129.5400   54.8960 C.3   700  SAH700      0.1630
     11  O4'       71.8320  129.9640   53.8150 O.3   700  SAH700     -0.3153
     12  C3'       71.7810  128.5440   55.6860 C.3   700  SAH700      0.2168
     13  O3'       70.9720  127.5940   56.3690 O.3   700  SAH700     -0.2175
     14  C2'       72.6760  127.9200   54.6380 C.3   700  SAH700      0.2569
     15  O2'       72.1580  126.8090   53.9410 O.3   700  SAH700     -0.2130
     16  C1'       72.9960  129.1520   53.7840 C.3   700  SAH700      0.3185
     17  N9        74.1690  129.9160   54.2760 N.pl3 700  SAH700     -0.1439
     18  C8        74.2240  131.1040   54.9860 C.3   700  SAH700      0.3377
     19  N7        75.4290  131.5020   55.2810 N.2   700  SAH700     -0.2095
     20  C5        76.2430  130.5230   54.7320 C.2   700  SAH700      0.2526
     21  C6        77.6600  130.3430   54.7050 C.2   700  SAH700      0.4393
     22  N6        78.5110  131.2000   55.2630 N.pl3 700  SAH700      0.2180
     23  N1        78.1670  129.2350   54.0670 N.2   700  SAH700      0.0021
     24  C2        77.3090  128.3430   53.4910 C.3   700  SAH700      0.5254
     25  N3        75.9480  128.4030   53.4550 N.2   700  SAH700     -0.0055
     26  C4        75.4770  129.5270   54.1070 C.2   700  SAH700      0.3518
@<TRIPOS>BOND
     1     8     6   ar
     2     6     7   ar
     3     6     2    1
     4     1     2    1
     5     2     3    1
     6     3     4    1
     7    25    24    1
     8    25    26    2
     9    24    23    1
    10    16    11    1
    11    16    17    1
    12    16    14    1
    13     4     5    1
    14    11    10    1
    15    15    14    1
    16    23    21    2
    17    26    17    1
    18    26    20    1
    19    17    18    1
    20    14    12    1
    21    21    20    1
    22    21    22    1
    23    20    19    2
    24    10     9    1
    25    10    12    1
    26     5     9    1
    27    18    19    1
    28    12    13    1
