@<TRIPOS>MOLECULE
1mlv_EPE_A_1.pdb
 15 15 0 0 0
SMALL
GASTEIGER

@<TRIPOS>ATOM
      1  N1        69.1120  133.9510   62.1440 N.3   800  EPE800     -0.2689
      2  C2        69.2100  135.1170   61.2030 C.3   800  EPE800      0.0897
      3  C3        68.4960  134.7770   59.9010 C.3   800  EPE800      0.0897
      4  N4        69.0380  133.5130   59.2530 N.3   800  EPE800     -0.2681
      5  C5        68.9350  132.3440   60.2280 C.3   800  EPE800      0.0897
      6  C6        69.6470  132.6820   61.5670 C.3   800  EPE800      0.0897
      7  C7        68.3230  133.1690   57.9670 C.3   800  EPE800      0.1081
      8  C8        68.4010  134.3210   56.9430 C.3   800  EPE800      0.1993
      9  O8        67.7630  134.1770   55.7190 O.3   800  EPE800     -0.2189
     10  C9        69.7910  134.2420   63.4220 C.3   800  EPE800      0.0939
     11  C10       68.8480  135.1400   64.1970 C.3   800  EPE800      0.1225
     12  S         69.5220  135.5670   65.7890 S.3   800  EPE800     -0.1946
     13  O1S       68.5070  136.4210   66.3770 O.3   800  EPE800     -0.3074
     14  O2S       70.8530  136.0880   65.6490 O.3   800  EPE800     -0.3074
     15  O3S       69.4960  134.1620   66.6750 O.3   800  EPE800     -0.3074
@<TRIPOS>BOND
     1     9     8    1
     2     8     7    1
     3     7     4    1
     4     4     3    1
     5     4     5    1
     6     3     2    1
     7     5     6    1
     8     2     1    1
     9     6     1    1
    10     1    10    1
    11    10    11    1
    12    11    12    1
    13    14    12    1
    14    12    13    1
    15    12    15    1
