@<TRIPOS>MOLECULE
1mlw_HBI_A_1.pdb
 17 18 0 0 0
SMALL
GASTEIGER

@<TRIPOS>ATOM
      1  N1        45.1220   37.5920   43.6100 N.2   900  HBI900     -0.2672
      2  N2        44.9070   35.7480   42.2040 N.pl3 900  HBI900     -0.0220
      3  C2        44.3630   36.8300   42.7860 C.1   900  HBI900      0.2609
      4  N3        43.0620   37.1450   42.5380 N.2   900  HBI900     -0.2466
      5  C4        42.4790   38.2280   43.1050 C.1   900  HBI900      0.2569
      6  O4        41.3110   38.5380   42.9020 O.2   900  HBI900     -0.2052
      7  C4A       43.2250   39.0630   43.9780 C.2   900  HBI900      0.2989
      8  C8A       44.6040   38.6900   44.2120 C.1   900  HBI900      0.1401
      9  N8        45.3790   39.4400   45.0330 N.2   900  HBI900     -0.1992
     10  C7        44.9010   40.5950   45.6890 C.3   900  HBI900      0.1940
     11  C6        43.4920   40.9850   45.4600 C.2   900  HBI900      0.1466
     12  N5        42.6790   40.1530   44.5650 N.2   900  HBI900     -0.3830
     13  C9        42.7450   42.1970   46.0700 C.3   900  HBI900      0.2313
     14  O9        43.1320   42.3410   47.4400 O.3   900  HBI900     -0.2130
     15  C10       43.0410   43.5460   45.3430 C.3   900  HBI900      0.1888
     16  O10       44.3780   43.9550   45.6400 O.3   900  HBI900     -0.2200
     17  C11       42.8750   43.4600   43.8520 C.3   900  HBI900      0.0387
@<TRIPOS>BOND
     1     2     3    1
     2     4     3    2
     3     4     5    2
     4     3     1    2
     5     6     5    2
     6     5     7    1
     7     1     8    2
     8    17    15    1
     9     7     8    1
    10     7    12    2
    11     8     9    2
    12    12    11    2
    13     9    10    1
    14    15    16    1
    15    15    13    1
    16    11    10    1
    17    11    13    1
    18    13    14    1
