@<TRIPOS>MOLECULE
1mly_PLP_A_1.pdb
 15 15 0 0 0
SMALL
GASTEIGER

@<TRIPOS>ATOM
      1  N1       -19.2430   -4.6750   22.4150 N.2   730  PLP730     -0.2458
      2  C2       -19.8960   -4.3370   21.3010 C.2   730  PLP730      0.0942
      3  C2A      -21.3370   -4.7390   21.1230 C.3   730  PLP730      0.0552
      4  C3       -19.1980   -3.5680   20.2340 C.2   730  PLP730      0.1899
      5  O3       -19.8120   -3.2560   19.1990 O.2   730  PLP730     -0.2898
      6  C4       -17.7730   -3.1950   20.4400 C.3   730  PLP730      0.0852
      7  C4A      -16.9510   -2.4170   19.4110 C.3   730  PLP730      0.0127
      8  C5       -17.1680   -3.6360   21.7210 C.2   730  PLP730      0.0118
      9  C6       -17.9440   -4.3650   22.6340 C.2   730  PLP730      0.0929
     10  C5A      -15.7110   -3.3010   22.0340 C.3   730  PLP730      0.1779
     11  O4P      -15.6850   -1.8980   22.3320 O.3   730  PLP730     -0.2656
     12  P        -14.2440   -1.2240   22.1240 P.3   730  PLP730      0.5329
     13  O1P      -13.8880   -1.2560   20.6750 O.2   730  PLP730     -0.2224
     14  O2P      -13.1750   -1.9480   22.9030 O.3   730  PLP730     -0.1145
     15  O3P      -14.4380    0.1870   22.7020 O.3   730  PLP730     -0.1145
@<TRIPOS>BOND
     1     5     4    2
     2     7     6    1
     3     4     6    1
     4     4     2    1
     5     6     8    1
     6    13    12    2
     7     3     2    1
     8     2     1    2
     9     8    10    1
    10     8     9    2
    11    10    11    1
    12    12    11    1
    13    12    15    1
    14    12    14    1
    15     1     9    1
