@<TRIPOS>MOLECULE
1mly_ACZ_A_1.pdb
 14 14 0 0 0
SMALL
GASTEIGER

@<TRIPOS>ATOM
      1  NH       -17.7220   -2.1010   18.2100 N.pl3 731  ACZ731     -0.1281
      2  CZ       -17.1240   -2.2980   16.9900 C.ar  731  ACZ731      0.0891
      3  CE2      -17.7440   -1.7360   15.8830 C.ar  731  ACZ731      0.0177
      4  CD2      -17.2230   -1.8740   14.5980 C.ar  731  ACZ731     -0.0029
      5  CG       -16.0640   -2.6010   14.3940 C.ar  731  ACZ731     -0.0220
      6  CD1      -15.4280   -3.1780   15.4970 C.ar  731  ACZ731     -0.0029
      7  CE1      -15.9510   -3.0300   16.7850 C.ar  731  ACZ731      0.0177
      8  CX       -15.4950   -2.7620   12.9950 C.3   731  ACZ731      0.0284
      9  CB       -16.5790   -3.0520   11.9620 C.3   731  ACZ731      0.0353
     10  CA       -15.9590   -3.4910   10.6380 C.3   731  ACZ731      0.1947
     11  N        -15.2590   -4.7630   10.8050 N.3   731  ACZ731     -0.1208
     12  C        -15.0130   -2.4470   10.1470 C.2   731  ACZ731      0.3819
     13  O2       -13.8630   -2.7460    9.8860 O.co2 731  ACZ731     -0.2441
     14  O        -15.3840   -1.2910   10.0130 O.co2 731  ACZ731     -0.2441
@<TRIPOS>BOND
     1    13    12   ar
     2    14    12   ar
     3    12    10    1
     4    10    11    1
     5    10     9    1
     6     9     8    1
     7     8     5    1
     8     5     4   ar
     9     5     6   ar
    10     4     3   ar
    11     6     7   ar
    12     3     2   ar
    13     7     2   ar
    14     2     1    1
