@<TRIPOS>MOLECULE
1mlz_TZA_A_1.pdb
 14 14 0 0 0
SMALL
GASTEIGER

@<TRIPOS>ATOM
      1  NH        61.9800   -2.6980   36.4090 N.pl3 431  TZA431     -0.1281
      2  CZ        61.4240   -2.5620   37.6390 C.ar  431  TZA431      0.0891
      3  CE2       62.0120   -1.6630   38.5090 C.ar  431  TZA431      0.0177
      4  CD2       61.5070   -1.4740   39.7980 C.ar  431  TZA431     -0.0029
      5  CE1       60.3300   -3.3120   38.0720 C.ar  431  TZA431      0.0177
      6  CD1       59.8340   -3.1240   39.3570 C.ar  431  TZA431     -0.0029
      7  CG        60.3790   -2.1810   40.2160 C.ar  431  TZA431     -0.0220
      8  CX        59.8570   -2.2390   41.6210 C.3   431  TZA431      0.0284
      9  CB        60.5160   -3.3310   42.4650 C.3   431  TZA431      0.0353
     10  CA        60.0490   -3.3220   43.9430 C.3   431  TZA431      0.1947
     11  N         58.8480   -4.1290   44.0310 N.3   431  TZA431     -0.1208
     12  C         59.6760   -1.9780   44.4830 C.2   431  TZA431      0.3819
     13  O         58.5230   -1.6010   44.4050 O.co2 431  TZA431     -0.2441
     14  O2        60.4700   -1.2550   45.0300 O.co2 431  TZA431     -0.2441
@<TRIPOS>BOND
     1     1     2    1
     2     2     5   ar
     3     2     3   ar
     4     5     6   ar
     5     3     4   ar
     6     6     7   ar
     7     4     7   ar
     8     7     8    1
     9     8     9    1
    10     9    10    1
    11    10    11    1
    12    10    12    1
    13    13    12   ar
    14    12    14   ar
