@<TRIPOS>MOLECULE
1mlz_PLP_A_1.pdb
 15 15 0 0 0
SMALL
GASTEIGER

@<TRIPOS>ATOM
      1  N1        63.5190   -4.8000   32.1300 N.2   430  PLP430     -0.2458
      2  C2        64.1780   -4.4280   33.2300 C.2   430  PLP430      0.0942
      3  C2A       65.6010   -4.8610   33.3900 C.3   430  PLP430      0.0552
      4  C3        63.5380   -3.6200   34.3120 C.2   430  PLP430      0.1899
      5  O3        64.1730   -3.3020   35.3670 O.2   430  PLP430     -0.2898
      6  C4        62.1380   -3.2290   34.0890 C.3   430  PLP430      0.0852
      7  C4A       61.3570   -2.4180   35.1170 C.3   430  PLP430      0.0127
      8  C5        61.5210   -3.6950   32.8250 C.2   430  PLP430      0.0118
      9  C6        62.2480   -4.4540   31.9050 C.2   430  PLP430      0.0929
     10  C5A       60.1010   -3.3270   32.5260 C.3   430  PLP430      0.1779
     11  O4P       60.0500   -1.9070   32.3260 O.3   430  PLP430     -0.2656
     12  P         58.6360   -1.1470   32.4890 P.3   430  PLP430      0.5329
     13  O1P       57.6640   -1.9370   31.6760 O.2   430  PLP430     -0.2224
     14  O2P       58.9010    0.2630   31.9460 O.3   430  PLP430     -0.1145
     15  O3P       58.2930   -1.3500   33.9060 O.3   430  PLP430     -0.1145
@<TRIPOS>BOND
     1    13    12    2
     2     9     1    1
     3     9     8    2
     4    14    12    1
     5     1     2    2
     6    11    12    1
     7    11    10    1
     8    12    15    1
     9    10     8    1
    10     8     6    1
    11     2     3    1
    12     2     4    1
    13     6     4    1
    14     6     7    1
    15     4     5    2
