@<TRIPOS>MOLECULE
1mm6_QUS_A_1.pdb
 13 13 0 0 0
SMALL
GASTEIGER

@<TRIPOS>ATOM
      1  C01       31.4820   53.5320    6.4030 C.2   500  QUS500      0.3838
      2  C02       31.2240   53.7010    4.9040 C.3   500  QUS500      0.2184
      3  C03       32.1030   54.8840    4.4700 C.3   500  QUS500      0.1793
      4  C04       33.5190   53.7800    2.6490 C.1   500  QUS500      0.3141
      5  C05       32.2350   54.4870    0.9390 C.1   500  QUS500      0.4071
      6  NP3       29.7520   53.8920    4.7920 N.3   500  QUS500     -0.1188
      7  N14       32.6260   54.7210    3.1040 N.am  500  QUS500     -0.0527
      8  N15       33.2570   53.6660    1.3270 N.2   500  QUS500     -0.2120
      9  O16       30.5110   53.5130    7.1890 O.co2 500  QUS500     -0.2440
     10  O17       32.6770   53.4180    6.7760 O.co2 500  QUS500     -0.2440
     11  O18       34.3390   53.2160    3.3450 O.2   500  QUS500     -0.1893
     12  O19       31.7230   54.6570   -0.1470 O.2   500  QUS500     -0.1667
     13  O20       31.8060   55.1660    2.0290 O.3   500  QUS500     -0.2752
@<TRIPOS>BOND
     1    12     5    2
     2     5     8    2
     3     5    13    1
     4     8     4    2
     5    13     7    1
     6     4     7   am
     7     4    11    2
     8     7     3    1
     9     3     2    1
    10     6     2    1
    11     2     1    1
    12     1    10   ar
    13     1     9   ar
