@<TRIPOS>MOLECULE
1mm7_QUS_A_1.pdb
 13 13 0 0 0
SMALL
GASTEIGER

@<TRIPOS>ATOM
      1  C01       76.3200   25.9240   44.9670 C.2   801  QUS801      0.3838
      2  C02       76.2290   26.2240   43.4660 C.3   801  QUS801      0.2184
      3  C03       77.6700   26.5420   43.0440 C.3   801  QUS801      0.1793
      4  C04       77.9500   24.8220   41.1760 C.1   801  QUS801      0.3141
      5  C05       77.3830   26.2010   39.4900 C.1   801  QUS801      0.4071
      6  NP3       75.2300   27.3370   43.3670 N.3   801  QUS801     -0.1188
      7  N14       77.9110   26.1050   41.6570 N.am  801  QUS801     -0.0527
      8  N15       77.6320   24.9180   39.8630 N.2   801  QUS801     -0.2120
      9  O16       75.5970   26.5530   45.7490 O.co2 801  QUS801     -0.2440
     10  O17       77.1170   25.0430   45.3260 O.co2 801  QUS801     -0.2440
     11  O18       78.2130   23.8670   41.8330 O.2   801  QUS801     -0.1893
     12  O19       77.0700   26.6560   38.4150 O.2   801  QUS801     -0.1667
     13  O20       77.5450   26.9980   40.5930 O.3   801  QUS801     -0.2752
@<TRIPOS>BOND
     1    12     5    2
     2     5     8    2
     3     5    13    1
     4     8     4    2
     5    13     7    1
     6     4     7   am
     7     4    11    2
     8     7     3    1
     9     3     2    1
    10     6     2    1
    11     2     1    1
    12     1    10   ar
    13     1     9   ar
