@<TRIPOS>MOLECULE
1mma_ADP_A_1.pdb
 27 29 0 0 0
SMALL
GASTEIGER

@<TRIPOS>ATOM
      1  PB        17.4720   56.4940    5.8030 P.3   999  ADP999      0.5373
      2  O1B       17.9820   55.1300    5.9680 O.3   999  ADP999     -0.1143
      3  O2B       17.9860   57.4920    6.8140 O.3   999  ADP999     -0.1143
      4  O3B       17.8350   57.1020    4.3520 O.2   999  ADP999     -0.2221
      5  PA        14.7280   57.0100    6.8020 P.3   999  ADP999      0.2231
      6  O1A       14.8130   56.7160    8.2970 O.3   999  ADP999     -0.4370
      7  O2A       14.8610   58.4600    6.5520 O.2   999  ADP999     -0.5169
      8  O3A       15.9120   56.2480    6.0210 O.3   999  ADP999     -0.2261
      9  O5'       13.3240   56.4360    6.1960 O.3   999  ADP999     -0.3111
     10  C5'       12.8070   57.1350    5.0390 C.3   999  ADP999      0.1813
     11  C4'       11.3520   56.9880    5.1800 C.3   999  ADP999      0.1821
     12  O4'       11.0940   55.5790    5.4490 O.3   999  ADP999     -0.3135
     13  C3'       10.8630   57.6140    6.4390 C.3   999  ADP999      0.2184
     14  O3'       10.7950   59.0360    6.3600 O.3   999  ADP999     -0.2174
     15  C2'        9.5720   56.8150    6.6200 C.3   999  ADP999      0.2570
     16  O2'        8.5340   57.1350    5.7070 O.3   999  ADP999     -0.2130
     17  C1'       10.0770   55.4470    6.3610 C.3   999  ADP999      0.3186
     18  N9        10.5060   54.8570    7.6440 N.pl3 999  ADP999     -0.1439
     19  C8        11.6920   54.4170    8.1040 C.3   999  ADP999      0.3377
     20  N7        11.5910   53.6600    9.2130 N.2   999  ADP999     -0.2095
     21  C5        10.2570   53.7470    9.5300 C.2   999  ADP999      0.2526
     22  C6         9.5200   53.2450   10.6400 C.2   999  ADP999      0.4393
     23  N6         9.9140   52.5420   11.5900 N.pl3 999  ADP999      0.2180
     24  N1         8.2000   53.5450   10.5790 N.2   999  ADP999      0.0021
     25  C2         7.6320   54.3320    9.5800 C.3   999  ADP999      0.5254
     26  N3         8.2890   54.8630    8.5690 N.2   999  ADP999     -0.0055
     27  C4         9.6100   54.5490    8.6170 C.2   999  ADP999      0.3518
@<TRIPOS>BOND
     1     4     1    2
     2    10    11    1
     3    10     9    1
     4    11    12    1
     5    11    13    1
     6    12    17    1
     7    16    15    1
     8     1     2    1
     9     1     8    1
    10     1     3    1
    11     8     5    1
    12     9     5    1
    13    14    13    1
    14    17    15    1
    15    17    18    1
    16    13    15    1
    17     7     5    2
    18     5     6    1
    19    18    19    1
    20    18    27    1
    21    19    20    1
    22    26    27    2
    23    26    25    1
    24    27    21    1
    25    20    21    2
    26    21    22    1
    27    25    24    1
    28    24    22    2
    29    22    23    1
