@<TRIPOS>MOLECULE
1mmb_BAT_A_1.pdb
 36 37 0 0 0
SMALL
GASTEIGER

@<TRIPOS>ATOM
      1  C1        27.7080   60.0980   53.0410 C.3     1  BAT1        0.0982
      2  C2        26.7150   59.5580   54.0510 C.2     1  BAT1        0.2452
      3  C3        28.9930   60.5070   53.7690 C.3     1  BAT1        0.0723
      4  C4        28.7630   61.0830   56.3600 C.ar    1  BAT1        0.0546
      5  C5        29.8510   60.5540   57.0380 C.ar    1  BAT1        0.0132
      6  C6        29.5700   59.9800   58.2760 C.ar    1  BAT1        0.0080
      7  C7        28.2140   60.0110   58.6560 C.ar    1  BAT1        0.0359
      8  C8        28.0460   59.0400   51.9280 C.3     1  BAT1        0.0860
      9  C9        26.7720   58.5460   51.1770 C.3     1  BAT1        0.0096
     10  C10       26.8520   57.5350   50.0110 C.3     1  BAT1        0.0005
     11  C11       27.0410   56.1470   50.5020 C.3     1  BAT1        0.0000
     12  C12       25.5990   57.5570   49.1720 C.3     1  BAT1        0.0000
     13  C13       29.0080   59.7850   50.9680 C.2     1  BAT1        0.2228
     14  C14       31.2280   59.8340   49.9650 C.3     1  BAT1        0.1529
     15  C15       31.3620   59.0780   48.6370 C.2     1  BAT1        0.2407
     16  C16       31.7840   59.2340   46.2180 C.3     1  BAT1        0.1107
     17  C17       32.5920   59.8500   50.6920 C.3     1  BAT1        0.0553
     18  C18       32.5130   60.0700   52.2080 C.ar    1  BAT1       -0.0200
     19  C19       31.9040   59.1150   53.0530 C.ar    1  BAT1       -0.0042
     20  C20       31.9120   59.2580   54.4580 C.ar    1  BAT1       -0.0003
     21  C21       32.5270   60.3570   55.0210 C.ar    1  BAT1       -0.0000
     22  C22       33.1340   61.3240   54.1970 C.ar    1  BAT1       -0.0003
     23  C23       33.1230   61.1780   52.8010 C.ar    1  BAT1       -0.0042
     24  N1        25.5770   60.2040   54.1780 N.am    1  BAT1       -0.1969
     25  N2        30.2070   59.2210   50.7990 N.am    1  BAT1       -0.2981
     26  N3        31.6230   59.8190   47.5520 N.am    1  BAT1       -0.3013
     27  O1        26.9850   58.6160   54.7440 O.2     1  BAT1       -0.2730
     28  O2        24.5090   59.5670   54.8300 O.3     1  BAT1       -0.2952
     29  O3        28.6800   60.8710   50.4400 O.2     1  BAT1       -0.2751
     30  O4        31.2280   57.8440   48.6060 O.2     1  BAT1       -0.2733
     31  S1        28.8190   61.9170   54.8320 S.3     1  BAT1       -0.1067
     32  S2        27.2620   60.8370   57.3160 S.2     1  BAT1       -0.0802
     33  HN1       25.5520   61.1380   53.8350 H       1  BAT1        0.1822
     34  HN2       30.3840   58.3500   51.2110 H       1  BAT1        0.1498
     35  HN3       31.6800   60.7920   47.6670 H       1  BAT1        0.1495
     36  HO2       24.0700   60.1880   55.4310 H       1  BAT1        0.2414
@<TRIPOS>BOND
     1    16    26    1
     2    26    35    1
     3    26    15   am
     4    30    15    2
     5    15    14    1
     6    12    10    1
     7    14    17    1
     8    14    25    1
     9    10    11    1
    10    10     9    1
    11    29    13    2
    12    17    18    1
    13    25    13   am
    14    25    34    1
    15    13     8    1
    16     9     8    1
    17     8     1    1
    18    18    23   ar
    19    18    19   ar
    20    23    22   ar
    21     1     3    1
    22     1     2    1
    23    19    20   ar
    24     3    31    1
    25    33    24    1
    26     2    24   am
    27     2    27    2
    28    24    28    1
    29    22    21   ar
    30    20    21   ar
    31    28    36    1
    32    31     4    1
    33     4     5   ar
    34     4    32   ar
    35     5     6   ar
    36    32     7   ar
    37     6     7   ar
