@<TRIPOS>MOLECULE
1mmd_ADP_A_1.pdb
 27 29 0 0 0
SMALL
GASTEIGER

@<TRIPOS>ATOM
      1  PB        18.6360   57.2550    5.7450 P.3   999  ADP999      0.5373
      2  O1B       19.1120   55.8680    5.9660 O.3   999  ADP999     -0.1143
      3  O2B       19.1370   58.2380    6.7670 O.3   999  ADP999     -0.1143
      4  O3B       19.0420   57.7390    4.3200 O.2   999  ADP999     -0.2221
      5  PA        15.9470   58.0570    6.6590 P.3   999  ADP999      0.2231
      6  O1A       16.1470   57.8420    8.1400 O.3   999  ADP999     -0.4370
      7  O2A       16.0230   59.4880    6.3580 O.2   999  ADP999     -0.5169
      8  O3A       16.9660   57.2200    5.8180 O.3   999  ADP999     -0.2261
      9  O5'       14.5050   57.4120    6.1700 O.3   999  ADP999     -0.3111
     10  C5'       13.9660   57.7300    4.8540 C.3   999  ADP999      0.1813
     11  C4'       12.4830   57.9560    5.0300 C.3   999  ADP999      0.1821
     12  O4'       11.9320   56.6600    5.3690 O.3   999  ADP999     -0.3135
     13  C3'       12.1830   58.7970    6.2560 C.3   999  ADP999      0.2184
     14  O3'       12.1740   60.2100    5.9760 O.3   999  ADP999     -0.2174
     15  C2'       10.8930   58.2000    6.7360 C.3   999  ADP999      0.2570
     16  O2'        9.8450   58.6100    5.8500 O.3   999  ADP999     -0.2130
     17  C1'       11.1370   56.7600    6.4880 C.3   999  ADP999      0.3186
     18  N9        11.5380   55.9310    7.6020 N.pl3 999  ADP999     -0.1439
     19  C8        12.7200   55.3320    7.8680 C.3   999  ADP999      0.3377
     20  N7        12.6580   54.4960    8.9090 N.2   999  ADP999     -0.2095
     21  C5        11.3490   54.6560    9.3890 C.2   999  ADP999      0.2526
     22  C6        10.6280   54.0830   10.4870 C.2   999  ADP999      0.4393
     23  N6        11.0660   53.2540   11.4020 N.pl3 999  ADP999      0.2180
     24  N1         9.3330   54.4550   10.6840 N.2   999  ADP999      0.0021
     25  C2         8.7910   55.3400    9.7750 C.3   999  ADP999      0.5254
     26  N3         9.3460   55.9100    8.7220 N.2   999  ADP999     -0.0055
     27  C4        10.6540   55.5340    8.5870 C.2   999  ADP999      0.3518
@<TRIPOS>BOND
     1     4     1    2
     2    10    11    1
     3    10     9    1
     4    11    12    1
     5    11    13    1
     6    12    17    1
     7     1     8    1
     8     1     2    1
     9     1     3    1
    10     8     5    1
    11    16    15    1
    12    14    13    1
    13     9     5    1
    14    13    15    1
    15     7     5    2
    16    17    15    1
    17    17    18    1
    18     5     6    1
    19    18    19    1
    20    18    27    1
    21    19    20    1
    22    27    26    2
    23    27    21    1
    24    26    25    1
    25    20    21    2
    26    21    22    1
    27    25    24    1
    28    22    24    2
    29    22    23    1
