@<TRIPOS>MOLECULE
1mmg_AGS_A_1.pdb
 31 33 0 0 0
SMALL
GASTEIGER

@<TRIPOS>ATOM
      1  PG        19.2680   31.7700   23.1260 P.3   999  AGS999      0.4340
      2  S1G       21.0650   32.6390   23.4130 S.3   999  AGS999      0.0416
      3  O2G       18.7130   31.3670   24.5460 O.3   999  AGS999     -0.1305
      4  O3G       19.4190   30.5620   22.2200 O.2   999  AGS999     -0.2423
      5  PB        17.8660   33.3700   21.0890 P.3   999  AGS999      0.2262
      6  O1B       18.3810   34.7360   20.9240 O.3   999  AGS999     -0.4369
      7  O2B       18.3640   32.2760   20.1120 O.2   999  AGS999     -0.5168
      8  O3B       18.1730   32.8410   22.5840 O.3   999  AGS999     -0.2405
      9  PA        15.2230   32.6800   20.3230 P.3   999  AGS999      0.2189
     10  O1A       15.3010   32.9390   18.7690 O.2   999  AGS999     -0.5170
     11  O2A       15.2700   31.1690   20.5720 O.3   999  AGS999     -0.4371
     12  O3A       16.2960   33.4290   21.1450 O.3   999  AGS999     -0.2701
     13  O5'       13.8950   33.4090   20.8700 O.3   999  AGS999     -0.3112
     14  C5'       13.1560   32.7870   21.9520 C.3   999  AGS999      0.1813
     15  C4'       11.6710   32.8790   21.6450 C.3   999  AGS999      0.1821
     16  O4'       11.3380   34.2390   21.2980 O.3   999  AGS999     -0.3135
     17  C3'       11.2030   32.0980   20.4200 C.3   999  AGS999      0.2184
     18  O3'       11.2270   30.6450   20.5930 O.3   999  AGS999     -0.2174
     19  C2'        9.8700   32.8450   20.2120 C.3   999  AGS999      0.2570
     20  O2'        8.8530   32.5910   21.2050 O.3   999  AGS999     -0.2130
     21  C1'       10.3150   34.2610   20.3960 C.3   999  AGS999      0.3186
     22  N9        10.7000   34.8970   19.1530 N.pl3 999  AGS999     -0.1439
     23  C8        11.9020   35.2710   18.6650 C.3   999  AGS999      0.3377
     24  N7        11.7910   36.0620   17.5880 N.2   999  AGS999     -0.2095
     25  C5        10.4240   36.0810   17.3380 C.2   999  AGS999      0.2526
     26  C6         9.6560   36.7020   16.3260 C.2   999  AGS999      0.4393
     27  N6        10.0640   37.4030   15.3770 N.pl3 999  AGS999      0.2180
     28  N1         8.3220   36.4530   16.4680 N.2   999  AGS999      0.0021
     29  C2         7.7520   35.7430   17.4940 C.3   999  AGS999      0.5254
     30  N3         8.4320   35.1560   18.4400 N.2   999  AGS999     -0.0055
     31  C4         9.7620   35.3450   18.2880 C.2   999  AGS999      0.3518
@<TRIPOS>BOND
     1    27    26    1
     2    26    28    2
     3    26    25    1
     4    28    29    1
     5    25    24    2
     6    25    31    1
     7    29    30    1
     8    24    23    1
     9    31    30    2
    10    31    22    1
    11    23    22    1
    12    10     9    2
    13    22    21    1
    14     7     5    2
    15    19    21    1
    16    19    17    1
    17    19    20    1
    18     9    11    1
    19     9    13    1
    20     9    12    1
    21    21    16    1
    22    17    18    1
    23    17    15    1
    24    13    14    1
    25     6     5    1
    26     5    12    1
    27     5     8    1
    28    16    15    1
    29    15    14    1
    30     4     1    2
    31     8     1    1
    32     1     2    1
    33     1     3    1
