@<TRIPOS>MOLECULE
1mmj_FR1_N_1.pdb
 40 41 0 0 0
SMALL
GASTEIGER

@<TRIPOS>ATOM
      1  C1       -17.6720   18.5110   41.0460 C.ar  241  FR1241      0.0047
      2  C2       -18.1870   18.0310   42.2030 C.ar  241  FR1241      0.0047
      3  C3       -17.9500   16.7420   42.6760 C.ar  241  FR1241      0.0551
      4  C4       -18.6630   16.2240   43.8950 C.2   241  FR1241      0.2653
      5  N5       -18.2930   14.9910   44.5230 N.am  241  FR1241     -0.1894
      6  O6       -19.5930   16.8740   44.3380 O.2   241  FR1241     -0.2684
      7  C7       -17.1000   15.9220   41.9780 C.ar  241  FR1241      0.0047
      8  C8       -16.5710   16.4050   40.7720 C.ar  241  FR1241      0.0047
      9  C9       -16.8510   17.6950   40.2880 C.ar  241  FR1241      0.0551
     10  C10      -16.2640   18.1240   38.9960 C.2   241  FR1241      0.2652
     11  O11      -16.2440   17.5270   37.8970 O.2   241  FR1241     -0.2684
     12  N12      -15.6040   19.2150   39.1010 N.am  241  FR1241     -0.1941
     13  C13      -14.8030   19.6290   37.9650 C.3   241  FR1241      0.1715
     14  C14      -15.5110   20.7220   37.0580 C.3   241  FR1241      0.0289
     15  C15      -14.5300   21.2290   36.0110 C.3   241  FR1241      0.0023
     16  C16      -16.7730   20.3490   36.3150 C.3   241  FR1241      0.0023
     17  C17      -13.5370   20.3480   38.5120 C.2   241  FR1241      0.2458
     18  O18      -13.5340   21.5600   38.7580 O.2   241  FR1241     -0.2730
     19  N19      -12.3870   19.6190   38.6450 N.am  241  FR1241     -0.2716
     20  C20      -11.0720   20.3270   38.9630 C.3   241  FR1241      0.1535
     21  C21      -10.0570   19.2220   38.7500 C.3   241  FR1241      0.0310
     22  C22      -10.8620   17.9100   38.9740 C.3   241  FR1241      0.0237
     23  C23      -12.3020   18.1750   38.5150 C.3   241  FR1241      0.0939
     24  C24      -10.6070   21.4780   38.0170 C.2   241  FR1241      0.2595
     25  O25      -10.4260   21.2710   36.8210 O.2   241  FR1241     -0.2716
     26  N26      -10.3280   22.6170   38.5240 N.am  241  FR1241     -0.2029
     27  C27      -10.0140   23.7380   37.6060 C.3   241  FR1241      0.1342
     28  C28      -10.9400   24.9570   38.0240 C.3   241  FR1241      0.0229
     29  C29      -12.3730   24.5890   37.6590 C.3   241  FR1241      0.0019
     30  C30      -10.9070   25.2660   39.4730 C.3   241  FR1241      0.0019
     31  C31       -8.4380   23.8240   37.4330 C.3   241  FR1241      0.2656
     32  O32       -8.1030   24.9910   36.8310 O.3   241  FR1241     -0.2121
     33  C33       -7.9360   22.7070   36.3830 C.3   241  FR1241      0.4269
     34  F34       -8.5630   22.8780   35.3930 F     241  FR1241     -0.1673
     35  F35       -6.7010   22.6970   36.0610 F     241  FR1241     -0.1673
     36  F36       -8.1010   21.5180   36.7870 F     241  FR1241     -0.1673
     37  C37      -18.9050   14.7850   45.8510 C.3   241  FR1241      0.2288
     38  C38      -18.9360   13.5150   46.7700 C.2   241  FR1241      0.3865
     39  O39      -20.0030   13.4300   47.4460 O.co2 241  FR1241     -0.2437
     40  O40      -17.9790   12.7130   46.8250 O.co2 241  FR1241     -0.2437
@<TRIPOS>BOND
     1    34    33    1
     2    15    14    1
     3    35    33    1
     4    16    14    1
     5    33    36    1
     6    33    31    1
     7    25    24    2
     8    32    31    1
     9    14    13    1
    10    31    27    1
    11    27    28    1
    12    27    26    1
    13    29    28    1
    14    11    10    2
    15    13    17    1
    16    13    12    1
    17    24    26   am
    18    24    20    1
    19    28    30    1
    20    17    19   am
    21    17    18    2
    22    23    19    1
    23    23    22    1
    24    19    20    1
    25    21    20    1
    26    21    22    1
    27    10    12   am
    28    10     9    1
    29     9     8   ar
    30     9     1   ar
    31     8     7   ar
    32     1     2   ar
    33     7     3   ar
    34     2     3   ar
    35     3     4    1
    36     4     6    2
    37     4     5   am
    38     5    37    1
    39    37    38    1
    40    38    40   ar
    41    38    39   ar
