@<TRIPOS>MOLECULE
1mmk_H4B_A_1.pdb
 17 18 0 0 0
SMALL
GASTEIGER

@<TRIPOS>ATOM
      1  N1        -5.8020   22.4160    8.1870 N.2   1427  H4B1427    -0.2683
      2  C2        -4.8240   21.5300    8.5420 C.1   1427  H4B1427     0.2608
      3  N2        -5.0820   20.3210    9.0470 N.pl3 1427  H4B1427    -0.0220
      4  N3        -3.5240   21.9290    8.3720 N.2   1427  H4B1427    -0.2474
      5  C4        -3.0960   23.1940    7.8270 C.1   1427  H4B1427     0.2441
      6  O4        -1.8860   23.4120    7.7360 O.2   1427  H4B1427    -0.2063
      7  C4A       -4.1900   24.0690    7.4850 C.2   1427  H4B1427     0.2463
      8  C8A       -5.5330   23.6800    7.6490 C.1   1427  H4B1427     0.1270
      9  N5        -3.9030   25.4090    6.9150 N.2   1427  H4B1427    -0.2460
     10  N8        -6.5680   24.4850    7.3240 N.2   1427  H4B1427    -0.2054
     11  C6        -5.0190   26.4600    7.1620 C.3   1427  H4B1427     0.1627
     12  C7        -6.3730   25.8470    6.7490 C.3   1427  H4B1427     0.1643
     13  C9        -4.5330   27.7710    6.4370 C.3   1427  H4B1427     0.2063
     14  O9        -4.2840   27.5580    5.0420 O.3   1427  H4B1427    -0.2183
     15  C10       -5.5210   28.9940    6.5360 C.3   1427  H4B1427     0.1842
     16  C11       -5.8050   29.4250    7.9370 C.3   1427  H4B1427     0.0383
     17  O10       -6.7240   28.6470    5.8410 O.3   1427  H4B1427    -0.2204
@<TRIPOS>BOND
     1    14    13    1
     2    17    15    1
     3    13    15    1
     4    13    11    1
     5    15    16    1
     6    12    11    1
     7    12    10    1
     8     9    11    1
     9     9     7    2
    10    10     8    2
    11     7     8    1
    12     7     5    1
    13     8     1    2
    14     6     5    2
    15     5     4    2
    16     1     2    2
    17     4     2    2
    18     2     3    1
