@<TRIPOS>MOLECULE
1mmk_TIH_A_1.pdb
 11 11 0 0 0
SMALL
GASTEIGER

@<TRIPOS>ATOM
      1  N          1.8240   22.8140   -1.5800 N.3   428  TIH428     -0.1204
      2  CA         2.4330   22.5170   -0.2500 C.3   428  TIH428      0.1992
      3  C          3.4970   21.4300   -0.3470 C.2   428  TIH428      0.3822
      4  O          3.6450   20.8390   -1.4360 O.co2 428  TIH428     -0.2440
      5  OXT        4.0320   21.0500    0.7170 O.co2 428  TIH428     -0.2440
      6  CB         1.3610   22.0730    0.7470 C.3   428  TIH428      0.0635
      7  CG         0.3810   23.1480    1.1930 C.ar  428  TIH428      0.0093
      8  CD         0.6030   24.5180    1.1250 C.ar  428  TIH428      0.0027
      9  CE1       -0.5000   25.3150    1.6270 C.ar  428  TIH428      0.0072
     10  CE2       -1.5890   24.5330    2.0900 C.ar  428  TIH428      0.0351
     11  SD        -1.1280   22.8930    1.8520 S.2   428  TIH428     -0.0907
@<TRIPOS>BOND
     1     1     2    1
     2     4     3   ar
     3     3     2    1
     4     3     5   ar
     5     2     6    1
     6     6     7    1
     7     8     7   ar
     8     8     9   ar
     9     7    11   ar
    10     9    10   ar
    11    11    10   ar
