@<TRIPOS>MOLECULE
1mmn_ANP_A_1.pdb
 31 33 0 0 0
SMALL
GASTEIGER

@<TRIPOS>ATOM
      1  PG        32.8120   58.4010   23.1380 P.3   999  ANP999      0.4884
      2  O1G       31.6000   57.5270   23.3220 O.3   999  ANP999     -0.1240
      3  O2G       33.2320   59.1010   24.4080 O.3   999  ANP999     -0.1240
      4  O3G       32.5590   59.6040   22.1310 O.2   999  ANP999     -0.2331
      5  PB        34.3360   56.7450   21.1390 P.3   999  ANP999      0.4669
      6  O1B       33.7230   55.4430   21.0080 O.3   999  ANP999     -0.1253
      7  O2B       33.8340   57.6960   20.0650 O.2   999  ANP999     -0.2351
      8  N3B       34.0280   57.4160   22.6350 N.3   999  ANP999     -0.0163
      9  PA        37.0240   57.3440   20.0800 P.3   999  ANP999      0.2220
     10  O1A       36.6920   56.9260   18.6030 O.2   999  ANP999     -0.5170
     11  O2A       37.0120   58.8130   20.3190 O.3   999  ANP999     -0.4370
     12  O3A       35.9460   56.6100   21.0260 O.3   999  ANP999     -0.2360
     13  O5'       38.4600   56.7270   20.4690 O.3   999  ANP999     -0.3111
     14  C5'       38.9900   57.0450   21.7830 C.3   999  ANP999      0.1813
     15  C4'       40.5130   57.1600   21.6860 C.3   999  ANP999      0.1821
     16  O4'       41.0170   55.8530   21.3710 O.3   999  ANP999     -0.3135
     17  C3'       40.9360   57.9580   20.4690 C.3   999  ANP999      0.2184
     18  O3'       40.9540   59.3450   20.7860 O.3   999  ANP999     -0.2174
     19  C2'       42.2670   57.3640   20.2520 C.3   999  ANP999      0.2570
     20  O2'       43.0740   57.6950   21.4080 O.3   999  ANP999     -0.2130
     21  C1'       41.9270   55.9310   20.3640 C.3   999  ANP999      0.3186
     22  N9        41.4840   55.2590   19.1610 N.pl3 999  ANP999     -0.1439
     23  C8        40.2850   54.8000   18.8280 C.3   999  ANP999      0.3377
     24  N7        40.3160   53.9750   17.7880 N.2   999  ANP999     -0.2095
     25  C5        41.6340   53.9910   17.3810 C.2   999  ANP999      0.2526
     26  C6        42.3140   53.3810   16.2660 C.2   999  ANP999      0.4393
     27  N6        41.8880   52.5760   15.3760 N.pl3 999  ANP999      0.2180
     28  N1        43.6300   53.6560   16.2950 N.2   999  ANP999      0.0021
     29  C2        44.2480   54.4650   17.1960 C.3   999  ANP999      0.5254
     30  N3        43.6390   55.0650   18.1790 N.2   999  ANP999     -0.0055
     31  C4        42.3330   54.8060   18.2150 C.2   999  ANP999      0.3518
@<TRIPOS>BOND
     1    27    26    1
     2    26    28    2
     3    26    25    1
     4    28    29    1
     5    29    30    1
     6    25    24    2
     7    25    31    1
     8    24    23    1
     9    30    31    2
    10    31    22    1
    11    10     9    2
    12    23    22    1
    13    22    21    1
    14     7     5    2
    15     9    11    1
    16     9    13    1
    17     9    12    1
    18    19    21    1
    19    19    17    1
    20    19    20    1
    21    21    16    1
    22    13    14    1
    23    17    18    1
    24    17    15    1
    25     6     5    1
    26    12     5    1
    27     5     8    1
    28    16    15    1
    29    15    14    1
    30     4     1    2
    31     8     1    1
    32     1     2    1
    33     1     3    1
