@<TRIPOS>MOLECULE
1mmp_RSS_A_1.pdb
 32 34 0 0 0
SMALL
GASTEIGER

@<TRIPOS>ATOM
      1  C1        34.3150   32.7710   21.9590 C.2   269  RSS269      0.3654
      2  O1        33.8540   32.8830   23.2030 O.co2 269  RSS269     -0.2456
      3  O2        34.7130   33.8610   21.5210 O.co2 269  RSS269     -0.2456
      4  C2        34.4410   31.4420   21.2510 C.3   269  RSS269      0.1231
      5  C3        35.9220   31.1380   21.0720 C.3   269  RSS269      0.0895
      6  C4        36.0260   30.2010   19.8880 C.2   269  RSS269      0.2424
      7  O3        35.5100   29.0860   19.9280 O.2   269  RSS269     -0.2733
      8  N2        36.6580   30.6500   18.8030 N.am  269  RSS269     -0.1898
      9  C5        36.7970   29.8680   17.5890 C.3   269  RSS269      0.2044
     10  C6        38.0260   29.0250   17.6040 C.1   269  RSS269      0.1461
     11  O4        39.0970   29.5360   17.9300 O.2   269  RSS269     -0.2253
     12  N3        37.8950   27.7680   17.2030 N.2   269  RSS269     -0.2049
     13  C7        39.0100   26.8210   17.1010 C.3   269  RSS269      0.1376
     14  C8        38.5600   25.6840   16.1290 C.3   269  RSS269      0.0272
     15  C9        38.1780   26.1290   14.6780 C.3   269  RSS269      0.0021
     16  C10       39.3240   26.6710   13.8170 C.3   269  RSS269      0.0021
     17  C11       38.8370   27.1290   12.4140 C.3   269  RSS269      0.0245
     18  C12       38.6540   28.6540   12.1830 C.3   269  RSS269      0.1061
     19  N4        37.7130   29.2000   13.1630 N.ar  269  RSS269     -0.3263
     20  C13       36.5360   30.5250   22.3350 C.3   269  RSS269      0.0097
     21  C14       38.0370   30.1810   22.2710 C.3   269  RSS269      0.0005
     22  C15       38.9070   31.4440   22.0820 C.3   269  RSS269      0.0000
     23  C16       38.3630   29.3990   23.5420 C.3   269  RSS269      0.0000
     24  C17       36.8240   30.8400   16.3860 C.3   269  RSS269      0.0666
     25  C18       36.8880   30.1290   15.0890 C.ar  269  RSS269     -0.0007
     26  C19       38.0300   29.8620   14.3260 C.ar  269  RSS269      0.0716
     27  C20       35.8170   29.5940   14.3400 C.ar  269  RSS269      0.0134
     28  C21       36.3690   29.0290   13.1480 C.ar  269  RSS269      0.0596
     29  C22       34.4300   29.5530   14.5720 C.ar  269  RSS269      0.0012
     30  C23       35.5420   28.4270   12.2060 C.ar  269  RSS269      0.0172
     31  C24       33.6210   28.9550   13.6150 C.ar  269  RSS269      0.0001
     32  C25       34.1770   28.3990   12.4480 C.ar  269  RSS269      0.0015
@<TRIPOS>BOND
     1    18    17    1
     2    18    19    1
     3    30    32   ar
     4    30    28   ar
     5    17    16    1
     6    32    31   ar
     7    28    19   ar
     8    28    27   ar
     9    19    26   ar
    10    31    29   ar
    11    16    15    1
    12    26    25   ar
    13    27    29   ar
    14    27    25   ar
    15    15    14    1
    16    25    24    1
    17    14    13    1
    18    24     9    1
    19    13    12    1
    20    12    10    2
    21     9    10    1
    22     9     8    1
    23    10    11    2
    24     8     6   am
    25     6     7    2
    26     6     5    1
    27     5     4    1
    28     5    20    1
    29     4     1    1
    30     3     1   ar
    31     1     2   ar
    32    22    21    1
    33    21    20    1
    34    21    23    1
