@<TRIPOS>MOLECULE
1mmq_RRS_A_1.pdb
 33 35 0 0 0
SMALL
GASTEIGER

@<TRIPOS>ATOM
      1  C1        47.9690  -40.9710   50.9150 C.2   269  RRS269      0.0873
      2  O2        46.7560  -40.8270   50.6010 O.2   269  RRS269     -0.5395
      3  N1        48.6030  -41.4840   51.9510 N.am  269  RRS269     -0.2030
      4  O1        47.7630  -42.0180   52.9250 O.3   269  RRS269     -0.4026
      5  C2        48.7780  -40.2470   49.8760 C.3   269  RRS269      0.0603
      6  C3        48.5080  -38.7240   49.9700 C.3   269  RRS269      0.0845
      7  C4        49.3260  -38.1390   48.8410 C.2   269  RRS269      0.2422
      8  O3        50.5570  -38.0660   48.8950 O.2   269  RRS269     -0.2733
      9  N2        48.6280  -37.7230   47.8030 N.am  269  RRS269     -0.1898
     10  C5        49.2790  -37.1970   46.6100 C.3   269  RRS269      0.2044
     11  C6        49.4630  -35.6890   46.5510 C.1   269  RRS269      0.1461
     12  O4        48.5070  -34.9340   46.7340 O.2   269  RRS269     -0.2253
     13  N3        50.6620  -35.2420   46.2130 N.2   269  RRS269     -0.2049
     14  C7        50.9740  -33.8060   46.0610 C.3   269  RRS269      0.1376
     15  C8        52.1870  -33.6750   45.1100 C.3   269  RRS269      0.0272
     16  C9        51.9670  -34.3030   43.7170 C.3   269  RRS269      0.0021
     17  C10       51.0420  -33.5000   42.7770 C.3   269  RRS269      0.0021
     18  C11       50.8080  -34.1630   41.3970 C.3   269  RRS269      0.0245
     19  C12       49.5550  -35.0600   41.2300 C.3   269  RRS269      0.1061
     20  N4        49.5110  -36.1720   42.1950 N.ar  269  RRS269     -0.3263
     21  C13       48.8780  -38.0780   51.3260 C.3   269  RRS269      0.0095
     22  C14       48.3890  -36.6150   51.4910 C.3   269  RRS269      0.0005
     23  C15       46.8610  -36.4940   51.3370 C.3   269  RRS269      0.0000
     24  C16       48.7840  -36.1460   52.8970 C.3   269  RRS269      0.0000
     25  C17       48.4360  -37.7410   45.4080 C.3   269  RRS269      0.0666
     26  C18       49.0240  -37.3630   44.0980 C.ar  269  RRS269     -0.0007
     27  C19       48.7600  -36.1950   43.3410 C.ar  269  RRS269      0.0716
     28  C20       49.9890  -38.0740   43.3560 C.ar  269  RRS269      0.0134
     29  C21       50.2680  -37.3070   42.1780 C.ar  269  RRS269      0.0596
     30  C22       50.6390  -39.2930   43.5890 C.ar  269  RRS269      0.0012
     31  C23       51.1970  -37.7840   41.2510 C.ar  269  RRS269      0.0172
     32  C24       51.5690  -39.7590   42.6520 C.ar  269  RRS269      0.0001
     33  C25       51.8400  -39.0080   41.4950 C.ar  269  RRS269      0.0015
@<TRIPOS>BOND
     1    19    18    1
     2    19    20    1
     3    31    33   ar
     4    31    29   ar
     5    18    17    1
     6    33    32   ar
     7    29    20   ar
     8    29    28   ar
     9    20    27   ar
    10    32    30   ar
    11    17    16    1
    12    27    26   ar
    13    28    30   ar
    14    28    26   ar
    15    16    15    1
    16    26    25    1
    17    15    14    1
    18    25    10    1
    19    14    13    1
    20    13    11    2
    21    11    10    1
    22    11    12    2
    23    10     9    1
    24     9     7   am
    25     7     8    2
    26     7     6    1
    27     5     6    1
    28     5     1    1
    29     6    21    1
    30     2     1    2
    31     1     3   am
    32    21    22    1
    33    23    22    1
    34    22    24    1
    35     3     4    1
