@<TRIPOS>MOLECULE
1mmr_SRS_A_1.pdb
 33 35 0 0 0
SMALL
GASTEIGER

@<TRIPOS>ATOM
      1  S1        48.5470  -41.6620   50.4750 S.3   269  SRS269     -0.0422
      2  N5        46.9890  -41.6190   50.1060 N.3   269  SRS269     -0.0649
      3  N6        48.4480  -42.3000   51.9330 N.3   269  SRS269     -0.0649
      4  C2        49.3690  -40.1680   50.8410 C.3   269  SRS269      0.0821
      5  C3        48.8240  -38.9520   50.0840 C.3   269  SRS269      0.0901
      6  C4        49.5880  -38.6050   48.8100 C.2   269  SRS269      0.2427
      7  O3        50.8160  -38.6870   48.7630 O.2   269  SRS269     -0.2733
      8  N2        48.8960  -38.1550   47.7650 N.am  269  SRS269     -0.1898
      9  C5        49.5600  -37.7740   46.5250 C.3   269  SRS269      0.2044
     10  C6        49.6590  -36.2600   46.4320 C.1   269  SRS269      0.1461
     11  O4        48.6950  -35.5400   46.6970 O.2   269  SRS269     -0.2253
     12  N3        50.8270  -35.7590   46.0590 N.2   269  SRS269     -0.2049
     13  C7        51.0670  -34.3230   45.8780 C.3   269  SRS269      0.1376
     14  C8        52.3220  -34.1660   44.9690 C.3   269  SRS269      0.0272
     15  C9        52.0110  -33.5720   43.5890 C.3   269  SRS269      0.0021
     16  C10       51.5760  -34.6190   42.5870 C.3   269  SRS269      0.0021
     17  C11       50.3440  -34.1920   41.7760 C.3   269  SRS269      0.0245
     18  C12       49.6180  -35.4330   41.2040 C.3   269  SRS269      0.1061
     19  N4        49.6220  -36.5760   42.1510 N.ar  269  SRS269     -0.3263
     20  C13       49.0010  -37.7940   51.0950 C.3   269  SRS269      0.0101
     21  C14       48.1640  -36.5100   51.0830 C.3   269  SRS269      0.0005
     22  C15       46.6720  -36.7350   50.7500 C.3   269  SRS269      0.0000
     23  C16       48.2860  -35.9550   52.5160 C.3   269  SRS269      0.0000
     24  C17       48.7740  -38.3430   45.3280 C.3   269  SRS269      0.0666
     25  C18       49.3070  -37.8690   44.0140 C.ar  269  SRS269     -0.0007
     26  C19       48.9740  -36.6760   43.3370 C.ar  269  SRS269      0.0716
     27  C20       50.2170  -38.5150   43.1610 C.ar  269  SRS269      0.0134
     28  C21       50.3870  -37.6860   42.0150 C.ar  269  SRS269      0.0596
     29  C22       50.9060  -39.7270   43.2620 C.ar  269  SRS269      0.0012
     30  C23       51.2480  -38.0770   40.9750 C.ar  269  SRS269      0.0172
     31  C24       51.7560  -40.1120   42.2220 C.ar  269  SRS269      0.0001
     32  C25       51.9280  -39.2970   41.0880 C.ar  269  SRS269      0.0015
     33  C26       49.5390  -42.6890   49.4600 C.3   269  SRS269      0.0858
@<TRIPOS>BOND
     1    30    32   ar
     2    30    28   ar
     3    32    31   ar
     4    18    17    1
     5    18    19    1
     6    17    16    1
     7    28    19   ar
     8    28    27   ar
     9    19    26   ar
    10    31    29   ar
    11    16    15    1
    12    27    29   ar
    13    27    25   ar
    14    26    25   ar
    15    15    14    1
    16    25    24    1
    17    14    13    1
    18    24     9    1
    19    13    12    1
    20    12    10    2
    21    10     9    1
    22    10    11    2
    23     9     8    1
    24     8     6   am
    25     7     6    2
    26     6     5    1
    27    33     1    1
    28     5     4    1
    29     5    20    1
    30     2     1    1
    31     1     4    1
    32     1     3    1
    33    22    21    1
    34    21    20    1
    35    21    23    1
