@<TRIPOS>MOLECULE
1mmt_H4B_A_1.pdb
 17 18 0 0 0
SMALL
GASTEIGER

@<TRIPOS>ATOM
      1  N1        -5.6730   21.9270    8.2610 N.2   1426  H4B1426    -0.2683
      2  C2        -4.7290   21.0480    8.6820 C.1   1426  H4B1426     0.2608
      3  N2        -5.0270   19.8160    9.1370 N.pl3 1426  H4B1426    -0.0220
      4  N3        -3.4220   21.4540    8.6280 N.2   1426  H4B1426    -0.2474
      5  C4        -2.9570   22.7280    8.1690 C.1   1426  H4B1426     0.2441
      6  O4        -1.7450   22.9670    8.1820 O.2   1426  H4B1426    -0.2063
      7  C4A       -4.0240   23.5970    7.7470 C.2   1426  H4B1426     0.2463
      8  C8A       -5.3680   23.2090    7.7830 C.1   1426  H4B1426     0.1270
      9  N5        -3.7040   24.9600    7.2300 N.2   1426  H4B1426    -0.2460
     10  N8        -6.3750   24.0150    7.3850 N.2   1426  H4B1426    -0.2054
     11  C6        -4.8440   26.0010    7.4020 C.3   1426  H4B1426     0.1627
     12  C7        -6.1440   25.3820    6.8570 C.3   1426  H4B1426     0.1643
     13  C9        -4.2900   27.3060    6.7220 C.3   1426  H4B1426     0.2063
     14  O9        -3.9640   27.0820    5.3320 O.3   1426  H4B1426    -0.2183
     15  C10       -5.2610   28.5530    6.7640 C.3   1426  H4B1426     0.1842
     16  C11       -5.6210   28.9840    8.1460 C.3   1426  H4B1426     0.0383
     17  O10       -6.4360   28.2280    5.9950 O.3   1426  H4B1426    -0.2204
@<TRIPOS>BOND
     1    14    13    1
     2    17    15    1
     3    13    15    1
     4    13    11    1
     5    15    16    1
     6    12    10    1
     7    12    11    1
     8     9    11    1
     9     9     7    2
    10    10     8    2
    11     7     8    1
    12     7     5    1
    13     8     1    2
    14     5     6    2
    15     5     4    2
    16     1     2    2
    17     4     2    2
    18     2     3    1
