@<TRIPOS>MOLECULE
1mmu_BGC_A_1.pdb
 12 12 0 0 0
SMALL
GASTEIGER

@<TRIPOS>ATOM
      1  C2         2.5370   37.5270    9.2420 C.3   348  BGC348      0.2434
      2  C3         2.6450   37.9090   10.7100 C.3   348  BGC348      0.2199
      3  C4         3.8810   37.2720   11.3170 C.3   348  BGC348      0.2144
      4  C5         5.1040   37.6250   10.4530 C.3   348  BGC348      0.1836
      5  C6         6.3570   36.9220   10.9730 C.3   348  BGC348      0.2142
      6  C1         3.7960   37.8690    8.4690 C.3   348  BGC348      0.3024
      7  O1         3.5850   37.4620    7.1150 O.3   348  BGC348     -0.1869
      8  O2         1.4030   38.1960    8.6750 O.3   348  BGC348     -0.2148
      9  O3         1.4700   37.4820   11.4580 O.3   348  BGC348     -0.2174
     10  O4         4.1060   37.7650   12.6380 O.3   348  BGC348     -0.2176
     11  O5         4.9250   37.2110    9.0780 O.3   348  BGC348     -0.3236
     12  O6         7.4540   37.2630   10.1380 O.3   348  BGC348     -0.2176
@<TRIPOS>BOND
     1     7     6    1
     2     6    11    1
     3     6     1    1
     4     8     1    1
     5    11     4    1
     6     1     2    1
     7    12     5    1
     8     4     5    1
     9     4     3    1
    10     2     3    1
    11     2     9    1
    12     3    10    1
