@<TRIPOS>MOLECULE
1mmv_H4B_A_1.pdb
 17 18 0 0 0
SMALL
GASTEIGER

@<TRIPOS>ATOM
      1  N1         9.9560    2.5910   33.7890 N.2   1760  H4B1760    -0.2683
      2  C2        10.0960    2.1880   32.5010 C.1   1760  H4B1760     0.2608
      3  N2        11.2800    2.0450   31.9240 N.pl3 1760  H4B1760    -0.0220
      4  N3         8.9680    1.9320   31.7850 N.2   1760  H4B1760    -0.2474
      5  C4         7.6480    2.0500   32.2870 C.1   1760  H4B1760     0.2441
      6  O4         6.6980    1.7880   31.5380 O.2   1760  H4B1760    -0.2063
      7  C4A        7.5850    2.4780   33.6390 C.2   1760  H4B1760     0.2463
      8  C8A        8.7250    2.7480   34.3910 C.1   1760  H4B1760     0.1270
      9  N5         6.2490    2.6350   34.2300 N.2   1760  H4B1760    -0.2460
     10  N8         8.6740    3.1420   35.6690 N.2   1760  H4B1760    -0.2054
     11  C6         6.2230    3.6150   35.4050 C.3   1760  H4B1760     0.1627
     12  C7         7.3850    3.3120   36.3560 C.3   1760  H4B1760     0.1643
     13  C9         4.8200    3.5030   36.0350 C.3   1760  H4B1760     0.2063
     14  O9         4.4790    2.1910   36.4630 O.3   1760  H4B1760    -0.2183
     15  C10        4.6450    4.4560   37.2350 C.3   1760  H4B1760     0.1842
     16  C11        3.2300    4.5090   37.6930 C.3   1760  H4B1760     0.0383
     17  O10        5.0360    5.7330   36.7320 O.3   1760  H4B1760    -0.2204
@<TRIPOS>BOND
     1     6     5    2
     2     4     5    2
     3     4     2    2
     4     3     2    1
     5     5     7    1
     6     2     1    2
     7     7     9    2
     8     7     8    1
     9     1     8    2
    10     9    11    1
    11     8    10    2
    12    11    13    1
    13    11    12    1
    14    10    12    1
    15    13    14    1
    16    13    15    1
    17    17    15    1
    18    15    16    1
