@<TRIPOS>MOLECULE
1mmv_3AR_A_1.pdb
 15 14 0 0 0
SMALL
GASTEIGER

@<TRIPOS>ATOM
      1  N          9.4840   -1.1740   26.2020 N.3   1785  3AR1785    -0.1208
      2  CA         9.0660   -1.5300   24.8440 C.3   1785  3AR1785     0.1944
      3  C          8.9150   -3.0400   24.7040 C.2   1785  3AR1785     0.3819
      4  O          9.2860   -3.8170   25.5890 O.co2 1785  3AR1785    -0.2441
      5  CB        10.1130   -0.9800   23.8360 C.3   1785  3AR1785     0.0343
      6  CG        10.1050    0.5640   23.6440 C.3   1785  3AR1785     0.0490
      7  CD        11.2380    1.2920   24.3880 C.3   1785  3AR1785     0.2204
      8  NE        12.4710    0.4450   24.4120 N.pl3 1785  3AR1785    -0.0894
      9  CZ        13.5700    0.6450   23.6830 C.cat 1785  3AR1785     0.4951
     10  NH1       13.7180    1.6440   22.8280 N.pl3 1785  3AR1785    -0.0894
     11  NH2       14.5420   -0.2090   23.8460 N.pl3 1785  3AR1785     0.1317
     12  C1        14.4990    1.4220   21.5880 C.3   1785  3AR1785     0.2203
     13  C2        14.1680    2.5300   20.5600 C.3   1785  3AR1785     0.0469
     14  C3        12.7880    2.2740   19.9350 C.3   1785  3AR1785     0.0038
     15  OXT        8.4060   -3.4460   23.6460 O.co2 1785  3AR1785    -0.2441
@<TRIPOS>BOND
     1    14    13    1
     2    13    12    1
     3    12    10    1
     4    10     9    1
     5     6     5    1
     6     6     7    1
     7    15     3   ar
     8     9    11    2
     9     9     8    1
    10     5     2    1
    11     7     8    1
    12     3     2    1
    13     3     4   ar
    14     2     1    1
