@<TRIPOS>MOLECULE
1mmv_HEM_A_1.pdb
 43 50 0 0 0
SMALL
GASTEIGER

@<TRIPOS>ATOM
      1  CHA       13.0010    4.8580   26.5320 C.2   1750  HEM1750     0.0000
      2  CHB       16.5700    1.6280   26.0780 C.2   1750  HEM1750     0.0000
      3  CHC       17.7280    3.5750   21.8300 C.2   1750  HEM1750     0.0000
      4  CHD       14.6210    7.2310   22.6410 C.2   1750  HEM1750     0.0000
      5  C1A       13.8250    3.7540   26.7060 C.2   1750  HEM1750     0.0000
      6  C2A       13.5940    2.7310   27.6870 C.2   1750  HEM1750     0.0000
      7  C3A       14.6190    1.8510   27.6060 C.2   1750  HEM1750     0.0000
      8  C4A       15.4640    2.3210   26.5340 C.2   1750  HEM1750     0.0000
      9  CMA       14.8200    0.5920   28.4580 C.3   1750  HEM1750     0.0000
     10  CAA       12.3390    2.5780   28.5260 C.3   1750  HEM1750     0.0000
     11  CBA       11.5380    1.5500   27.7400 C.3   1750  HEM1750     0.0000
     12  CGA       10.2240    1.1940   28.3910 C.2   1750  HEM1750     0.0000
     13  O1A       10.2460    0.8530   29.5930 O.co2 1750  HEM1750     0.0000
     14  O2A        9.1820    1.2470   27.7000 O.co2 1750  HEM1750     0.0000
     15  C1B       17.3090    1.9680   24.9540 C.ar  1750  HEM1750     0.0000
     16  C2B       18.3790    1.1460   24.4250 C.ar  1750  HEM1750     0.0000
     17  C3B       18.6910    1.6420   23.2110 C.ar  1750  HEM1750     0.0000
     18  C4B       17.8370    2.8200   23.0060 C.ar  1750  HEM1750     0.0000
     19  CMB       18.9980   -0.0740   25.0800 C.3   1750  HEM1750     0.0000
     20  CAB       19.5660    0.9710   22.3480 C.2   1750  HEM1750     0.0000
     21  CBB       20.4320    1.5500   21.4860 C.2   1750  HEM1750     0.0000
     22  C1C       16.8860    4.6820   21.6380 C.2   1750  HEM1750     0.0000
     23  C2C       16.8470    5.4690   20.4160 C.2   1750  HEM1750     0.0000
     24  C3C       16.0660    6.5870   20.6970 C.2   1750  HEM1750     0.0000
     25  C4C       15.5910    6.4130   22.0470 C.2   1750  HEM1750     0.0000
     26  CMC       17.5200    5.0730   19.0800 C.3   1750  HEM1750     0.0000
     27  CAC       15.7000    7.6690   19.8780 C.2   1750  HEM1750     0.0000
     28  CBC       16.0610    7.8490   18.5840 C.2   1750  HEM1750     0.0000
     29  C1D       13.9220    6.9280   23.8130 C.ar  1750  HEM1750     0.0000
     30  C2D       12.7940    7.6600   24.3100 C.ar  1750  HEM1750     0.0000
     31  C3D       12.3750    7.0060   25.4060 C.ar  1750  HEM1750     0.0000
     32  C4D       13.2120    5.8550   25.5800 C.ar  1750  HEM1750     0.0000
     33  CMD       12.2270    8.9670   23.7610 C.3   1750  HEM1750     0.0000
     34  CAD       11.1970    7.3390   26.3120 C.3   1750  HEM1750     0.0000
     35  CBD        9.9070    6.8910   25.6390 C.3   1750  HEM1750     0.0000
     36  CGD        8.7240    6.9160   26.5880 C.2   1750  HEM1750     0.0000
     37  O1D        8.5390    7.9520   27.2620 O.co2 1750  HEM1750     0.0000
     38  O2D        7.9880    5.9040   26.6560 O.co2 1750  HEM1750     0.0000
     39  NA        14.9880    3.5060   25.9800 N.2   1750  HEM1750     0.0000
     40  NB        17.0160    3.0430   24.1190 N.ar  1750  HEM1750     0.0000
     41  NC        16.0670    5.2320   22.6220 N.2   1750  HEM1750     0.0000
     42  ND        14.2150    5.8340   24.6240 N.ar  1750  HEM1750     0.0000
     43 FE         15.7660    4.5790   24.4770 Fe    1750  HEM1750     0.0000
@<TRIPOS>BOND
     1    28    27    2
     2    26    23    1
     3    27    24    1
     4    23    24    2
     5    23    22    1
     6    24    25    1
     7    21    20    2
     8    22     3    2
     9    22    41    1
    10     3    18    1
    11    25    41    2
    12    25     4    1
    13    20    17    1
    14    41    43    1
    15     4    29    2
    16    18    17   ar
    17    18    40   ar
    18    17    16   ar
    19    33    30    1
    20    29    30   ar
    21    29    42   ar
    22    40    43    1
    23    40    15   ar
    24    30    31   ar
    25    16    15   ar
    26    16    19    1
    27    43    42    1
    28    43    39    1
    29    42    32   ar
    30    15     2    1
    31    31    32   ar
    32    31    34    1
    33    32     1    2
    34    35    34    1
    35    35    36    1
    36    39     8    1
    37    39     5    2
    38     2     8    2
    39     1     5    1
    40     8     7    1
    41    36    38   ar
    42    36    37   ar
    43     5     6    1
    44     7     6    2
    45     7     9    1
    46     6    10    1
    47    14    12   ar
    48    11    12    1
    49    11    10    1
    50    12    13   ar
