@<TRIPOS>MOLECULE
1mmw_VIO_A_1.pdb
 14 13 0 0 0
SMALL
GASTEIGER

@<TRIPOS>ATOM
      1  N          9.4910   -1.1330   26.1350 N.3   1780  VIO1780    -0.1208
      2  CA         9.0630   -1.4310   24.7400 C.3   1780  VIO1780     0.1945
      3  C          8.9610   -2.9880   24.5390 C.2   1780  VIO1780     0.3819
      4  O          8.6100   -3.4280   23.4190 O.co2 1780  VIO1780    -0.2441
      5  OXT        9.2510   -3.7840   25.4660 O.co2 1780  VIO1780    -0.2441
      6  CB        10.1120   -0.8070   23.8180 C.3   1780  VIO1780     0.0350
      7  CG        10.3050    0.7130   23.9000 C.3   1780  VIO1780     0.0574
      8  CD        11.5110    1.0740   23.0830 C.3   1780  VIO1780     0.2511
      9  NE        12.7380    0.3780   23.5830 N.pl3 1780  VIO1780    -0.0313
     10  CZ        14.0090    0.3060   23.0820 C.2   1780  VIO1780     0.3939
     11  CH1       14.5600    0.9660   21.7820 C.3   1780  VIO1780     0.1519
     12  NH2       14.8530   -0.4090   23.8230 N.2   1780  VIO1780     0.1921
     13  C1        14.0830    2.3650   21.4560 C.2   1780  VIO1780    -0.0132
     14  C2        13.5110    2.7030   20.3100 C.2   1780  VIO1780    -0.0043
@<TRIPOS>BOND
     1    14    13    2
     2    13    11    1
     3    11    10    1
     4    10     9    1
     5    10    12    2
     6     8     9    1
     7     8     7    1
     8     4     3   ar
     9     6     7    1
    10     6     2    1
    11     3     2    1
    12     3     5   ar
    13     2     1    1
