@<TRIPOS>MOLECULE
1mmw_HEM_A_1.pdb
 43 50 0 0 0
SMALL
GASTEIGER

@<TRIPOS>ATOM
      1  CHA       13.0560    4.5140   26.3070 C.2   1750  HEM1750     0.0000
      2  CHB       16.8980    1.5440   26.0630 C.2   1750  HEM1750     0.0000
      3  CHC       17.8210    3.4520   21.7180 C.2   1750  HEM1750     0.0000
      4  CHD       14.7170    7.0730   22.5560 C.2   1750  HEM1750     0.0000
      5  C1A       13.9630    3.4870   26.5480 C.2   1750  HEM1750     0.0000
      6  C2A       13.7480    2.4350   27.5030 C.2   1750  HEM1750     0.0000
      7  C3A       14.8430    1.6450   27.4840 C.2   1750  HEM1750     0.0000
      8  C4A       15.7360    2.1790   26.4740 C.2   1750  HEM1750     0.0000
      9  CMA       15.1240    0.4860   28.4390 C.3   1750  HEM1750     0.0000
     10  CAA       12.4880    2.2250   28.3240 C.3   1750  HEM1750     0.0000
     11  CBA       11.4630    1.5110   27.4650 C.3   1750  HEM1750     0.0000
     12  CGA       10.1430    1.2910   28.1790 C.2   1750  HEM1750     0.0000
     13  O1A       10.1530    1.1170   29.4200 O.co2 1750  HEM1750     0.0000
     14  O2A        9.1010    1.2770   27.4970 O.co2 1750  HEM1750     0.0000
     15  C1B       17.5910    1.9010   24.8980 C.ar  1750  HEM1750     0.0000
     16  C2B       18.6350    1.0730   24.3130 C.ar  1750  HEM1750     0.0000
     17  C3B       18.8980    1.5690   23.0870 C.ar  1750  HEM1750     0.0000
     18  C4B       17.9860    2.7120   22.8980 C.ar  1750  HEM1750     0.0000
     19  CMB       19.2390   -0.2060   24.8980 C.3   1750  HEM1750     0.0000
     20  CAB       19.8320    0.9470   22.2620 C.2   1750  HEM1750     0.0000
     21  CBB       20.3820    1.3830   21.1120 C.2   1750  HEM1750     0.0000
     22  C1C       16.9900    4.5700   21.5450 C.2   1750  HEM1750     0.0000
     23  C2C       16.9690    5.3670   20.3320 C.2   1750  HEM1750     0.0000
     24  C3C       16.1960    6.4720   20.6090 C.2   1750  HEM1750     0.0000
     25  C4C       15.7160    6.2960   21.9720 C.2   1750  HEM1750     0.0000
     26  CMC       17.6790    4.9990   18.9950 C.3   1750  HEM1750     0.0000
     27  CAC       15.8720    7.5610   19.7760 C.2   1750  HEM1750     0.0000
     28  CBC       16.2910    7.7880   18.5030 C.2   1750  HEM1750     0.0000
     29  C1D       13.9930    6.7260   23.7110 C.ar  1750  HEM1750     0.0000
     30  C2D       12.8110    7.4040   24.2010 C.ar  1750  HEM1750     0.0000
     31  C3D       12.3670    6.6880   25.2620 C.ar  1750  HEM1750     0.0000
     32  C4D       13.2380    5.5440   25.3920 C.ar  1750  HEM1750     0.0000
     33  CMD       12.2440    8.7000   23.6270 C.3   1750  HEM1750     0.0000
     34  CAD       11.1190    6.9060   26.1200 C.3   1750  HEM1750     0.0000
     35  CBD        9.9890    6.1660   25.4090 C.3   1750  HEM1750     0.0000
     36  CGD        8.6810    6.2470   26.1560 C.2   1750  HEM1750     0.0000
     37  O1D        8.4550    7.2850   26.8200 O.co2 1750  HEM1750     0.0000
     38  O2D        7.8870    5.2770   26.0650 O.co2 1750  HEM1750     0.0000
     39  NA        15.2090    3.3320   25.8900 N.2   1750  HEM1750     0.0000
     40  NB        17.2220    2.9470   24.0500 N.ar  1750  HEM1750     0.0000
     41  NC        16.1870    5.1100   22.5420 N.2   1750  HEM1750     0.0000
     42  ND        14.2950    5.6180   24.4980 N.ar  1750  HEM1750     0.0000
     43 FE         15.9070    4.4590   24.3810 Fe    1750  HEM1750     0.0000
@<TRIPOS>BOND
     1    28    27    2
     2    26    23    1
     3    27    24    1
     4    23    24    2
     5    23    22    1
     6    24    25    1
     7    21    20    2
     8    22     3    2
     9    22    41    1
    10     3    18    1
    11    25    41    2
    12    25     4    1
    13    20    17    1
    14    41    43    1
    15     4    29    2
    16    18    17   ar
    17    18    40   ar
    18    17    16   ar
    19    33    30    1
    20    29    30   ar
    21    29    42   ar
    22    40    43    1
    23    40    15   ar
    24    30    31   ar
    25    16    15   ar
    26    16    19    1
    27    43    42    1
    28    43    39    1
    29    42    32   ar
    30    15     2    1
    31    31    32   ar
    32    31    34    1
    33    32     1    2
    34    35    34    1
    35    35    36    1
    36    39     8    1
    37    39     5    2
    38     2     8    2
    39    38    36   ar
    40    36    37   ar
    41     1     5    1
    42     8     7    1
    43     5     6    1
    44    11    12    1
    45    11    10    1
    46     7     6    2
    47     7     9    1
    48    14    12   ar
    49     6    10    1
    50    12    13   ar
