@<TRIPOS>MOLECULE
1mmw_H4B_A_1.pdb
 17 18 0 0 0
SMALL
GASTEIGER

@<TRIPOS>ATOM
      1  N1        10.0390    2.6160   33.7970 N.2   1760  H4B1760    -0.2683
      2  C2        10.2040    2.2510   32.4960 C.1   1760  H4B1760     0.2608
      3  N2        11.4000    2.1310   31.9240 N.pl3 1760  H4B1760    -0.0220
      4  N3         9.0870    1.9970   31.7660 N.2   1760  H4B1760    -0.2474
      5  C4         7.7600    2.0940   32.2510 C.1   1760  H4B1760     0.2441
      6  O4         6.8250    1.8360   31.4860 O.2   1760  H4B1760    -0.2063
      7  C4A        7.6720    2.4860   33.6100 C.2   1760  H4B1760     0.2463
      8  C8A        8.7930    2.7440   34.3840 C.1   1760  H4B1760     0.1270
      9  N5         6.3220    2.6270   34.1760 N.2   1760  H4B1760    -0.2460
     10  N8         8.7080    3.1100   35.6770 N.2   1760  H4B1760    -0.2054
     11  C6         6.2840    3.6080   35.3520 C.3   1760  H4B1760     0.1627
     12  C7         7.3990    3.2460   36.3260 C.3   1760  H4B1760     0.1643
     13  C9         4.8680    3.5480   35.9580 C.3   1760  H4B1760     0.2063
     14  O9         4.4530    2.2570   36.3870 O.3   1760  H4B1760    -0.2183
     15  C10        4.7100    4.5170   37.1500 C.3   1760  H4B1760     0.1842
     16  C11        3.2820    4.6270   37.5770 C.3   1760  H4B1760     0.0383
     17  O10        5.1750    5.7780   36.6560 O.3   1760  H4B1760    -0.2204
@<TRIPOS>BOND
     1     6     5    2
     2     4     5    2
     3     4     2    2
     4     3     2    1
     5     5     7    1
     6     2     1    2
     7     7     9    2
     8     7     8    1
     9     1     8    2
    10     9    11    1
    11     8    10    2
    12    11    13    1
    13    11    12    1
    14    10    12    1
    15    13    14    1
    16    13    15    1
    17    17    15    1
    18    15    16    1
