@<TRIPOS>MOLECULE
1mmx_FUC_A_1.pdb
 11 11 0 0 0
SMALL
GASTEIGER

@<TRIPOS>ATOM
      1  C1         7.7930   37.9180    9.0460 C.3   348  FUC348      0.3023
      2  C2         6.7980   37.4660    7.9930 C.3   348  FUC348      0.2434
      3  C3         5.5230   38.2360    8.1980 C.3   348  FUC348      0.2198
      4  C4         4.9650   37.8330    9.5420 C.3   348  FUC348      0.2118
      5  C5         5.9740   38.2000   10.6320 C.3   348  FUC348      0.1509
      6  C6         5.6080   37.6750   12.0140 C.3   348  FUC348      0.0350
      7  O1         8.0850   39.3080    8.9440 O.3   348  FUC348     -0.1869
      8  O2         7.2230   37.7000    6.6400 O.3   348  FUC348     -0.2148
      9  O3         4.6000   37.8390    7.2030 O.3   348  FUC348     -0.2174
     10  O4         4.6870   36.4370    9.5300 O.3   348  FUC348     -0.2177
     11  O5         7.2740   37.6380   10.3550 O.3   348  FUC348     -0.3264
@<TRIPOS>BOND
     1     8     2    1
     2     9     3    1
     3     2     3    1
     4     2     1    1
     5     3     4    1
     6     7     1    1
     7     1    11    1
     8    10     4    1
     9     4     5    1
    10    11     5    1
    11     5     6    1
