@<TRIPOS>MOLECULE
1mmy_G6D_A_1.pdb
 11 11 0 0 0
SMALL
GASTEIGER

@<TRIPOS>ATOM
      1  C1         4.1880   38.0670    8.1040 C.3   348  G6D348      0.3023
      2  O2         2.9610   37.7570   10.2010 O.3   348  G6D348     -0.2148
      3  C2         4.1500   37.4760    9.5200 C.3   348  G6D348      0.2434
      4  C3A        5.3570   38.0010   10.2870 C.3   348  G6D348      0.2198
      5  O3A        5.4130   37.7290   11.7140 O.3   348  G6D348     -0.2174
      6  C4A        6.5320   37.3960    9.5890 C.3   348  G6D348      0.2118
      7  O4A        7.7080   37.7160   10.2900 O.3   348  G6D348     -0.2177
      8  C5A        6.5050   38.0720    8.1980 C.3   348  G6D348      0.1509
      9  O5         5.3750   37.6820    7.4300 O.3   348  G6D348     -0.3264
     10  C6A        7.6880   37.8910    7.2900 C.3   348  G6D348      0.0350
     11  O1         3.0800   37.6450    7.3030 O.3   348  G6D348     -0.1869
@<TRIPOS>BOND
     1    10     8    1
     2    11     1    1
     3     9     1    1
     4     9     8    1
     5     1     3    1
     6     8     6    1
     7     3     2    1
     8     3     4    1
     9     6     4    1
    10     6     7    1
    11     4     5    1
