@<TRIPOS>MOLECULE
1mmz_ARB_A_1.pdb
 10 10 0 0 0
SMALL
GASTEIGER

@<TRIPOS>ATOM
      1  C1         7.7970   37.9970    9.0260 C.3   348  ARB348      0.3024
      2  C2         6.7390   37.5540    7.9990 C.3   348  ARB348      0.2434
      3  C3         5.4600   38.3140    8.2320 C.3   348  ARB348      0.2199
      4  C4         4.9710   38.0630    9.6430 C.3   348  ARB348      0.2143
      5  C5         6.0500   38.3780   10.6860 C.3   348  ARB348      0.1804
      6  O1         8.1700   39.3570    8.8480 O.3   348  ARB348     -0.1869
      7  O2         7.1390   37.7500    6.6220 O.3   348  ARB348     -0.2148
      8  O3         4.4460   37.8830    7.3230 O.3   348  ARB348     -0.2174
      9  O4         4.4310   36.7670    9.8360 O.3   348  ARB348     -0.2176
     10  O5         7.3350   37.7820   10.3820 O.3   348  ARB348     -0.3237
@<TRIPOS>BOND
     1     7     2    1
     2     8     3    1
     3     2     3    1
     4     2     1    1
     5     3     4    1
     6     6     1    1
     7     1    10    1
     8     4     9    1
     9     4     5    1
    10    10     5    1
