@<TRIPOS>MOLECULE
1mn0_XYS_A_1.pdb
 10 10 0 0 0
SMALL
GASTEIGER

@<TRIPOS>ATOM
      1  C1         3.8980   37.9190    9.7680 C.3   348  XYS348      0.3024
      2  C2         4.6400   38.2960    8.4740 C.3   348  XYS348      0.2434
      3  C3         6.0620   37.7770    8.4740 C.3   348  XYS348      0.2199
      4  C4         6.7680   38.3860    9.6840 C.3   348  XYS348      0.2143
      5  C5         6.0920   37.8170   10.9030 C.3   348  XYS348      0.1804
      6  O1         3.5580   36.5280    9.7980 O.3   348  XYS348     -0.1869
      7  O2         3.9510   37.9170    7.2820 O.3   348  XYS348     -0.2148
      8  O3         6.7310   38.1380    7.2650 O.3   348  XYS348     -0.2174
      9  O4         8.1750   38.1860    9.7730 O.3   348  XYS348     -0.2176
     10  O5         4.6990   38.2600   10.9250 O.3   348  XYS348     -0.3237
@<TRIPOS>BOND
     1     8     3    1
     2     7     2    1
     3     2     3    1
     4     2     1    1
     5     3     4    1
     6     4     9    1
     7     4     5    1
     8     1     6    1
     9     1    10    1
    10     5    10    1
