@<TRIPOS>MOLECULE
1mn1_HEM_A_1.pdb
 43 50 0 0 0
SMALL
GASTEIGER

@<TRIPOS>ATOM
      1  CHA       58.6390   24.0750   36.2960 C.2   396  HEM396      0.0000
      2  CHB       60.4960   19.6780   37.0250 C.2   396  HEM396      0.0000
      3  CHC       57.1750   18.8440   40.4460 C.2   396  HEM396      0.0000
      4  CHD       55.5740   23.3690   39.9740 C.2   396  HEM396      0.0000
      5  C1A       59.4330   22.9470   36.1720 C.ar  396  HEM396      0.0000
      6  C2A       60.5740   22.8150   35.2990 C.ar  396  HEM396      0.0000
      7  C3A       61.0690   21.5750   35.4870 C.ar  396  HEM396      0.0000
      8  C4A       60.2850   20.9560   36.5250 C.ar  396  HEM396      0.0000
      9  CMA       62.2870   20.9770   34.7720 C.3   396  HEM396      0.0000
     10  CAA       61.2030   23.8290   34.3580 C.3   396  HEM396      0.0000
     11  CBA       61.9850   24.9200   35.0750 C.3   396  HEM396      0.0000
     12  CGA       62.7490   25.8050   34.1150 C.2   396  HEM396      0.0000
     13  O1A       63.6060   25.2850   33.3690 O.co2 396  HEM396      0.0000
     14  O2A       62.4880   27.0210   34.0910 O.co2 396  HEM396      0.0000
     15  C1B       59.6990   19.0380   37.9690 C.2   396  HEM396      0.0000
     16  C2B       59.8780   17.6780   38.4080 C.2   396  HEM396      0.0000
     17  C3B       58.9180   17.4350   39.3300 C.2   396  HEM396      0.0000
     18  C4B       58.1560   18.6410   39.4800 C.2   396  HEM396      0.0000
     19  CMB       60.9790   16.7450   37.9220 C.3   396  HEM396      0.0000
     20  CAB       58.6980   16.3230   40.1140 C.3   396  HEM396      0.0000
     21  CBB       58.7440   14.9660   39.6710 C.3   396  HEM396      0.0000
     22  C1C       56.4580   20.0180   40.6390 C.ar  396  HEM396      0.0000
     23  C2C       55.5670   20.2730   41.7550 C.ar  396  HEM396      0.0000
     24  C3C       55.2180   21.5740   41.6950 C.ar  396  HEM396      0.0000
     25  C4C       55.7820   22.0940   40.4680 C.ar  396  HEM396      0.0000
     26  CMC       55.1890   19.2060   42.7660 C.3   396  HEM396      0.0000
     27  CAC       54.4460   22.4130   42.5180 C.3   396  HEM396      0.0000
     28  CBC       53.2550   22.1050   43.2930 C.3   396  HEM396      0.0000
     29  C1D       56.1790   23.8980   38.8510 C.2   396  HEM396      0.0000
     30  C2D       55.8250   25.1480   38.2470 C.2   396  HEM396      0.0000
     31  C3D       56.7090   25.3670   37.2460 C.2   396  HEM396      0.0000
     32  C4D       57.5710   24.2170   37.1750 C.2   396  HEM396      0.0000
     33  CMD       54.6300   26.0190   38.6540 C.3   396  HEM396      0.0000
     34  CAD       56.7340   26.5490   36.3260 C.3   396  HEM396      0.0000
     35  CBD       57.6950   27.6780   36.5940 C.3   396  HEM396      0.0000
     36  CGD       57.5820   28.7910   35.5680 C.2   396  HEM396      0.0000
     37  O1D       58.4480   29.6880   35.5880 O.co2 396  HEM396      0.0000
     38  O2D       56.6310   28.7770   34.7450 O.co2 396  HEM396      0.0000
     39  NA        59.2580   21.7950   36.9000 N.ar  396  HEM396      0.0000
     40  NB        58.5790   19.5830   38.5630 N.2   396  HEM396      0.0000
     41  NC        56.5860   21.1530   39.8670 N.ar  396  HEM396      0.0000
     42  ND        57.1390   23.2740   38.0780 N.2   396  HEM396      0.0000
     43 FE         57.8090   21.4570   38.2720 Fe    396  HEM396      0.0000
@<TRIPOS>BOND
     1    13    12   ar
     2    14    12   ar
     3    12    11    1
     4    10    11    1
     5    10     6    1
     6    38    36   ar
     7     9     7    1
     8     6     7   ar
     9     6     5   ar
    10     7     8   ar
    11    36    37   ar
    12    36    35    1
    13     5     1    2
    14     5    39   ar
    15     1    32    1
    16    34    35    1
    17    34    31    1
    18     8    39   ar
    19     8     2    2
    20    39    43    1
    21     2    15    1
    22    32    31    1
    23    32    42    2
    24    31    30    2
    25    19    16    1
    26    15    16    1
    27    15    40    2
    28    42    43    1
    29    42    29    1
    30    30    33    1
    31    30    29    1
    32    43    40    1
    33    43    41    1
    34    16    17    2
    35    40    18    1
    36    29     4    2
    37    17    18    1
    38    17    20    1
    39    18     3    2
    40    21    20    1
    41    41    25   ar
    42    41    22   ar
    43     4    25    1
    44     3    22    1
    45    25    24   ar
    46    22    23   ar
    47    24    23   ar
    48    24    27    1
    49    23    26    1
    50    27    28    1
