@<TRIPOS>MOLECULE
1mn2_HEM_A_1.pdb
 43 50 0 0 0
SMALL
GASTEIGER

@<TRIPOS>ATOM
      1  CHA       58.5650   23.9830   36.2390 C.2   396  HEM396      0.0000
      2  CHB       60.4680   19.5840   36.9590 C.2   396  HEM396      0.0000
      3  CHC       57.2200   18.7550   40.4540 C.2   396  HEM396      0.0000
      4  CHD       55.5580   23.3000   39.9880 C.2   396  HEM396      0.0000
      5  C1A       59.3710   22.8590   36.1230 C.ar  396  HEM396      0.0000
      6  C2A       60.4980   22.7360   35.2320 C.ar  396  HEM396      0.0000
      7  C3A       61.0460   21.5190   35.4480 C.ar  396  HEM396      0.0000
      8  C4A       60.2580   20.8750   36.4800 C.ar  396  HEM396      0.0000
      9  CMA       62.2860   20.9480   34.7520 C.3   396  HEM396      0.0000
     10  CAA       61.0510   23.7970   34.2870 C.3   396  HEM396      0.0000
     11  CBA       61.9070   24.8060   35.0360 C.3   396  HEM396      0.0000
     12  CGA       62.6180   25.7740   34.1130 C.2   396  HEM396      0.0000
     13  O1A       63.5050   25.3340   33.3490 O.co2 396  HEM396      0.0000
     14  O2A       62.2940   26.9820   34.1450 O.co2 396  HEM396      0.0000
     15  C1B       59.7010   18.9380   37.9230 C.2   396  HEM396      0.0000
     16  C2B       59.9040   17.5840   38.3760 C.2   396  HEM396      0.0000
     17  C3B       58.9830   17.3430   39.3320 C.2   396  HEM396      0.0000
     18  C4B       58.2090   18.5530   39.4920 C.2   396  HEM396      0.0000
     19  CMB       60.9850   16.6100   37.8930 C.3   396  HEM396      0.0000
     20  CAB       58.8750   16.1420   40.0360 C.3   396  HEM396      0.0000
     21  CBB       57.6960   15.3090   40.0460 C.3   396  HEM396      0.0000
     22  C1C       56.4800   19.9220   40.6400 C.ar  396  HEM396      0.0000
     23  C2C       55.5600   20.1460   41.7290 C.ar  396  HEM396      0.0000
     24  C3C       55.1320   21.4260   41.6410 C.ar  396  HEM396      0.0000
     25  C4C       55.7620   22.0030   40.4680 C.ar  396  HEM396      0.0000
     26  CMC       55.1930   19.1130   42.7880 C.3   396  HEM396      0.0000
     27  CAC       54.1930   21.9420   42.5400 C.3   396  HEM396      0.0000
     28  CBC       54.1050   23.2910   43.0370 C.3   396  HEM396      0.0000
     29  C1D       56.1710   23.8560   38.8630 C.2   396  HEM396      0.0000
     30  C2D       55.8300   25.1250   38.2630 C.2   396  HEM396      0.0000
     31  C3D       56.6670   25.3020   37.2220 C.2   396  HEM396      0.0000
     32  C4D       57.5210   24.1430   37.1480 C.2   396  HEM396      0.0000
     33  CMD       54.7080   26.1000   38.6530 C.3   396  HEM396      0.0000
     34  CAD       56.7500   26.4040   36.2330 C.3   396  HEM396      0.0000
     35  CBD       57.5630   27.6420   36.6280 C.3   396  HEM396      0.0000
     36  CGD       57.5150   28.7210   35.5640 C.2   396  HEM396      0.0000
     37  O1D       58.4130   29.5920   35.5090 O.co2 396  HEM396      0.0000
     38  O2D       56.5610   28.7240   34.7520 O.co2 396  HEM396      0.0000
     39  NA        59.2460   21.7190   36.8870 N.ar  396  HEM396      0.0000
     40  NB        58.6190   19.4910   38.5710 N.2   396  HEM396      0.0000
     41  NC        56.5880   21.0660   39.8780 N.ar  396  HEM396      0.0000
     42  ND        57.1190   23.2200   38.0860 N.2   396  HEM396      0.0000
     43 FE         57.8720   21.3530   38.3390 Fe    396  HEM396      0.0000
@<TRIPOS>BOND
     1    13    12   ar
     2    12    14   ar
     3    12    11    1
     4    10    11    1
     5    10     6    1
     6    38    36   ar
     7     9     7    1
     8     6     7   ar
     9     6     5   ar
    10     7     8   ar
    11    37    36   ar
    12    36    35    1
    13     5     1    2
    14     5    39   ar
    15    34    35    1
    16    34    31    1
    17     1    32    1
    18     8    39   ar
    19     8     2    2
    20    39    43    1
    21     2    15    1
    22    32    31    1
    23    32    42    2
    24    31    30    2
    25    19    16    1
    26    15    16    1
    27    15    40    2
    28    42    43    1
    29    42    29    1
    30    30    33    1
    31    30    29    1
    32    43    40    1
    33    43    41    1
    34    16    17    2
    35    40    18    1
    36    29     4    2
    37    17    18    1
    38    17    20    1
    39    18     3    2
    40    41    25   ar
    41    41    22   ar
    42     4    25    1
    43    20    21    1
    44     3    22    1
    45    25    24   ar
    46    22    23   ar
    47    24    23   ar
    48    24    27    1
    49    23    26    1
    50    27    28    1
