@<TRIPOS>MOLECULE
1mn7_ABT_A_1.pdb
 31 32 0 0 0
SMALL
GASTEIGER

@<TRIPOS>ATOM
      1  PG        28.3490   39.2160    6.0320 P.3   1160  ABT1160     0.0000
      2  O1G       27.6520   39.9310    7.1420 O.3   1160  ABT1160     0.0000
      3  O2G       29.0630   40.0300    5.0180 O.2   1160  ABT1160     0.0000
      4  O3G       27.4200   38.1510    5.5520 O.3   1160  ABT1160     0.0000
      5  O3B       29.4970   38.3820    6.7570 O.3   1160  ABT1160     0.0000
      6  PB        29.6430   37.9560    8.2830 P.3   1160  ABT1160     0.0000
      7  O1B       28.2940   38.0430    8.9140 O.3   1160  ABT1160    -0.5000
      8  O2B       30.3980   36.6830    8.3410 O.2   1160  ABT1160    -0.5000
      9  O3A       30.5460   39.0910    8.9410 O.3   1160  ABT1160     0.0000
     10  PA        30.1020   40.4630    9.6200 P.3   1160  ABT1160     0.0000
     11  B1A       30.6270   40.4660   11.0070 B     1160  ABT1160     0.0000
     12  O2A       28.6400   40.6600    9.3910 O.2   1160  ABT1160     0.0000
     13  O5'       30.9100   41.5300    8.7470 O.3   1160  ABT1160     0.0000
     14  C5'       30.3300   42.1050    7.5720 C.3   1160  ABT1160     0.0000
     15  C4'       31.3970   42.7320    6.6890 C.3   1160  ABT1160     0.0000
     16  O4'       32.0300   43.8440    7.3740 O.3   1160  ABT1160     0.0000
     17  C1'       33.3910   43.9440    6.9780 C.3   1160  ABT1160     0.0000
     18  N1        34.2350   43.9140    8.1910 N.am  1160  ABT1160     0.0000
     19  C6        33.7890   43.2550    9.3140 C.2   1160  ABT1160     0.0000
     20  C2        35.4650   44.5520    8.1760 C.1   1160  ABT1160     0.0000
     21  O2        35.9060   45.1520    7.2100 O.2   1160  ABT1160     0.0000
     22  N3        36.1640   44.4650    9.3520 N.2   1160  ABT1160     0.0000
     23  C4        35.7730   43.8250   10.5100 C.1   1160  ABT1160     0.0000
     24  O4        36.5070   43.8400   11.4910 O.2   1160  ABT1160     0.0000
     25  C5        34.4840   43.1770   10.4540 C.2   1160  ABT1160     0.0000
     26  C5A       33.9840   42.4500   11.6630 C.3   1160  ABT1160     0.0000
     27  C2'       33.6860   42.8110    5.9890 C.3   1160  ABT1160     0.0000
     28  C3'       32.5430   41.8320    6.2560 C.3   1160  ABT1160     0.0000
     29  N3'       32.3630   40.4730    5.5920 N.2   1160  ABT1160     0.0000
     30  N4'       32.8360   39.4270    6.0400 N.2   1160  ABT1160     0.0000
     31  N5'       33.1870   38.3830    6.2880 N.2   1160  ABT1160     0.0000
@<TRIPOS>BOND
     1     3     1    2
     2     4     1    1
     3    29    30    2
     4    29    28    1
     5    27    28    1
     6    27    17    1
     7     1     5    1
     8     1     2    1
     9    30    31    2
    10    28    15    1
    11    15    16    1
    12    15    14    1
    13     5     6    1
    14    17    16    1
    15    17    18    1
    16    21    20    2
    17    14    13    1
    18    20    18   am
    19    20    22    2
    20    18    19    1
    21     6     8    2
    22     6     7    1
    23     6     9    1
    24    13    10    1
    25     9    10    1
    26    19    25    2
    27    22    23    2
    28    12    10    2
    29    10    11    1
    30    25    23    1
    31    25    26    1
    32    23    24    2
