@<TRIPOS>MOLECULE
1mn9_RTP_A_1.pdb
 29 30 0 0 0
SMALL
GASTEIGER

@<TRIPOS>ATOM
      1  PG        70.0200   29.1910    2.1890 P.3   160  RTP160      0.5373
      2  O1G       70.4090   30.4430    2.9010 O.3   160  RTP160     -0.1143
      3  O2G       70.1770   27.9030    2.9240 O.3   160  RTP160     -0.1143
      4  O3G       70.6850   29.3210    0.8610 O.2   160  RTP160     -0.2221
      5  O3B       68.4370   29.3140    1.8860 O.3   160  RTP160     -0.2258
      6  PB        67.3110   29.1810    0.7370 P.3   160  RTP160      0.2277
      7  O1B       67.5840   27.9800   -0.0980 O.2   160  RTP160     -0.5168
      8  O2B       65.9830   29.3250    1.3750 O.3   160  RTP160     -0.4368
      9  O3A       67.4870   30.4490   -0.2150 O.3   160  RTP160     -0.2700
     10  PA        68.2070   30.6740   -1.6210 P.3   160  RTP160      0.2189
     11  O1A       67.1900   30.7300   -2.7040 O.2   160  RTP160     -0.5170
     12  O2A       69.3520   29.7350   -1.7300 O.3   160  RTP160     -0.4371
     13  O5'       68.7850   32.1350   -1.3840 O.3   160  RTP160     -0.3112
     14  C5'       69.7850   32.3530   -0.4040 C.3   160  RTP160      0.1813
     15  C4'       69.3340   33.4110    0.5640 C.3   160  RTP160      0.1800
     16  O4'       69.3620   34.7110   -0.0840 O.3   160  RTP160     -0.3317
     17  C1'       68.2010   35.4600    0.2670 C.3   160  RTP160      0.2437
     18  N1        67.3870   35.6090   -0.9340 N.pl3 160  RTP160     -0.1720
     19  N2        66.7520   36.7470   -1.3400 N.2   160  RTP160     -0.1198
     20  N3        65.2750   38.5860   -2.7230 N.am  160  RTP160     -0.0743
     21  C6        65.3130   37.3100   -3.2900 C.2   160  RTP160      0.3485
     22  O3        64.6960   37.0780   -4.3350 O.2   160  RTP160     -0.2552
     23  C3        66.1010   36.4210   -2.5240 C.1   160  RTP160      0.1072
     24  N4        66.3460   35.0870   -2.8370 N.2   160  RTP160     -0.1909
     25  C5        67.1060   34.6510   -1.8730 C.3   160  RTP160      0.2500
     26  C2'       67.4720   34.6990    1.3770 C.3   160  RTP160      0.2323
     27  O2'       67.9550   35.1380    2.6350 O.3   160  RTP160     -0.2157
     28  C3'       67.9030   33.2870    1.0440 C.3   160  RTP160      0.2159
     29  O3'       67.7990   32.4120    2.1590 O.3   160  RTP160     -0.2175
@<TRIPOS>BOND
     1    22    21    2
     2    21    20   am
     3    21    23    1
     4    24    23    2
     5    24    25    1
     6    11    10    2
     7    23    19    2
     8    25    18    1
     9    12    10    1
    10    10    13    1
    11    10     9    1
    12    13    14    1
    13    19    18    1
    14    18    17    1
    15    14    15    1
    16     9     6    1
    17     7     6    2
    18    16    17    1
    19    16    15    1
    20    17    26    1
    21    15    28    1
    22     6     8    1
    23     6     5    1
    24     4     1    2
    25    28    26    1
    26    28    29    1
    27    26    27    1
    28     5     1    1
    29     1     2    1
    30     1     3    1
