@<TRIPOS>MOLECULE
1mnc_PLH_A_1.pdb
 25 25 0 0 0
SMALL
GASTEIGER

@<TRIPOS>ATOM
      1  C1        -1.3850   30.5520   22.4640 C.2   280  PLH280      0.0873
      2  C2        -2.4560   29.6990   22.9610 C.3   280  PLH280      0.0603
      3  C3        -2.8150   28.6040   21.9250 C.3   280  PLH280      0.0845
      4  C4        -1.6460   27.6780   21.5070 C.3   280  PLH280      0.0095
      5  C5        -1.7950   26.6720   20.3490 C.3   280  PLH280      0.0005
      6  C6        -1.8480   27.4200   18.9930 C.3   280  PLH280      0.0000
      7  C7        -0.5380   25.8050   20.2770 C.3   280  PLH280      0.0000
      8  C8        -3.9840   27.8500   22.3950 C.2   280  PLH280      0.2417
      9  C9        -6.3010   27.1380   22.0590 C.3   280  PLH280      0.1770
     10  C10       -6.4320   25.7800   21.5310 C.2   280  PLH280      0.2616
     11  C11       -6.9760   23.5280   22.0790 C.3   280  PLH280      0.1386
     12  C12       -7.5580   27.8650   21.5540 C.3   280  PLH280      0.0574
     13  C13       -7.7780   29.1720   22.1900 C.ar  280  PLH280     -0.0200
     14  C14       -7.4810   30.3530   21.5530 C.ar  280  PLH280     -0.0042
     15  C15       -7.6900   31.5700   22.1720 C.ar  280  PLH280     -0.0003
     16  C16       -8.1990   31.5970   23.4700 C.ar  280  PLH280     -0.0000
     17  C17       -8.4790   30.4520   24.1450 C.ar  280  PLH280     -0.0003
     18  C18       -8.2810   29.2580   23.4830 C.ar  280  PLH280     -0.0042
     19  N1        -0.1510   30.5060   22.9860 N.am  280  PLH280     -0.2030
     20  N2        -5.1290   27.8230   21.6570 N.am  280  PLH280     -0.1974
     21  N3        -6.7760   24.8860   22.4380 N.am  280  PLH280     -0.2021
     22  O1         0.8610   31.1850   22.5810 O.3   280  PLH280     -0.4026
     23  O2        -1.6560   31.3070   21.5320 O.2   280  PLH280     -0.5395
     24  O3        -3.9210   27.2370   23.4660 O.2   280  PLH280     -0.2733
     25  O4        -6.2180   25.5760   20.3170 O.2   280  PLH280     -0.2715
@<TRIPOS>BOND
     1     6     5    1
     2     7     5    1
     3    25    10    2
     4     5     4    1
     5     4     3    1
     6    10     9    1
     7    10    21   am
     8    23     1    2
     9    14    15   ar
    10    14    13   ar
    11    12     9    1
    12    12    13    1
    13    20     9    1
    14    20     8   am
    15     3     8    1
    16     3     2    1
    17    11    21    1
    18    15    16   ar
    19    13    18   ar
    20     8    24    2
    21     1     2    1
    22     1    19   am
    23    22    19    1
    24    16    17   ar
    25    18    17   ar
