@<TRIPOS>MOLECULE
1mnd_ADP_A_1.pdb
 27 29 0 0 0
SMALL
GASTEIGER

@<TRIPOS>ATOM
      1  PB        63.9610   39.8090  -25.6960 P.3   998  ADP998      0.5373
      2  O1B       63.9670   38.3050  -25.7380 O.3   998  ADP998     -0.1143
      3  O2B       65.2940   40.3280  -26.1380 O.3   998  ADP998     -0.1143
      4  O3B       62.8780   40.3950  -26.5590 O.2   998  ADP998     -0.2221
      5  PA        63.9590   41.4680  -23.2630 P.3   998  ADP998      0.2231
      6  O1A       65.4170   41.4790  -22.8910 O.3   998  ADP998     -0.4370
      7  O2A       63.6040   42.7260  -23.9950 O.2   998  ADP998     -0.5169
      8  O3A       63.6320   40.2040  -24.1840 O.3   998  ADP998     -0.2261
      9  O5'       63.0860   41.4320  -21.9400 O.3   998  ADP998     -0.3111
     10  C5'       62.0130   42.3920  -21.9710 C.3   998  ADP998      0.1813
     11  C4'       61.6150   42.9690  -20.6240 C.3   998  ADP998      0.1821
     12  O4'       61.7740   42.0060  -19.5380 O.3   998  ADP998     -0.3135
     13  C3'       62.3250   44.2460  -20.2410 C.3   998  ADP998      0.2184
     14  O3'       61.6640   45.3780  -20.8490 O.3   998  ADP998     -0.2174
     15  C2'       62.3870   44.1310  -18.6940 C.3   998  ADP998      0.2570
     16  O2'       61.3520   44.8420  -17.9850 O.3   998  ADP998     -0.2130
     17  C1'       62.3310   42.6230  -18.4360 C.3   998  ADP998      0.3186
     18  N9        63.6280   42.0010  -18.1390 N.pl3 998  ADP998     -0.1439
     19  C8        64.1330   40.8360  -18.6150 C.3   998  ADP998      0.3377
     20  N7        65.0610   40.2850  -17.8080 N.2   998  ADP998     -0.2095
     21  C5        65.2470   41.2420  -16.8200 C.2   998  ADP998      0.2526
     22  C6        66.1390   41.2930  -15.7150 C.2   998  ADP998      0.4393
     23  N6        67.0260   40.3400  -15.4090 N.pl3 998  ADP998      0.2180
     24  N1        66.0500   42.3990  -14.9250 N.2   998  ADP998      0.0021
     25  C2        65.1320   43.3660  -15.2400 C.3   998  ADP998      0.5254
     26  N3        64.2730   43.4050  -16.2210 N.2   998  ADP998     -0.0055
     27  C4        64.4200   42.3320  -17.0400 C.2   998  ADP998      0.3518
@<TRIPOS>BOND
     1     4     1    2
     2     3     1    1
     3     2     1    1
     4     1     8    1
     5     8     5    1
     6     7     5    2
     7     5     6    1
     8     5     9    1
     9    10     9    1
    10    10    11    1
    11    14    13    1
    12    11    13    1
    13    11    12    1
    14    13    15    1
    15    12    17    1
    16    15    17    1
    17    15    16    1
    18    19    18    1
    19    19    20    1
    20    17    18    1
    21    18    27    1
    22    20    21    2
    23    27    21    1
    24    27    26    2
    25    21    22    1
    26    26    25    1
    27    22    23    1
    28    22    24    2
    29    25    24    1
