@<TRIPOS>MOLECULE
1mnh_HEM_A_1.pdb
 43 50 0 0 0
SMALL
GASTEIGER

@<TRIPOS>ATOM
      1  CHA        2.7880   40.0800  -39.9480 C.2   154  HEM154      0.0000
      2  CHB       -0.0080   36.4750  -41.7700 C.2   154  HEM154      0.0000
      3  CHC       -3.7640   38.4200  -39.3710 C.2   154  HEM154      0.0000
      4  CHD       -0.9150   41.6790  -37.2220 C.2   154  HEM154      0.0000
      5  C1A        2.3710   38.9230  -40.5830 C.ar  154  HEM154      0.0000
      6  C2A        3.1760   38.0390  -41.3820 C.ar  154  HEM154      0.0000
      7  C3A        2.4010   37.0650  -41.8440 C.ar  154  HEM154      0.0000
      8  C4A        1.0440   37.3050  -41.4170 C.ar  154  HEM154      0.0000
      9  CMA        2.7280   35.8840  -42.7760 C.3   154  HEM154      0.0000
     10  CAA        4.7020   38.2530  -41.6100 C.3   154  HEM154      0.0000
     11  CBA        5.6070   37.3940  -40.7250 C.3   154  HEM154      0.0000
     12  CGA        5.0580   37.2890  -39.3040 C.2   154  HEM154      0.0000
     13  O1A        5.1800   38.3580  -38.6620 O.co2 154  HEM154      0.0000
     14  O2A        4.4920   36.2070  -39.0180 O.co2 154  HEM154      0.0000
     15  C1B       -1.2700   36.7430  -41.2850 C.2   154  HEM154      0.0000
     16  C2B       -2.4310   35.9230  -41.5710 C.2   154  HEM154      0.0000
     17  C3B       -3.4710   36.4790  -40.9090 C.2   154  HEM154      0.0000
     18  C4B       -2.9800   37.6080  -40.1570 C.2   154  HEM154      0.0000
     19  CMB       -2.4590   34.6660  -42.4600 C.3   154  HEM154      0.0000
     20  CAB       -4.9470   36.0500  -40.8530 C.2   154  HEM154      0.0000
     21  CBB       -5.6230   35.9980  -41.9940 C.2   154  HEM154      0.0000
     22  C1C       -3.3570   39.5060  -38.6520 C.ar  154  HEM154      0.0000
     23  C2C       -4.2030   40.4240  -37.9160 C.ar  154  HEM154      0.0000
     24  C3C       -3.3990   41.3280  -37.3220 C.ar  154  HEM154      0.0000
     25  C4C       -2.0280   40.9890  -37.6400 C.ar  154  HEM154      0.0000
     26  CMC       -5.7340   40.3430  -37.8840 C.3   154  HEM154      0.0000
     27  CAC       -3.7600   42.5530  -36.4430 C.2   154  HEM154      0.0000
     28  CBC       -5.0320   42.9740  -36.3660 C.2   154  HEM154      0.0000
     29  C1D        0.3360   41.5240  -37.7990 C.2   154  HEM154      0.0000
     30  C2D        1.4560   42.4000  -37.5430 C.2   154  HEM154      0.0000
     31  C3D        2.4670   41.9310  -38.2880 C.2   154  HEM154      0.0000
     32  C4D        2.0100   40.8120  -39.0650 C.2   154  HEM154      0.0000
     33  CMD        1.4350   43.5960  -36.5530 C.3   154  HEM154      0.0000
     34  CAD        3.9030   42.5280  -38.4240 C.3   154  HEM154      0.0000
     35  CBD        3.8210   43.5000  -39.6230 C.3   154  HEM154      0.0000
     36  CGD        4.9900   44.4090  -39.8790 C.2   154  HEM154      0.0000
     37  O1D        4.8880   45.6430  -39.6370 O.co2 154  HEM154      0.0000
     38  O2D        6.0130   43.8660  -40.3770 O.co2 154  HEM154      0.0000
     39  NA         1.0610   38.4360  -40.6040 N.ar  154  HEM154      0.0000
     40  NB        -1.6310   37.7570  -40.3940 N.2   154  HEM154      0.0000
     41  NC        -2.0300   39.8730  -38.4830 N.ar  154  HEM154      0.0000
     42  ND         0.7000   40.5540  -38.7110 N.2   154  HEM154      0.0000
     43 FE         -0.4040   38.9330  -39.2490 Fe    154  HEM154      0.0000
@<TRIPOS>BOND
     1     9     7    1
     2    19    16    1
     3    21    20    2
     4     7     8   ar
     5     7     6   ar
     6     2     8    2
     7     2    15    1
     8    10     6    1
     9    10    11    1
    10    16    15    1
    11    16    17    2
    12     8    39   ar
    13     6     5   ar
    14    15    40    2
    15    17    20    1
    16    17    18    1
    17    11    12    1
    18    39     5   ar
    19    39    43    1
    20     5     1    2
    21    40    18    1
    22    40    43    1
    23    38    36   ar
    24    18     3    2
    25     1    32    1
    26    36    37   ar
    27    36    35    1
    28    35    34    1
    29     3    22    1
    30    12    14   ar
    31    12    13   ar
    32    43    42    1
    33    43    41    1
    34    32    42    2
    35    32    31    1
    36    42    29    1
    37    22    41   ar
    38    22    23   ar
    39    41    25   ar
    40    34    31    1
    41    31    30    2
    42    23    26    1
    43    23    24   ar
    44    29    30    1
    45    29     4    2
    46    25    24   ar
    47    25     4    1
    48    30    33    1
    49    24    27    1
    50    27    28    2
