@<TRIPOS>MOLECULE
1mni_HEM_A_1.pdb
 43 50 0 0 0
SMALL
GASTEIGER

@<TRIPOS>ATOM
      1 FE         43.3960   25.7970   49.8620 Fe    154  HEM154      0.0000
      2  CHA       42.2930   23.1170   51.6880 C.2   154  HEM154      0.0000
      3  CHB       44.7300   23.6290   47.5130 C.2   154  HEM154      0.0000
      4  CHC       44.5300   28.4360   48.0320 C.2   154  HEM154      0.0000
      5  CHD       42.2550   27.9140   52.2580 C.2   154  HEM154      0.0000
      6  NA        43.4620   23.8090   49.6380 N.ar  154  HEM154      0.0000
      7  C1A       42.9290   22.8760   50.4870 C.ar  154  HEM154      0.0000
      8  C2A       43.1640   21.5870   49.9490 C.ar  154  HEM154      0.0000
      9  C3A       43.8260   21.7350   48.8020 C.ar  154  HEM154      0.0000
     10  C4A       44.0440   23.1220   48.5990 C.ar  154  HEM154      0.0000
     11  CMA       44.2980   20.6330   47.7870 C.3   154  HEM154      0.0000
     12  CAA       42.6250   20.2610   50.6080 C.3   154  HEM154      0.0000
     13  CBA       41.3790   19.7330   49.8350 C.3   154  HEM154      0.0000
     14  CGA       40.3200   20.7370   49.5200 C.2   154  HEM154      0.0000
     15  O1A       39.6530   21.2700   50.4620 O.co2 154  HEM154      0.0000
     16  O2A       39.9720   21.2500   48.3940 O.co2 154  HEM154      0.0000
     17  NB        44.3730   25.9840   48.0780 N.2   154  HEM154      0.0000
     18  C1B       44.9210   24.9570   47.3050 C.2   154  HEM154      0.0000
     19  C2B       45.6860   25.5570   46.2140 C.2   154  HEM154      0.0000
     20  C3B       45.5790   26.8840   46.3620 C.2   154  HEM154      0.0000
     21  C4B       44.8010   27.1640   47.5480 C.2   154  HEM154      0.0000
     22  CMB       46.4080   24.7630   45.0710 C.3   154  HEM154      0.0000
     23  CAB       46.2080   28.0440   45.5600 C.3   154  HEM154      0.0000
     24  CBB       47.5870   28.0630   45.7380 C.3   154  HEM154      0.0000
     25  NC        43.3790   27.7710   50.0470 N.ar  154  HEM154      0.0000
     26  C1C       43.9600   28.7540   49.2490 C.ar  154  HEM154      0.0000
     27  C2C       43.8760   30.0320   49.8870 C.ar  154  HEM154      0.0000
     28  C3C       43.2520   29.8690   51.0440 C.ar  154  HEM154      0.0000
     29  C4C       42.9380   28.4600   51.1870 C.ar  154  HEM154      0.0000
     30  CMC       44.4030   31.3740   49.3090 C.3   154  HEM154      0.0000
     31  CAC       42.9040   30.8840   52.1590 C.2   154  HEM154      0.0000
     32  CBC       43.3730   32.1260   52.0740 C.2   154  HEM154      0.0000
     33  ND        42.4490   25.5820   51.6010 N.2   154  HEM154      0.0000
     34  C1D       42.0790   26.6030   52.4370 C.2   154  HEM154      0.0000
     35  C2D       41.4750   26.0250   53.6260 C.2   154  HEM154      0.0000
     36  C3D       41.5170   24.6920   53.4580 C.2   154  HEM154      0.0000
     37  C4D       42.1100   24.3630   52.1960 C.2   154  HEM154      0.0000
     38  CMD       40.8990   26.8660   54.7950 C.3   154  HEM154      0.0000
     39  CAD       41.0550   23.6370   54.5010 C.3   154  HEM154      0.0000
     40  CBD       42.3700   23.2950   55.2510 C.3   154  HEM154      0.0000
     41  CGD       42.1320   22.3590   56.3800 C.2   154  HEM154      0.0000
     42  O1D       41.9280   22.9870   57.4480 O.co2 154  HEM154      0.0000
     43  O2D       42.1000   21.1290   56.3400 O.co2 154  HEM154      0.0000
@<TRIPOS>BOND
     1    22    19    1
     2    23    24    1
     3    23    20    1
     4    19    20    2
     5    19    18    1
     6    20    21    1
     7    18     3    1
     8    18    17    2
     9     3    10    2
    10    21     4    2
    11    21    17    1
    12    11     9    1
    13     4    26    1
    14    17     1    1
    15    16    14   ar
    16    10     9   ar
    17    10     6   ar
    18     9     8   ar
    19    26    27   ar
    20    26    25   ar
    21    30    27    1
    22    14    13    1
    23    14    15   ar
    24     6     1    1
    25     6     7   ar
    26    13    12    1
    27     1    25    1
    28     1    33    1
    29    27    28   ar
    30     8     7   ar
    31     8    12    1
    32    25    29   ar
    33     7     2    2
    34    28    29   ar
    35    28    31    1
    36    29     5    1
    37    33    37    2
    38    33    34    1
    39     2    37    1
    40    32    31    2
    41    37    36    1
    42     5    34    2
    43    34    35    1
    44    36    35    2
    45    36    39    1
    46    35    38    1
    47    39    40    1
    48    40    41    1
    49    43    41   ar
    50    41    42   ar
