@<TRIPOS>MOLECULE
1mnj_HEM_A_1.pdb
 43 50 0 0 0
SMALL
GASTEIGER

@<TRIPOS>ATOM
      1  CHA       42.2370   23.0730   51.7680 C.2   154  HEM154      0.0000
      2  CHB       44.6960   23.6970   47.5860 C.2   154  HEM154      0.0000
      3  CHC       44.7340   28.4620   48.2480 C.2   154  HEM154      0.0000
      4  CHD       42.1540   27.8970   52.3460 C.2   154  HEM154      0.0000
      5  C1A       42.8880   22.8610   50.5520 C.ar  154  HEM154      0.0000
      6  C2A       43.0620   21.5480   49.9390 C.ar  154  HEM154      0.0000
      7  C3A       43.7380   21.7280   48.7940 C.ar  154  HEM154      0.0000
      8  C4A       44.0140   23.1550   48.6640 C.ar  154  HEM154      0.0000
      9  CMA       44.2030   20.7270   47.7430 C.3   154  HEM154      0.0000
     10  CAA       42.4770   20.2140   50.5110 C.3   154  HEM154      0.0000
     11  CBA       41.1270   19.7660   49.8370 C.3   154  HEM154      0.0000
     12  CGA       40.0960   20.8590   49.6790 C.2   154  HEM154      0.0000
     13  O1A       39.4190   21.3640   50.6440 O.co2 154  HEM154      0.0000
     14  O2A       39.9110   21.3680   48.5210 O.co2 154  HEM154      0.0000
     15  C1B       44.9530   25.0280   47.4040 C.2   154  HEM154      0.0000
     16  C2B       45.7290   25.6030   46.3350 C.2   154  HEM154      0.0000
     17  C3B       45.7370   26.9160   46.5360 C.2   154  HEM154      0.0000
     18  C4B       44.9440   27.2140   47.7220 C.2   154  HEM154      0.0000
     19  CMB       46.3980   24.7530   45.2350 C.3   154  HEM154      0.0000
     20  CAB       46.4820   28.0370   45.7310 C.3   154  HEM154      0.0000
     21  CBB       47.8180   27.8190   45.6770 C.3   154  HEM154      0.0000
     22  C1C       44.0700   28.6940   49.4220 C.ar  154  HEM154      0.0000
     23  C2C       43.9100   30.0300   50.0530 C.ar  154  HEM154      0.0000
     24  C3C       43.2130   29.8390   51.1880 C.ar  154  HEM154      0.0000
     25  C4C       42.8950   28.4090   51.2910 C.ar  154  HEM154      0.0000
     26  CMC       44.5020   31.3570   49.5040 C.3   154  HEM154      0.0000
     27  CAC       42.7510   30.8000   52.3280 C.2   154  HEM154      0.0000
     28  CBC       43.1710   32.0550   52.4200 C.2   154  HEM154      0.0000
     29  C1D       41.9590   26.5410   52.5290 C.2   154  HEM154      0.0000
     30  C2D       41.2570   25.9450   53.6520 C.2   154  HEM154      0.0000
     31  C3D       41.2930   24.6410   53.4800 C.2   154  HEM154      0.0000
     32  C4D       42.0090   24.3350   52.2810 C.2   154  HEM154      0.0000
     33  CMD       40.5850   26.7720   54.7690 C.3   154  HEM154      0.0000
     34  CAD       40.7410   23.5760   54.4550 C.3   154  HEM154      0.0000
     35  CBD       42.0590   23.2810   55.2250 C.3   154  HEM154      0.0000
     36  CGD       41.9630   22.3680   56.3750 C.2   154  HEM154      0.0000
     37  O1D       41.8420   22.8390   57.5480 O.co2 154  HEM154      0.0000
     38  O2D       42.0310   21.1370   56.2890 O.co2 154  HEM154      0.0000
     39  NA        43.4330   23.8290   49.7160 N.ar  154  HEM154      0.0000
     40  NB        44.5020   26.0280   48.2490 N.2   154  HEM154      0.0000
     41  NC        43.4260   27.7350   50.1890 N.ar  154  HEM154      0.0000
     42  ND        42.4110   25.5360   51.6900 N.2   154  HEM154      0.0000
     43 FE         43.1460   25.8090   49.7880 Fe    154  HEM154      0.0000
@<TRIPOS>BOND
     1    19    16    1
     2    21    20    1
     3    20    17    1
     4    16    17    2
     5    16    15    1
     6    17    18    1
     7    15     2    1
     8    15    40    2
     9     2     8    2
    10    18     3    2
    11    18    40    1
    12     9     7    1
    13     3    22    1
    14    40    43    1
    15    14    12   ar
    16     8     7   ar
    17     8    39   ar
    18     7     6   ar
    19    22    23   ar
    20    22    41   ar
    21    26    23    1
    22    12    11    1
    23    12    13   ar
    24    39    43    1
    25    39     5   ar
    26    43    41    1
    27    43    42    1
    28    11    10    1
    29     6    10    1
    30     6     5   ar
    31    23    24   ar
    32    41    25   ar
    33     5     1    2
    34    24    25   ar
    35    24    27    1
    36    25     4    1
    37    42    32    2
    38    42    29    1
    39     1    32    1
    40    32    31    1
    41    27    28    2
    42     4    29    2
    43    29    30    1
    44    31    30    2
    45    31    34    1
    46    30    33    1
    47    34    35    1
    48    35    36    1
    49    38    36   ar
    50    36    37   ar
