@<TRIPOS>MOLECULE
1mnk_HEM_A_1.pdb
 43 50 0 0 0
SMALL
GASTEIGER

@<TRIPOS>ATOM
      1  CHA       42.7660   23.1250   51.9120 C.2   154  HEM154      0.0000
      2  CHB       45.4400   23.6460   47.8390 C.2   154  HEM154      0.0000
      3  CHC       45.2530   28.4950   48.4180 C.2   154  HEM154      0.0000
      4  CHD       42.6170   27.9160   52.5000 C.2   154  HEM154      0.0000
      5  C1A       43.4810   22.8350   50.7290 C.ar  154  HEM154      0.0000
      6  C2A       43.6630   21.5330   50.1040 C.ar  154  HEM154      0.0000
      7  C3A       44.3950   21.7010   48.9880 C.ar  154  HEM154      0.0000
      8  C4A       44.6920   23.1260   48.8730 C.ar  154  HEM154      0.0000
      9  CMA       44.8800   20.6560   47.9760 C.3   154  HEM154      0.0000
     10  CAA       43.0580   20.1980   50.6590 C.3   154  HEM154      0.0000
     11  CBA       41.7380   19.7180   50.0270 C.3   154  HEM154      0.0000
     12  CGA       40.6780   20.7630   49.8000 C.2   154  HEM154      0.0000
     13  O1A       40.0110   21.3130   50.7160 O.co2 154  HEM154      0.0000
     14  O2A       40.4730   21.1260   48.6210 O.co2 154  HEM154      0.0000
     15  C1B       45.5980   25.0050   47.6810 C.2   154  HEM154      0.0000
     16  C2B       46.3440   25.5840   46.6070 C.2   154  HEM154      0.0000
     17  C3B       46.2900   26.9140   46.7630 C.2   154  HEM154      0.0000
     18  C4B       45.5280   27.2240   47.9490 C.2   154  HEM154      0.0000
     19  CMB       47.0640   24.7430   45.5410 C.3   154  HEM154      0.0000
     20  CAB       46.9760   28.0180   45.8990 C.3   154  HEM154      0.0000
     21  CBB       48.3410   27.8260   45.7730 C.3   154  HEM154      0.0000
     22  C1C       44.5880   28.7380   49.6150 C.ar  154  HEM154      0.0000
     23  C2C       44.4370   30.0370   50.2530 C.ar  154  HEM154      0.0000
     24  C3C       43.7330   29.8560   51.3670 C.ar  154  HEM154      0.0000
     25  C4C       43.3770   28.4450   51.4650 C.ar  154  HEM154      0.0000
     26  CMC       45.0320   31.3110   49.6780 C.3   154  HEM154      0.0000
     27  CAC       43.2600   30.8000   52.5230 C.2   154  HEM154      0.0000
     28  CBC       43.7920   32.0040   52.6010 C.2   154  HEM154      0.0000
     29  C1D       42.3940   26.6000   52.7260 C.2   154  HEM154      0.0000
     30  C2D       41.7120   26.0010   53.8770 C.2   154  HEM154      0.0000
     31  C3D       41.7670   24.6800   53.6980 C.2   154  HEM154      0.0000
     32  C4D       42.4830   24.3620   52.4810 C.2   154  HEM154      0.0000
     33  CMD       41.0950   26.8350   55.0120 C.3   154  HEM154      0.0000
     34  CAD       41.3060   23.5380   54.6440 C.3   154  HEM154      0.0000
     35  CBD       42.6300   23.2180   55.3950 C.3   154  HEM154      0.0000
     36  CGD       42.5480   22.2750   56.5410 C.2   154  HEM154      0.0000
     37  O1D       42.2500   22.6460   57.6940 O.co2 154  HEM154      0.0000
     38  O2D       42.8040   21.0660   56.3140 O.co2 154  HEM154      0.0000
     39  NA        44.1130   23.8110   49.9510 N.ar  154  HEM154      0.0000
     40  NB        45.0850   26.0270   48.4800 N.2   154  HEM154      0.0000
     41  NC        43.9100   27.7830   50.3730 N.ar  154  HEM154      0.0000
     42  ND        42.8610   25.5820   51.8800 N.2   154  HEM154      0.0000
     43 FE         43.9190   25.7920   50.1690 Fe    154  HEM154      0.0000
@<TRIPOS>BOND
     1    19    16    1
     2    21    20    1
     3    20    17    1
     4    16    17    2
     5    16    15    1
     6    17    18    1
     7    15     2    1
     8    15    40    2
     9     2     8    2
    10    18     3    2
    11    18    40    1
    12     9     7    1
    13     3    22    1
    14    40    43    1
    15    14    12   ar
    16     8     7   ar
    17     8    39   ar
    18     7     6   ar
    19    22    23   ar
    20    22    41   ar
    21    26    23    1
    22    12    11    1
    23    12    13   ar
    24    39    43    1
    25    39     5   ar
    26    11    10    1
    27     6    10    1
    28     6     5   ar
    29    43    41    1
    30    43    42    1
    31    23    24   ar
    32    41    25   ar
    33     5     1    2
    34    24    25   ar
    35    24    27    1
    36    25     4    1
    37    42    32    2
    38    42    29    1
    39     1    32    1
    40    32    31    1
    41     4    29    2
    42    27    28    2
    43    29    30    1
    44    31    30    2
    45    31    34    1
    46    30    33    1
    47    34    35    1
    48    35    36    1
    49    38    36   ar
    50    36    37   ar
