@<TRIPOS>MOLECULE
1mno_HEM_A_1.pdb
 43 50 0 0 0
SMALL
GASTEIGER

@<TRIPOS>ATOM
      1 FE         42.1450   25.9140   49.3710 Fe    154  HEM154      0.0000
      2  CHA       40.7390   23.1590   50.9760 C.2   154  HEM154      0.0000
      3  CHB       43.8430   23.7770   47.3050 C.2   154  HEM154      0.0000
      4  CHC       43.6140   28.6270   47.8100 C.2   154  HEM154      0.0000
      5  CHD       40.8250   27.9310   51.7460 C.2   154  HEM154      0.0000
      6  NA        42.2870   23.9230   49.1800 N.ar  154  HEM154      0.0000
      7  C1A       41.5800   22.9240   49.8840 C.ar  154  HEM154      0.0000
      8  C2A       41.9080   21.6260   49.3790 C.ar  154  HEM154      0.0000
      9  C3A       42.7470   21.7810   48.3530 C.ar  154  HEM154      0.0000
     10  C4A       43.0110   23.2100   48.2270 C.ar  154  HEM154      0.0000
     11  CMA       43.3890   20.6820   47.4660 C.3   154  HEM154      0.0000
     12  CAA       41.3380   20.2600   49.8700 C.3   154  HEM154      0.0000
     13  CBA       40.1300   19.7750   49.0420 C.3   154  HEM154      0.0000
     14  CGA       39.0260   20.7830   48.7350 C.2   154  HEM154      0.0000
     15  O1A       38.2660   21.1200   49.6530 O.co2 154  HEM154      0.0000
     16  O2A       38.9750   21.2170   47.5600 O.co2 154  HEM154      0.0000
     17  NB        43.4690   26.1420   47.8410 N.2   154  HEM154      0.0000
     18  C1B       44.0290   25.1380   47.1130 C.2   154  HEM154      0.0000
     19  C2B       44.8540   25.7210   46.0640 C.2   154  HEM154      0.0000
     20  C3B       44.7710   27.0450   46.1840 C.2   154  HEM154      0.0000
     21  C4B       43.9050   27.3400   47.3510 C.2   154  HEM154      0.0000
     22  CMB       45.6270   24.8460   45.0170 C.3   154  HEM154      0.0000
     23  CAB       45.4830   28.1340   45.3710 C.2   154  HEM154      0.0000
     24  CBB       46.7740   27.9400   44.9830 C.2   154  HEM154      0.0000
     25  NC        42.2120   27.8540   49.7070 N.ar  154  HEM154      0.0000
     26  C1C       42.9030   28.8340   48.9960 C.ar  154  HEM154      0.0000
     27  C2C       42.7590   30.0980   49.6690 C.ar  154  HEM154      0.0000
     28  C3C       41.9880   29.9040   50.7500 C.ar  154  HEM154      0.0000
     29  C4C       41.6470   28.5180   50.8020 C.ar  154  HEM154      0.0000
     30  CMC       43.4080   31.4100   49.1790 C.3   154  HEM154      0.0000
     31  CAC       41.5660   30.9460   51.8040 C.2   154  HEM154      0.0000
     32  CBC       41.9540   32.2130   51.6160 C.2   154  HEM154      0.0000
     33  ND        41.0020   25.5920   51.0350 N.2   154  HEM154      0.0000
     34  C1D       40.5650   26.5910   51.8820 C.2   154  HEM154      0.0000
     35  C2D       39.7970   25.9920   52.9800 C.2   154  HEM154      0.0000
     36  C3D       39.7780   24.6870   52.7450 C.2   154  HEM154      0.0000
     37  C4D       40.5310   24.4070   51.5300 C.2   154  HEM154      0.0000
     38  CMD       39.1740   26.8350   54.1120 C.3   154  HEM154      0.0000
     39  CAD       39.1500   23.5690   53.6480 C.3   154  HEM154      0.0000
     40  CBD       40.1410   23.3240   54.7780 C.3   154  HEM154      0.0000
     41  CGD       39.7480   22.4050   55.9210 C.2   154  HEM154      0.0000
     42  O1D       39.3630   22.9260   56.9930 O.co2 154  HEM154      0.0000
     43  O2D       39.8830   21.1940   55.7290 O.co2 154  HEM154      0.0000
@<TRIPOS>BOND
     1    24    23    2
     2    22    19    1
     3    23    20    1
     4    19    20    2
     5    19    18    1
     6    20    21    1
     7    18     3    1
     8    18    17    2
     9     3    10    2
    10    21     4    2
    11    21    17    1
    12    11     9    1
    13    16    14   ar
    14     4    26    1
    15    17     1    1
    16    10     9   ar
    17    10     6   ar
    18     9     8   ar
    19    14    13    1
    20    14    15   ar
    21    26    27   ar
    22    26    25   ar
    23    13    12    1
    24    30    27    1
    25     6     1    1
    26     6     7   ar
    27     1    25    1
    28     1    33    1
    29     8    12    1
    30     8     7   ar
    31    27    28   ar
    32    25    29   ar
    33     7     2    2
    34    28    29   ar
    35    28    31    1
    36    29     5    1
    37     2    37    1
    38    33    37    2
    39    33    34    1
    40    37    36    1
    41    32    31    2
    42     5    34    2
    43    34    35    1
    44    36    35    2
    45    36    39    1
    46    35    38    1
    47    39    40    1
    48    40    41    1
    49    43    41   ar
    50    41    42   ar
