@<TRIPOS>MOLECULE
1mnp_HEM_A_1.pdb
 43 50 0 0 0
SMALL
GASTEIGER

@<TRIPOS>ATOM
      1  CHA       58.5230   24.0810   36.2860 C.2   396  HEM396      0.0000
      2  CHB       60.4300   19.6920   36.9870 C.2   396  HEM396      0.0000
      3  CHC       57.1780   18.8600   40.4630 C.2   396  HEM396      0.0000
      4  CHD       55.5080   23.3750   39.9990 C.2   396  HEM396      0.0000
      5  C1A       59.3280   22.9630   36.1670 C.ar  396  HEM396      0.0000
      6  C2A       60.4920   22.8670   35.3230 C.ar  396  HEM396      0.0000
      7  C3A       61.0130   21.6420   35.5030 C.ar  396  HEM396      0.0000
      8  C4A       60.2060   20.9810   36.5060 C.ar  396  HEM396      0.0000
      9  CMA       62.2390   21.1190   34.7580 C.3   396  HEM396      0.0000
     10  CAA       61.1300   23.8790   34.4170 C.3   396  HEM396      0.0000
     11  CBA       61.7920   25.0330   35.1390 C.3   396  HEM396      0.0000
     12  CGA       62.6210   25.8800   34.2090 C.2   396  HEM396      0.0000
     13  O1A       63.5300   25.3370   33.5480 O.co2 396  HEM396      0.0000
     14  O2A       62.3610   27.0950   34.1290 O.co2 396  HEM396      0.0000
     15  C1B       59.6550   19.0540   37.9440 C.2   396  HEM396      0.0000
     16  C2B       59.8500   17.7010   38.4000 C.2   396  HEM396      0.0000
     17  C3B       58.8700   17.4340   39.2780 C.2   396  HEM396      0.0000
     18  C4B       58.1420   18.6610   39.4810 C.2   396  HEM396      0.0000
     19  CMB       60.9800   16.7710   38.0160 C.3   396  HEM396      0.0000
     20  CAB       58.6060   16.2270   39.9440 C.3   396  HEM396      0.0000
     21  CBB       58.7780   14.8820   39.4750 C.3   396  HEM396      0.0000
     22  C1C       56.4670   20.0310   40.6720 C.ar  396  HEM396      0.0000
     23  C2C       55.5360   20.2510   41.7630 C.ar  396  HEM396      0.0000
     24  C3C       55.1610   21.5510   41.7020 C.ar  396  HEM396      0.0000
     25  C4C       55.7560   22.1010   40.4970 C.ar  396  HEM396      0.0000
     26  CMC       55.1030   19.1700   42.7600 C.3   396  HEM396      0.0000
     27  CAC       54.3870   22.3140   42.5800 C.3   396  HEM396      0.0000
     28  CBC       53.1940   21.9350   43.3120 C.3   396  HEM396      0.0000
     29  C1D       56.0880   23.9100   38.8610 C.2   396  HEM396      0.0000
     30  C2D       55.7510   25.1770   38.2750 C.2   396  HEM396      0.0000
     31  C3D       56.6230   25.3840   37.2690 C.2   396  HEM396      0.0000
     32  C4D       57.4630   24.2190   37.1750 C.2   396  HEM396      0.0000
     33  CMD       54.6420   26.1790   38.6360 C.3   396  HEM396      0.0000
     34  CAD       56.6290   26.6030   36.3920 C.3   396  HEM396      0.0000
     35  CBD       57.4750   27.8140   36.6980 C.3   396  HEM396      0.0000
     36  CGD       57.2920   28.9060   35.6670 C.2   396  HEM396      0.0000
     37  O1D       57.9430   29.9600   35.7860 O.co2 396  HEM396      0.0000
     38  O2D       56.4770   28.7330   34.7350 O.co2 396  HEM396      0.0000
     39  NA        59.1690   21.8060   36.8920 N.ar  396  HEM396      0.0000
     40  NB        58.5650   19.6150   38.5750 N.2   396  HEM396      0.0000
     41  NC        56.5820   21.1740   39.9040 N.ar  396  HEM396      0.0000
     42  ND        57.0490   23.2770   38.0920 N.2   396  HEM396      0.0000
     43 FE         57.7770   21.4770   38.3080 Fe    396  HEM396      0.0000
@<TRIPOS>BOND
     1    13    12   ar
     2    14    12   ar
     3    12    11    1
     4    10    11    1
     5    10     6    1
     6    38    36   ar
     7     9     7    1
     8     6     7   ar
     9     6     5   ar
    10     7     8   ar
    11    36    37   ar
    12    36    35    1
    13     5     1    2
    14     5    39   ar
    15     1    32    1
    16    34    35    1
    17    34    31    1
    18     8    39   ar
    19     8     2    2
    20    39    43    1
    21     2    15    1
    22    32    31    1
    23    32    42    2
    24    31    30    2
    25    15    16    1
    26    15    40    2
    27    19    16    1
    28    42    43    1
    29    42    29    1
    30    30    33    1
    31    30    29    1
    32    43    40    1
    33    43    41    1
    34    16    17    2
    35    40    18    1
    36    29     4    2
    37    17    18    1
    38    17    20    1
    39    21    20    1
    40    18     3    2
    41    41    25   ar
    42    41    22   ar
    43     4    25    1
    44     3    22    1
    45    25    24   ar
    46    22    23   ar
    47    24    23   ar
    48    24    27    1
    49    23    26    1
    50    27    28    1
