@<TRIPOS>MOLECULE
1mns_APG_A_1.pdb
 12 12 0 0 0
SMALL
GASTEIGER

@<TRIPOS>ATOM
      1  C1        32.4760    3.3490   15.6260 C.ar  361  APG361     -0.0002
      2  C2        31.2440    3.4670   16.2920 C.ar  361  APG361     -0.0014
      3  C3        31.0520    4.4560   17.2520 C.ar  361  APG361      0.0155
      4  C4        32.1040    5.3350   17.5590 C.ar  361  APG361     -0.0014
      5  C5        33.3280    5.2160   16.8990 C.ar  361  APG361     -0.0002
      6  C6        33.5170    4.2270   15.9350 C.ar  361  APG361     -0.0000
      7  C12       29.7020    4.4770   18.0160 C.3   361  APG361      0.2376
      8  O17       28.6810    3.6440   17.4700 O.3   361  APG361     -0.2096
      9  C13       29.1240    5.8820   18.3470 C.2   361  APG361      0.3955
     10  C14       30.1620    3.8860   19.3610 C.3   361  APG361      0.0494
     11  O14       29.8350    6.7730   18.8070 O.co2 361  APG361     -0.2426
     12  O15       27.9190    6.0570   18.1780 O.co2 361  APG361     -0.2426
@<TRIPOS>BOND
     1     1     6   ar
     2     1     2   ar
     3     6     5   ar
     4     2     3   ar
     5     5     4   ar
     6     3     4   ar
     7     3     7    1
     8     8     7    1
     9     7     9    1
    10     7    10    1
    11    12     9   ar
    12     9    11   ar
