@<TRIPOS>MOLECULE
1mo3_ADP_A_1.pdb
 27 29 0 0 0
SMALL
GASTEIGER

@<TRIPOS>ATOM
      1  PB        35.1680   75.5710   -7.7840 P.3   500  ADP500      0.5373
      2  O1B       34.9340   75.7590   -6.2970 O.3   500  ADP500     -0.1143
      3  O2B       35.1900   76.8210   -8.5890 O.2   500  ADP500     -0.2221
      4  O3B       36.4240   74.6900   -8.0090 O.3   500  ADP500     -0.1143
      5  PA        32.9490   74.8290   -9.5470 P.3   500  ADP500      0.2231
      6  O1A       32.2700   76.1530   -9.3370 O.3   500  ADP500     -0.4370
      7  O2A       32.1150   73.6270   -9.6400 O.2   500  ADP500     -0.5169
      8  O3A       34.0410   74.6400   -8.3510 O.3   500  ADP500     -0.2261
      9  O5'       33.8910   74.9990  -10.8260 O.3   500  ADP500     -0.3111
     10  C5'       34.6720   73.8730  -11.2880 C.3   500  ADP500      0.1813
     11  C4'       34.1270   73.2900  -12.5750 C.3   500  ADP500      0.1821
     12  O4'       32.6530   73.0810  -12.4010 O.3   500  ADP500     -0.3135
     13  C3'       34.1740   74.1850  -13.7960 C.3   500  ADP500      0.2184
     14  O3'       35.4700   74.1270  -14.4340 O.3   500  ADP500     -0.2174
     15  C2'       33.0250   73.6000  -14.6980 C.3   500  ADP500      0.2570
     16  O2'       33.4580   72.3880  -15.4010 O.3   500  ADP500     -0.2130
     17  C1'       31.9620   73.2570  -13.6560 C.3   500  ADP500      0.3186
     18  N9        30.8990   74.3710  -13.5040 N.pl3 500  ADP500     -0.1439
     19  C8        30.6420   75.0980  -12.4190 C.3   500  ADP500      0.3377
     20  N7        29.6970   75.9470  -12.5940 N.2   500  ADP500     -0.2095
     21  C5        29.2920   75.7700  -13.9110 C.2   500  ADP500      0.2526
     22  C6        28.2840   76.3790  -14.7640 C.2   500  ADP500      0.4393
     23  N6        27.4430   77.3780  -14.3380 N.pl3 500  ADP500      0.2180
     24  N1        28.1770   75.9280  -16.0460 N.2   500  ADP500      0.0021
     25  C2        28.9850   74.9560  -16.4790 C.3   500  ADP500      0.5254
     26  N3        29.9430   74.3330  -15.7650 N.2   500  ADP500     -0.0055
     27  C4        30.0460   74.7860  -14.4870 C.2   500  ADP500      0.3518
@<TRIPOS>BOND
     1    25    24    1
     2    25    26    1
     3    24    22    2
     4    26    27    2
     5    16    15    1
     6    22    23    1
     7    22    21    1
     8    15    13    1
     9    15    17    1
    10    27    21    1
    11    27    18    1
    12    14    13    1
    13    21    20    2
    14    13    11    1
    15    17    18    1
    16    17    12    1
    17    18    19    1
    18    20    19    1
    19    11    12    1
    20    11    10    1
    21    10     9    1
    22     9     5    1
    23     7     5    2
    24     5     6    1
    25     5     8    1
    26     3     1    2
    27     8     1    1
    28     4     1    1
    29     1     2    1
