@<TRIPOS>MOLECULE
1mo4_AGS_A_1.pdb
 31 33 0 0 0
SMALL
GASTEIGER

@<TRIPOS>ATOM
      1  PG        35.3740   77.8950   -8.2210 P.3   500  AGS500      0.4340
      2  S1G       33.5080   78.5390   -8.2850 S.3   500  AGS500      0.0416
      3  O2G       36.2040   77.5530   -6.9290 O.3   500  AGS500     -0.1305
      4  O3G       35.8710   77.2490   -9.4930 O.2   500  AGS500     -0.2423
      5  PB        35.1900   74.9250   -7.6480 P.3   500  AGS500      0.2262
      6  O1B       35.7080   74.3020   -8.8790 O.2   500  AGS500     -0.5168
      7  O2B       34.6350   74.3270   -6.4120 O.3   500  AGS500     -0.4369
      8  O3B       34.6490   76.4130   -7.9270 O.3   500  AGS500     -0.2405
      9  PA        32.9580   74.7350   -9.6840 P.3   500  AGS500      0.2189
     10  O1A       33.6130   75.8100  -10.5060 O.2   500  AGS500     -0.5170
     11  O2A       31.5310   75.0290   -9.3160 O.3   500  AGS500     -0.4371
     12  O3A       33.7720   74.4760   -8.2820 O.3   500  AGS500     -0.2701
     13  O5'       33.0650   73.2800  -10.3590 O.3   500  AGS500     -0.3112
     14  C5'       34.0810   73.2170  -11.3680 C.3   500  AGS500      0.1813
     15  C4'       33.6800   72.5190  -12.6590 C.3   500  AGS500      0.1821
     16  O4'       32.2180   72.4730  -12.8630 O.3   500  AGS500     -0.3135
     17  C3'       34.2590   73.1230  -13.9430 C.3   500  AGS500      0.2184
     18  O3'       35.0170   72.1860  -14.7120 O.3   500  AGS500     -0.2174
     19  C2'       33.0480   73.7450  -14.6760 C.3   500  AGS500      0.2570
     20  O2'       33.0430   73.6110  -16.0790 O.3   500  AGS500     -0.2130
     21  C1'       31.8120   73.1500  -14.0550 C.3   500  AGS500      0.3186
     22  N9        30.7370   74.1870  -13.7730 N.pl3 500  AGS500     -0.1439
     23  C8        30.5520   74.7660  -12.5370 C.3   500  AGS500      0.3377
     24  N7        29.5640   75.6680  -12.4650 N.2   500  AGS500     -0.2095
     25  C5        29.0600   75.6910  -13.7400 C.2   500  AGS500      0.2526
     26  C6        27.9890   76.4410  -14.3800 C.2   500  AGS500      0.4393
     27  N6        27.2100   77.3540  -13.7500 N.pl3 500  AGS500      0.2180
     28  N1        27.7590   76.1980  -15.7120 N.2   500  AGS500      0.0021
     29  C2        28.5250   75.2820  -16.3870 C.3   500  AGS500      0.5254
     30  N3        29.5450   74.5360  -15.8970 N.2   500  AGS500     -0.0055
     31  C4        29.7730   74.7790  -14.5640 C.2   500  AGS500      0.3518
@<TRIPOS>BOND
     1    29    30    1
     2    29    28    1
     3    20    19    1
     4    30    31    2
     5    28    26    2
     6    18    17    1
     7    19    21    1
     8    19    17    1
     9    31    22    1
    10    31    25    1
    11    26    27    1
    12    26    25    1
    13    21    22    1
    14    21    16    1
    15    17    15    1
    16    22    23    1
    17    25    24    2
    18    16    15    1
    19    15    14    1
    20    23    24    1
    21    14    13    1
    22    10     9    2
    23    13     9    1
    24     9    11    1
    25     9    12    1
    26     4     1    2
    27     6     5    2
    28     2     1    1
    29    12     5    1
    30     1     8    1
    31     1     3    1
    32     8     5    1
    33     5     7    1
