@<TRIPOS>MOLECULE
1mo5_AGS_A_1.pdb
 31 33 0 0 0
SMALL
GASTEIGER

@<TRIPOS>ATOM
      1  PG        30.8470   84.8700    7.7480 P.3   500  AGS500      0.4340
      2  S1G       30.2850   82.9860    7.8690 S.3   500  AGS500      0.0416
      3  O2G       30.9240   85.7330    6.4360 O.2   500  AGS500     -0.2423
      4  O3G       30.7330   85.6810    9.0220 O.3   500  AGS500     -0.1305
      5  PB        28.3550   86.4500    7.5130 P.3   500  AGS500      0.2262
      6  O1B       27.4250   86.4310    6.3770 O.2   500  AGS500     -0.5168
      7  O2B       28.3180   87.1740    8.7960 O.3   500  AGS500     -0.4369
      8  O3B       29.2210   85.1310    7.6570 O.3   500  AGS500     -0.2405
      9  PA        27.0430   84.7000    9.5860 P.3   500  AGS500      0.2189
     10  O1A       26.4830   83.3610    9.2220 O.2   500  AGS500     -0.5170
     11  O2A       28.3520   84.6400   10.3350 O.3   500  AGS500     -0.4371
     12  O3A       27.2080   85.5500    8.1970 O.3   500  AGS500     -0.2701
     13  O5'       25.8950   85.5680   10.3370 O.3   500  AGS500     -0.3112
     14  C5'       26.3950   86.4040   11.4000 C.3   500  AGS500      0.1813
     15  C4'       25.4400   86.5780   12.5830 C.3   500  AGS500      0.1821
     16  O4'       24.6780   85.3390   12.8720 O.3   500  AGS500     -0.3135
     17  C3'       26.0820   86.9160   13.9320 C.3   500  AGS500      0.2184
     18  O3'       25.2950   87.8110   14.7240 O.3   500  AGS500     -0.2174
     19  C2'       26.3370   85.5140   14.5400 C.3   500  AGS500      0.2570
     20  O2'       26.5170   85.4590   15.9380 O.3   500  AGS500     -0.2130
     21  C1'       25.1720   84.6840   14.0700 C.3   500  AGS500      0.3186
     22  N9        25.5170   83.2140   13.8000 N.pl3 500  AGS500     -0.1439
     23  C8        26.0180   82.7650   12.5910 C.3   500  AGS500      0.3377
     24  N7        26.2710   81.4490   12.5240 N.2   500  AGS500     -0.2095
     25  C5        25.9240   80.9850   13.7720 C.2   500  AGS500      0.2526
     26  C6        25.9460   79.6630   14.3970 C.2   500  AGS500      0.4393
     27  N6        26.3600   78.5310   13.7820 N.pl3 500  AGS500      0.2180
     28  N1        25.5090   79.5670   15.6980 N.2   500  AGS500      0.0021
     29  C2        25.0790   80.6930   16.3600 C.3   500  AGS500      0.5254
     30  N3        25.0160   81.9720   15.8840 N.2   500  AGS500     -0.0055
     31  C4        25.4530   82.0660   14.5770 C.2   500  AGS500      0.3518
@<TRIPOS>BOND
     1     6     5    2
     2     3     1    2
     3     5     8    1
     4     5    12    1
     5     5     7    1
     6     8     1    1
     7     1     2    1
     8     1     4    1
     9    12     9    1
    10    10     9    2
    11     9    11    1
    12     9    13    1
    13    13    14    1
    14    14    15    1
    15    24    23    1
    16    24    25    2
    17    15    16    1
    18    15    17    1
    19    23    22    1
    20    16    21    1
    21    25    26    1
    22    25    31    1
    23    27    26    1
    24    22    21    1
    25    22    31    1
    26    17    19    1
    27    17    18    1
    28    21    19    1
    29    26    28    2
    30    19    20    1
    31    31    30    2
    32    28    29    1
    33    30    29    1
