@<TRIPOS>MOLECULE
1mo6_DTP_A_1.pdb
 30 32 0 0 0
SMALL
GASTEIGER

@<TRIPOS>ATOM
      1  PG        34.9440   78.2340   -8.5780 P.3   500  DTP500      0.5373
      2  O1G       33.6210   78.5160   -7.9400 O.3   500  DTP500     -0.1143
      3  O2G       35.8740   78.9900   -7.8520 O.3   500  DTP500     -0.1143
      4  O3G       34.9500   78.6180  -10.1030 O.2   500  DTP500     -0.2221
      5  PB        34.9780   75.2990   -7.6610 P.3   500  DTP500      0.2277
      6  O1B       33.6670   75.6150   -6.9920 O.2   500  DTP500     -0.5168
      7  O2B       36.0390   74.6930   -6.9850 O.3   500  DTP500     -0.4368
      8  O3B       35.5230   76.6330   -8.3890 O.3   500  DTP500     -0.2258
      9  PA        33.1440   74.0480   -9.4850 P.3   500  DTP500      0.2189
     10  O1A       32.5940   73.2080   -8.4130 O.3   500  DTP500     -0.4371
     11  O2A       32.3020   75.1420   -9.9120 O.2   500  DTP500     -0.5170
     12  O3A       34.6080   74.4380   -8.9390 O.3   500  DTP500     -0.2700
     13  O5'       33.4690   73.2160  -10.6570 O.3   500  DTP500     -0.3112
     14  C5'       34.0620   73.7990  -11.8310 C.3   500  DTP500      0.1813
     15  C4'       33.7930   73.0930  -13.1390 C.3   500  DTP500      0.1795
     16  O4'       32.3750   72.8680  -13.3070 O.3   500  DTP500     -0.3155
     17  C3'       34.2570   73.8750  -14.3340 C.3   500  DTP500      0.1883
     18  O3'       35.2720   73.1600  -15.0050 O.3   500  DTP500     -0.2202
     19  C2'       33.0260   74.1350  -15.1900 C.3   500  DTP500      0.1151
     20  C1'       31.8670   73.4640  -14.4730 C.3   500  DTP500      0.2873
     21  N9        30.8360   74.4270  -14.0550 N.pl3 500  DTP500     -0.1460
     22  C8        30.5820   75.2060  -12.9690 C.3   500  DTP500      0.3377
     23  N7        29.5000   75.9320  -13.0650 N.2   500  DTP500     -0.2095
     24  C5        29.0020   75.6160  -14.2950 C.2   500  DTP500      0.2526
     25  C6        27.8380   76.0560  -15.0250 C.2   500  DTP500      0.4393
     26  N6        26.9720   76.9440  -14.5550 N.pl3 500  DTP500      0.2180
     27  N1        27.6130   75.5280  -16.2790 N.2   500  DTP500      0.0021
     28  C2        28.4890   74.6190  -16.7780 C.3   500  DTP500      0.5254
     29  N3        29.6060   74.1420  -16.1780 N.2   500  DTP500     -0.0055
     30  C4        29.8040   74.6850  -14.9320 C.2   500  DTP500      0.3518
@<TRIPOS>BOND
     1    28    27    1
     2    28    29    1
     3    27    25    2
     4    29    30    2
     5    19    20    1
     6    19    17    1
     7    25    26    1
     8    25    24    1
     9    18    17    1
    10    30    24    1
    11    30    21    1
    12    20    21    1
    13    20    16    1
    14    17    15    1
    15    24    23    2
    16    21    22    1
    17    16    15    1
    18    15    14    1
    19    23    22    1
    20    14    13    1
    21    13     9    1
    22     4     1    2
    23    11     9    2
    24     9    12    1
    25     9    10    1
    26    12     5    1
    27     1     8    1
    28     1     2    1
    29     1     3    1
    30     8     5    1
    31     5     6    2
    32     5     7    1
