@<TRIPOS>MOLECULE
1mo8_ATP_A_1.pdb
 43 45 0 0 0
SMALL
GASTEIGER

@<TRIPOS>ATOM
      1  PG        -6.2880   -5.0420   15.8120 P.3   900  ATP900      0.5373
      2  O1G       -5.2870   -6.1110   15.6520 O.3   900  ATP900     -0.1143
      3  O2G       -6.4580   -4.5840   17.2040 O.3   900  ATP900     -0.1143
      4  O3G       -7.5720   -5.3670   15.1750 O.2   900  ATP900     -0.2221
      5  PB        -4.2780   -3.1100   14.9300 P.3   900  ATP900      0.2277
      6  O1B       -3.2630   -4.0900   14.5120 O.2   900  ATP900     -0.5168
      7  O2B       -4.0260   -2.4210   16.2130 O.3   900  ATP900     -0.4368
      8  O3B       -5.7820   -3.7530   14.9800 O.3   900  ATP900     -0.2258
      9  PA        -3.9470   -1.9620   12.2970 P.3   900  ATP900      0.2182
     10  O1A       -5.0790   -2.4600   11.4880 O.2   900  ATP900     -0.5170
     11  O2A       -2.5710   -2.4570   12.0940 O.3   900  ATP900     -0.4371
     12  O3A       -4.3690   -1.8870   13.8590 O.3   900  ATP900     -0.2700
     13  O5'       -3.9020   -0.3960   12.0430 O.3   900  ATP900     -0.3246
     14  C5'       -2.8560    0.3970   12.5750 C.3   900  ATP900      0.0836
     15  C4'       -1.9640    1.0410   11.5120 C.3   900  ATP900      0.1131
     16  O4'       -0.7070    0.4360   11.2710 O.3   900  ATP900     -0.3474
     17  C3'       -2.5900    1.1920   10.1070 C.3   900  ATP900      0.1133
     18  O3'       -2.7660    2.5620    9.8550 O.3   900  ATP900     -0.3864
     19  C2'       -1.4920    0.7660    9.1180 C.3   900  ATP900      0.1266
     20  O2'       -1.4940    1.6070    7.9630 O.3   900  ATP900     -0.3849
     21  C1'       -0.3350    1.0690   10.0600 C.3   900  ATP900      0.1617
     22  N9         1.0380    0.8120    9.6180 N.pl3 900  ATP900     -0.2234
     23  C8         1.8790   -0.1980   10.0050 C.2   900  ATP900      0.1451
     24  N7         3.1280    0.1820   10.1230 N.2   900  ATP900     -0.3871
     25  C5         3.1060    1.5120    9.7150 C.2   900  ATP900      0.2211
     26  C6         4.0540    2.5580    9.7340 C.2   900  ATP900      0.2227
     27  N6         5.2790    2.4410   10.2360 N.pl3 900  ATP900     -0.3300
     28  N1         3.7110    3.7820    9.2990 N.2   900  ATP900     -0.3296
     29  C2         2.4490    3.9800    8.9160 C.1   900  ATP900      0.0930
     30  N3         1.4500    3.1160    8.9040 N.2   900  ATP900     -0.3287
     31  C4         1.8520    1.8710    9.3020 C.2   900  ATP900      0.2354
     32 H5'1       -2.2550   -0.1690   13.2870 H     900  ATP900      0.0591
     33 H5'2       -3.3190    1.2110   13.1250 H     900  ATP900      0.0591
     34  H4'       -1.7500    2.0420   11.9070 H     900  ATP900      0.0647
     35  H3'       -3.4920    0.6030    9.9350 H     900  ATP900      0.0647
     36 HO3'       -2.3110    2.6460    8.9970 H     900  ATP900      0.2100
     37  H2'       -1.5460   -0.3020    8.8640 H     900  ATP900      0.0663
     38 HO2'       -1.5880    1.0590    7.1450 H     900  ATP900      0.2101
     39  H1'       -0.3500    2.1540   10.2240 H     900  ATP900      0.0841
     40  H8         1.5070   -1.1770   10.2900 H     900  ATP900      0.1149
     41 HN61        5.8050    3.2430   10.5360 H     900  ATP900      0.1448
     42 HN62        5.4630    1.5370   10.6840 H     900  ATP900      0.1448
     43  H2         2.2110    4.9820    8.5870 H     900  ATP900      0.1751
@<TRIPOS>BOND
     1    38    20    1
     2    20    19    1
     3    43    29    1
     4    37    19    1
     5    30    29    2
     6    30    31    2
     7    29    28    2
     8    36    18    1
     9    19    21    1
    10    19    17    1
    11    28    26    2
    12    31    22    1
    13    31    25    1
    14    22    23    1
    15    22    21    1
    16    25    26    1
    17    25    24    2
    18    26    27    1
    19    18    17    1
    20    35    17    1
    21    23    24    2
    22    23    40    1
    23    21    39    1
    24    21    16    1
    25    17    15    1
    26    27    41    1
    27    27    42    1
    28    16    15    1
    29    10     9    2
    30    15    34    1
    31    15    14    1
    32    13     9    1
    33    13    14    1
    34    11     9    1
    35     9    12    1
    36    14    33    1
    37    14    32    1
    38    12     5    1
    39     6     5    2
    40     5     8    1
    41     5     7    1
    42     8     1    1
    43     4     1    2
    44     2     1    1
    45     1     3    1
