@<TRIPOS>MOLECULE
1mo9_KPC_A_1.pdb
 11 10 0 0 0
SMALL
GASTEIGER

@<TRIPOS>ATOM
      1  CAK       25.8590   -2.4910   10.4330 C.3   1015  KPC1015     0.0732
      2  CAJ       25.0350   -2.2760   11.7040 C.2   1015  KPC1015     0.1619
      3  OAC       23.8620   -1.9060   11.6220 O.2   1015  KPC1015    -0.2951
      4  CAI       25.6770   -2.5120   13.0720 C.3   1015  KPC1015     0.1218
      5  SAH       24.4450   -2.4000   14.4240 S.3   1015  KPC1015    -0.1306
      6  CAG       23.8590   -4.1260   14.4860 C.3   1015  KPC1015     0.0794
      7  CAF       22.4920   -4.3100   13.8360 C.3   1015  KPC1015     0.1169
      8  SAE       21.9590   -6.0530   13.8530 S.3   1015  KPC1015    -0.1951
      9  OAD       22.9780   -6.8770   13.1260 O.3   1015  KPC1015    -0.3075
     10  OAL       21.8410   -6.5270   15.2700 O.3   1015  KPC1015    -0.3075
     11  OAB       20.6260   -6.1740   13.1790 O.3   1015  KPC1015    -0.3075
@<TRIPOS>BOND
     1     1     2    1
     2     3     2    2
     3     2     4    1
     4     4     5    1
     5     9     8    1
     6    11     8    1
     7     7     8    1
     8     7     6    1
     9     8    10    1
    10     5     6    1
