@<TRIPOS>MOLECULE
1moa_HEM_A_1.pdb
 43 50 0 0 0
SMALL
GASTEIGER

@<TRIPOS>ATOM
      1 FE         35.1370    4.2520    9.9770 Fe    154  HEM154      0.0000
      2  CHA       37.8970    2.5160   11.2570 C.2   154  HEM154      0.0000
      3  CHB       37.1860    5.4320    7.4790 C.2   154  HEM154      0.0000
      4  CHC       32.7010    6.4960    9.1380 C.2   154  HEM154      0.0000
      5  CHD       33.3940    3.4830   12.9800 C.2   154  HEM154      0.0000
      6  NA        37.1650    4.0310    9.5650 N.ar  154  HEM154      0.0000
      7  C1A       38.1060    3.3000   10.1280 C.ar  154  HEM154      0.0000
      8  C2A       39.3170    3.2270    9.3330 C.ar  154  HEM154      0.0000
      9  C3A       39.0460    4.0050    8.1620 C.ar  154  HEM154      0.0000
     10  C4A       37.7650    4.5360    8.3960 C.ar  154  HEM154      0.0000
     11  CMA       39.9480    4.3040    6.9660 C.3   154  HEM154      0.0000
     12  CAA       40.6350    2.3600    9.5730 C.3   154  HEM154      0.0000
     13  CBA       40.6100    1.2250    8.5540 C.3   154  HEM154      0.0000
     14  CGA       39.4400    0.2420    8.6480 C.2   154  HEM154      0.0000
     15  O1A       39.0510   -0.1530    9.7480 O.co2 154  HEM154      0.0000
     16  O2A       38.7610    0.0880    7.6400 O.co2 154  HEM154      0.0000
     17  NB        34.9390    5.6580    8.5400 N.2   154  HEM154      0.0000
     18  C1B       35.7400    5.9130    7.5280 C.2   154  HEM154      0.0000
     19  C2B       35.1460    6.8840    6.5450 C.2   154  HEM154      0.0000
     20  C3B       33.9840    7.1580    7.0890 C.2   154  HEM154      0.0000
     21  C4B       33.8860    6.4660    8.3020 C.2   154  HEM154      0.0000
     22  CMB       35.7820    7.5000    5.2320 C.3   154  HEM154      0.0000
     23  CAB       33.0590    8.1520    6.5840 C.3   154  HEM154      0.0000
     24  CBB       33.1850    9.4680    5.9880 C.3   154  HEM154      0.0000
     25  NC        33.4400    4.8070   10.7980 N.ar  154  HEM154      0.0000
     26  C1C       32.5480    5.7190   10.2910 C.ar  154  HEM154      0.0000
     27  C2C       31.4460    5.9300   11.1260 C.ar  154  HEM154      0.0000
     28  C3C       31.5900    5.1240   12.2340 C.ar  154  HEM154      0.0000
     29  C4C       32.8720    4.4330   12.0440 C.ar  154  HEM154      0.0000
     30  CMC       30.2730    6.9340   10.8640 C.3   154  HEM154      0.0000
     31  CAC       30.8140    4.9100   13.4850 C.3   154  HEM154      0.0000
     32  CBC       29.6560    5.4200   14.1640 C.3   154  HEM154      0.0000
     33  ND        35.5530    3.2820   11.6680 N.2   154  HEM154      0.0000
     34  C1D       34.7490    3.0270   12.8060 C.2   154  HEM154      0.0000
     35  C2D       35.3110    2.1390   13.7580 C.2   154  HEM154      0.0000
     36  C3D       36.5740    1.9060   13.2520 C.2   154  HEM154      0.0000
     37  C4D       36.7090    2.5920   11.9820 C.2   154  HEM154      0.0000
     38  CMD       34.6610    1.5060   15.0200 C.3   154  HEM154      0.0000
     39  CAD       37.7090    1.2360   13.9220 C.3   154  HEM154      0.0000
     40  CBD       38.4310    2.1670   14.9050 C.3   154  HEM154      0.0000
     41  CGD       39.5360    1.4690   15.7210 C.2   154  HEM154      0.0000
     42  O1D       39.2510    1.0550   16.8550 O.co2 154  HEM154      0.0000
     43  O2D       40.6920    1.7820   15.4470 O.co2 154  HEM154      0.0000
@<TRIPOS>BOND
     1    22    19    1
     2    24    23    1
     3    19    20    2
     4    19    18    1
     5    23    20    1
     6    11     9    1
     7    20    21    1
     8     3    18    1
     9     3    10    2
    10    18    17    2
    11    16    14   ar
    12     9    10   ar
    13     9     8   ar
    14    21    17    1
    15    21     4    2
    16    10     6   ar
    17    17     1    1
    18    13    14    1
    19    13    12    1
    20    14    15   ar
    21     4    26    1
    22     8    12    1
    23     8     7   ar
    24     6     1    1
    25     6     7   ar
    26     1    25    1
    27     1    33    1
    28     7     2    2
    29    26    25   ar
    30    26    27   ar
    31    25    29   ar
    32    30    27    1
    33    27    28   ar
    34     2    37    1
    35    33    37    2
    36    33    34    1
    37    37    36    1
    38    29    28   ar
    39    29     5    1
    40    28    31    1
    41    34     5    2
    42    34    35    1
    43    36    35    2
    44    36    39    1
    45    31    32    1
    46    35    38    1
    47    39    40    1
    48    40    41    1
    49    43    41   ar
    50    41    42   ar
