@<TRIPOS>MOLECULE
1mob_HEM_A_1.pdb
 43 50 0 0 0
SMALL
GASTEIGER

@<TRIPOS>ATOM
      1 FE         35.2140    4.3000    9.9040 Fe    154  HEM154      0.0000
      2  CHA       37.9370    2.6040   11.2290 C.2   154  HEM154      0.0000
      3  CHB       37.1270    5.4060    7.4200 C.2   154  HEM154      0.0000
      4  CHC       32.7960    6.5000    9.1300 C.2   154  HEM154      0.0000
      5  CHD       33.5370    3.6950   12.9560 C.2   154  HEM154      0.0000
      6  NA        37.2050    4.1570    9.4950 N.ar  154  HEM154      0.0000
      7  C1A       38.1560    3.3760   10.0980 C.ar  154  HEM154      0.0000
      8  C2A       39.2960    3.2680    9.2410 C.ar  154  HEM154      0.0000
      9  C3A       39.0090    4.0170    8.1040 C.ar  154  HEM154      0.0000
     10  C4A       37.7180    4.5450    8.2980 C.ar  154  HEM154      0.0000
     11  CMA       39.9020    4.3210    6.9210 C.3   154  HEM154      0.0000
     12  CAA       40.6520    2.4040    9.4220 C.3   154  HEM154      0.0000
     13  CBA       40.7500    1.1970    8.4930 C.3   154  HEM154      0.0000
     14  CGA       39.5400    0.2520    8.6040 C.2   154  HEM154      0.0000
     15  O1A       39.1550   -0.1210    9.7430 O.co2 154  HEM154      0.0000
     16  O2A       38.8000    0.1870    7.6040 O.co2 154  HEM154      0.0000
     17  NB        34.9890    5.6030    8.5010 N.2   154  HEM154      0.0000
     18  C1B       35.8210    5.9520    7.5130 C.2   154  HEM154      0.0000
     19  C2B       35.2400    6.8790    6.5250 C.2   154  HEM154      0.0000
     20  C3B       34.1140    7.1340    7.0970 C.2   154  HEM154      0.0000
     21  C4B       33.9510    6.4500    8.3550 C.2   154  HEM154      0.0000
     22  CMB       35.6490    7.3070    5.1030 C.3   154  HEM154      0.0000
     23  CAB       33.0850    8.0790    6.7070 C.3   154  HEM154      0.0000
     24  CBB       33.1580    9.2850    5.9240 C.3   154  HEM154      0.0000
     25  NC        33.4010    4.7190   10.8720 N.ar  154  HEM154      0.0000
     26  C1C       32.5850    5.6560   10.3300 C.ar  154  HEM154      0.0000
     27  C2C       31.4730    5.9940   11.2050 C.ar  154  HEM154      0.0000
     28  C3C       31.6090    5.2150   12.3180 C.ar  154  HEM154      0.0000
     29  C4C       32.9160    4.4640   12.0300 C.ar  154  HEM154      0.0000
     30  CMC       30.3270    6.9520   10.7370 C.3   154  HEM154      0.0000
     31  CAC       30.7790    4.9870   13.5250 C.3   154  HEM154      0.0000
     32  CBC       29.8910    5.2490   14.6430 C.3   154  HEM154      0.0000
     33  ND        35.5740    3.3830   11.6260 N.2   154  HEM154      0.0000
     34  C1D       34.7790    3.1540   12.7520 C.2   154  HEM154      0.0000
     35  C2D       35.4060    2.2980   13.6970 C.2   154  HEM154      0.0000
     36  C3D       36.6440    1.9980   13.2340 C.2   154  HEM154      0.0000
     37  C4D       36.7570    2.6190   11.9790 C.2   154  HEM154      0.0000
     38  CMD       34.8120    1.7520   15.0080 C.3   154  HEM154      0.0000
     39  CAD       37.6580    1.2900   14.1910 C.2   154  HEM154      0.0000
     40  CBD       38.4560    2.2290   15.1230 C.2   154  HEM154      0.0000
     41  CGD       39.7040    1.6310   15.7880 C.2   154  HEM154      0.0000
     42  O1D       39.5790    0.8000   16.6800 O.co2 154  HEM154      0.0000
     43  O2D       40.8070    1.8190   15.2970 O.co2 154  HEM154      0.0000
@<TRIPOS>BOND
     1    22    19    1
     2    24    23    1
     3    19    20    2
     4    19    18    1
     5    23    20    1
     6    11     9    1
     7    20    21    1
     8     3    18    1
     9     3    10    2
    10    18    17    2
    11    16    14   ar
    12     9    10   ar
    13     9     8   ar
    14    10     6   ar
    15    21    17    1
    16    21     4    2
    17    13    14    1
    18    13    12    1
    19    17     1    1
    20    14    15   ar
    21     4    26    1
    22     8    12    1
    23     8     7   ar
    24     6     1    1
    25     6     7   ar
    26     1    25    1
    27     1    33    1
    28     7     2    2
    29    26    25   ar
    30    26    27   ar
    31    30    27    1
    32    25    29   ar
    33    27    28   ar
    34     2    37    1
    35    33    37    2
    36    33    34    1
    37    37    36    1
    38    29    28   ar
    39    29     5    1
    40    28    31    1
    41    34     5    2
    42    34    35    1
    43    36    35    2
    44    36    39    1
    45    31    32    1
    46    35    38    1
    47    39    40    2
    48    40    41    1
    49    43    41   ar
    50    41    42   ar
