@<TRIPOS>MOLECULE
1moc_HEM_A_1.pdb
 43 50 0 0 0
SMALL
GASTEIGER

@<TRIPOS>ATOM
      1 FE         35.2390    4.3710   10.1770 Fe    154  HEM154      0.0000
      2  CHA       37.9320    2.4340   11.3750 C.2   154  HEM154      0.0000
      3  CHB       37.0640    5.4450    7.5730 C.2   154  HEM154      0.0000
      4  CHC       32.6080    6.2180    9.1110 C.2   154  HEM154      0.0000
      5  CHD       33.4230    3.2590   12.9590 C.2   154  HEM154      0.0000
      6  NA        37.0360    4.0170    9.6490 N.ar  154  HEM154      0.0000
      7  C1A       38.0510    3.2330   10.2350 C.ar  154  HEM154      0.0000
      8  C2A       39.2690    3.2880    9.3930 C.ar  154  HEM154      0.0000
      9  C3A       39.0360    4.0830    8.3460 C.ar  154  HEM154      0.0000
     10  C4A       37.6380    4.5620    8.4840 C.ar  154  HEM154      0.0000
     11  CMA       39.9840    4.3760    7.2020 C.3   154  HEM154      0.0000
     12  CAA       40.5840    2.4760    9.5360 C.3   154  HEM154      0.0000
     13  CBA       40.6810    1.2400    8.6810 C.3   154  HEM154      0.0000
     14  CGA       39.4530    0.3500    8.7910 C.2   154  HEM154      0.0000
     15  O1A       39.1510   -0.1090    9.9070 O.co2 154  HEM154      0.0000
     16  O2A       38.8310    0.0720    7.7550 O.co2 154  HEM154      0.0000
     17  NB        34.8440    5.6000    8.6790 N.2   154  HEM154      0.0000
     18  C1B       35.7350    5.9380    7.6870 C.2   154  HEM154      0.0000
     19  C2B       35.0990    6.8420    6.7020 C.2   154  HEM154      0.0000
     20  C3B       33.8630    7.0740    7.1450 C.2   154  HEM154      0.0000
     21  C4B       33.6980    6.2470    8.3450 C.2   154  HEM154      0.0000
     22  CMB       35.7250    7.3560    5.4130 C.3   154  HEM154      0.0000
     23  CAB       32.9880    8.0600    6.6640 C.3   154  HEM154      0.0000
     24  CBB       33.2670    9.3590    6.0670 C.3   154  HEM154      0.0000
     25  NC        33.4010    4.6960   10.9270 N.ar  154  HEM154      0.0000
     26  C1C       32.4970    5.5290   10.4050 C.ar  154  HEM154      0.0000
     27  C2C       31.3450    5.6220   11.2800 C.ar  154  HEM154      0.0000
     28  C3C       31.5350    4.8120   12.4120 C.ar  154  HEM154      0.0000
     29  C4C       32.8120    4.1720   12.1150 C.ar  154  HEM154      0.0000
     30  CMC       30.1710    6.5620   11.0020 C.3   154  HEM154      0.0000
     31  CAC       30.8590    4.8050   13.7040 C.3   154  HEM154      0.0000
     32  CBC       29.5250    5.1740   14.0880 C.3   154  HEM154      0.0000
     33  ND        35.6680    3.1630   11.8220 N.2   154  HEM154      0.0000
     34  C1D       34.7630    2.8660   12.9000 C.2   154  HEM154      0.0000
     35  C2D       35.3440    1.9880   13.8360 C.2   154  HEM154      0.0000
     36  C3D       36.5970    1.7730   13.4520 C.2   154  HEM154      0.0000
     37  C4D       36.7900    2.4670   12.1270 C.2   154  HEM154      0.0000
     38  CMD       34.7150    1.4130   15.0770 C.3   154  HEM154      0.0000
     39  CAD       37.7400    1.2160   14.3320 C.3   154  HEM154      0.0000
     40  CBD       38.4260    2.2590   15.2110 C.3   154  HEM154      0.0000
     41  CGD       39.6760    1.7280   15.9120 C.2   154  HEM154      0.0000
     42  O1D       39.5620    0.7500   16.6520 O.co2 154  HEM154      0.0000
     43  O2D       40.7720    2.0380   15.4560 O.co2 154  HEM154      0.0000
@<TRIPOS>BOND
     1    22    19    1
     2    24    23    1
     3    23    20    1
     4    19    20    2
     5    19    18    1
     6    20    21    1
     7    11     9    1
     8     3    18    1
     9     3    10    2
    10    18    17    2
    11    16    14   ar
    12    21    17    1
    13    21     4    2
    14     9    10   ar
    15     9     8   ar
    16    10     6   ar
    17    17     1    1
    18    13    14    1
    19    13    12    1
    20    14    15   ar
    21     4    26    1
    22     8    12    1
    23     8     7   ar
    24     6     1    1
    25     6     7   ar
    26     1    25    1
    27     1    33    1
    28     7     2    2
    29    26    25   ar
    30    26    27   ar
    31    25    29   ar
    32    30    27    1
    33    27    28   ar
    34     2    37    1
    35    33    37    2
    36    33    34    1
    37    29    28   ar
    38    29     5    1
    39    37    36    1
    40    28    31    1
    41    34     5    2
    42    34    35    1
    43    36    35    2
    44    36    39    1
    45    31    32    1
    46    35    38    1
    47    39    40    1
    48    40    41    1
    49    43    41   ar
    50    41    42   ar
