@<TRIPOS>MOLECULE
1mod_HEM_A_1.pdb
 43 50 0 0 0
SMALL
GASTEIGER

@<TRIPOS>ATOM
      1 FE         35.2190    4.3760    9.9080 Fe    154  HEM154      0.0000
      2  CHA       37.9660    2.6130   11.1750 C.2   154  HEM154      0.0000
      3  CHB       37.1280    5.5100    7.3380 C.2   154  HEM154      0.0000
      4  CHC       32.7310    6.4550    9.0210 C.2   154  HEM154      0.0000
      5  CHD       33.4950    3.5850   12.8660 C.2   154  HEM154      0.0000
      6  NA        37.0520    4.1230    9.4050 N.ar  154  HEM154      0.0000
      7  C1A       38.0840    3.3640    9.9800 C.ar  154  HEM154      0.0000
      8  C2A       39.3030    3.4220    9.1360 C.ar  154  HEM154      0.0000
      9  C3A       39.0330    4.2060    8.0810 C.ar  154  HEM154      0.0000
     10  C4A       37.6570    4.6330    8.2410 C.ar  154  HEM154      0.0000
     11  CMA       39.8590    4.4410    6.8750 C.3   154  HEM154      0.0000
     12  CAA       40.6080    2.5420    9.2780 C.3   154  HEM154      0.0000
     13  CBA       40.7450    1.2590    8.4980 C.3   154  HEM154      0.0000
     14  CGA       39.5550    0.3570    8.6370 C.2   154  HEM154      0.0000
     15  O1A       39.2270   -0.0510    9.7590 O.co2 154  HEM154      0.0000
     16  O2A       38.8320    0.2230    7.6470 O.co2 154  HEM154      0.0000
     17  NB        34.9380    5.7560    8.4470 N.2   154  HEM154      0.0000
     18  C1B       35.7990    6.1310    7.4630 C.2   154  HEM154      0.0000
     19  C2B       35.1990    7.0250    6.5010 C.2   154  HEM154      0.0000
     20  C3B       33.9770    7.2730    7.0280 C.2   154  HEM154      0.0000
     21  C4B       33.8230    6.4730    8.2020 C.2   154  HEM154      0.0000
     22  CMB       35.7430    7.4560    5.1970 C.3   154  HEM154      0.0000
     23  CAB       33.0080    8.2670    6.6750 C.3   154  HEM154      0.0000
     24  CBB       33.2440    9.5100    5.9910 C.3   154  HEM154      0.0000
     25  NC        33.5000    4.9300   10.7960 N.ar  154  HEM154      0.0000
     26  C1C       32.6280    5.7620   10.2890 C.ar  154  HEM154      0.0000
     27  C2C       31.5460    5.9690   11.1570 C.ar  154  HEM154      0.0000
     28  C3C       31.7880    5.1920   12.2210 C.ar  154  HEM154      0.0000
     29  C4C       32.9690    4.5290   11.9760 C.ar  154  HEM154      0.0000
     30  CMC       30.3530    6.9050   10.9530 C.3   154  HEM154      0.0000
     31  CAC       31.0390    4.9990   13.4830 C.3   154  HEM154      0.0000
     32  CBC       29.7900    5.4100   14.0360 C.3   154  HEM154      0.0000
     33  ND        35.7230    3.3850   11.6300 N.2   154  HEM154      0.0000
     34  C1D       34.8270    3.1550   12.7330 C.2   154  HEM154      0.0000
     35  C2D       35.4790    2.3190   13.6950 C.2   154  HEM154      0.0000
     36  C3D       36.7110    2.0230   13.2870 C.2   154  HEM154      0.0000
     37  C4D       36.8640    2.7190   11.9560 C.2   154  HEM154      0.0000
     38  CMD       34.8940    1.7620   14.9210 C.3   154  HEM154      0.0000
     39  CAD       37.8520    1.5290   14.2150 C.3   154  HEM154      0.0000
     40  CBD       38.6920    2.5800   14.9450 C.3   154  HEM154      0.0000
     41  CGD       39.9610    1.9540   15.5370 C.2   154  HEM154      0.0000
     42  O1D       39.8220    1.0590   16.3880 O.co2 154  HEM154      0.0000
     43  O2D       40.9520    1.9320   14.8060 O.co2 154  HEM154      0.0000
@<TRIPOS>BOND
     1    22    19    1
     2    24    23    1
     3    19    20    2
     4    19    18    1
     5    23    20    1
     6    11     9    1
     7    20    21    1
     8     3    18    1
     9     3    10    2
    10    18    17    2
    11    16    14   ar
    12     9    10   ar
    13     9     8   ar
    14    21    17    1
    15    21     4    2
    16    10     6   ar
    17    17     1    1
    18    13    14    1
    19    13    12    1
    20    14    15   ar
    21     4    26    1
    22     8    12    1
    23     8     7   ar
    24     6     1    1
    25     6     7   ar
    26     1    25    1
    27     1    33    1
    28     7     2    2
    29    26    25   ar
    30    26    27   ar
    31    25    29   ar
    32    30    27    1
    33    27    28   ar
    34     2    37    1
    35    33    37    2
    36    33    34    1
    37    37    36    1
    38    29    28   ar
    39    29     5    1
    40    28    31    1
    41    34     5    2
    42    34    35    1
    43    36    35    2
    44    36    39    1
    45    31    32    1
    46    35    38    1
    47    39    40    1
    48    43    41   ar
    49    40    41    1
    50    41    42   ar
