@<TRIPOS>MOLECULE
1mog_RBF_A_1.pdb
 27 29 0 0 0
SMALL
GASTEIGER

@<TRIPOS>ATOM
      1  N1         0.1980   22.4830   -2.7500 N.2   200  RBF200     -0.2890
      2  C2        -0.4470   22.1540   -3.8440 C.1   200  RBF200      0.3669
      3  O2        -0.9260   22.9930   -4.5750 O.2   200  RBF200     -0.1744
      4  N3        -0.6210   20.7810   -4.2170 N.2   200  RBF200     -0.2300
      5  C4        -0.1300   19.7370   -3.4540 C.1   200  RBF200      0.2513
      6  O4        -0.3110   18.6500   -3.8030 O.2   200  RBF200     -0.2057
      7  C4A        0.6030   20.0780   -2.2430 C.2   200  RBF200      0.2700
      8  N5         1.1210   19.1030   -1.4500 N.2   200  RBF200     -0.3878
      9  C5A        1.8080   19.5010   -0.3450 C.2   200  RBF200      0.1320
     10  C6         2.3780   18.4810    0.4750 C.2   200  RBF200      0.0250
     11  C7         3.1080   18.8010    1.6110 C.2   200  RBF200     -0.0238
     12  C7M        3.7190   17.7050    2.4560 C.3   200  RBF200      0.0308
     13  C8         3.2940   20.1930    1.9900 C.2   200  RBF200     -0.0280
     14  C8M        4.0860   20.5690    3.2070 C.3   200  RBF200      0.0304
     15  C9         2.7260   21.2270    1.2040 C.2   200  RBF200     -0.0041
     16  C9A        1.9910   20.8930    0.0360 C.3   200  RBF200      0.1497
     17  N10        1.3940   21.8650   -0.8210 N.pl3 200  RBF200     -0.2691
     18  C10        0.7360   21.4980   -1.9320 C.2   200  RBF200      0.2416
     19  C1'        1.4530   23.3410   -0.5100 C.3   200  RBF200      0.1294
     20  C2'        2.4780   24.2010   -1.2700 C.3   200  RBF200      0.2044
     21  O2'        3.6620   24.0860   -0.5450 O.3   200  RBF200     -0.2185
     22  C3'        2.0030   25.6720   -1.2460 C.3   200  RBF200      0.2166
     23  O3'        1.8520   26.1080    0.0990 O.3   200  RBF200     -0.2175
     24  C4'        0.6280   25.7650   -1.9650 C.3   200  RBF200      0.2175
     25  O4'        0.7540   25.2600   -3.3290 O.3   200  RBF200     -0.2175
     26  C5'        0.1400   27.2270   -1.9880 C.3   200  RBF200      0.2175
     27  O5'       -1.2850   27.2560   -2.7690 O.3   200  RBF200     -0.2175
@<TRIPOS>BOND
     1     3     2    2
     2     4     2    2
     3     4     5    2
     4     2     1    2
     5     6     5    2
     6     5     7    1
     7    25    24    1
     8    27    26    1
     9     1    18    2
    10     7    18    1
    11     7     8    2
    12    26    24    1
    13    24    22    1
    14    18    17    1
    15     8     9    2
    16    20    22    1
    17    20    21    1
    18    20    19    1
    19    22    23    1
    20    17    19    1
    21    17    16    1
    22     9    16    1
    23     9    10    1
    24    16    15    1
    25    10    11    2
    26    15    13    2
    27    11    13    1
    28    11    12    1
    29    13    14    1
