@<TRIPOS>MOLECULE
1moh_HEM_A_1.pdb
 43 50 0 0 0
SMALL
GASTEIGER

@<TRIPOS>ATOM
      1 FE         12.5920   -4.3550    0.6020 Fe    143  HEM143      0.0000
      2  CHA       14.0270   -7.0440   -0.7000 C.2   143  HEM143      0.0000
      3  CHB       15.5740   -3.2060    1.8450 C.2   143  HEM143      0.0000
      4  CHC       11.1500   -1.5760    1.7630 C.2   143  HEM143      0.0000
      5  CHD        9.4990   -5.5490   -0.2940 C.2   143  HEM143      0.0000
      6  NA        14.2730   -4.7990    0.5270 N.2   143  HEM143      0.0000
      7  C1A       14.7060   -5.9500   -0.1940 C.2   143  HEM143      0.0000
      8  C2A       16.1410   -6.0970   -0.2910 C.2   143  HEM143      0.0000
      9  C3A       16.6090   -5.0560    0.4330 C.2   143  HEM143      0.0000
     10  C4A       15.4930   -4.2830    0.9550 C.2   143  HEM143      0.0000
     11  CMA       18.1010   -4.8380    0.7340 C.3   143  HEM143      0.0000
     12  CAA       16.9890   -7.3120   -0.8170 C.3   143  HEM143      0.0000
     13  CBA       17.6550   -6.7270   -2.0850 C.3   143  HEM143      0.0000
     14  CGA       16.6820   -6.7170   -3.2430 C.2   143  HEM143      0.0000
     15  O1A       16.3890   -7.7530   -3.8980 O.co2 143  HEM143      0.0000
     16  O2A       16.0500   -5.6940   -3.5240 O.co2 143  HEM143      0.0000
     17  NB        13.1840   -2.6580    1.6000 N.ar  143  HEM143      0.0000
     18  C1B       14.4130   -2.4790    2.1170 C.ar  143  HEM143      0.0000
     19  C2B       14.4140   -1.2330    2.8950 C.ar  143  HEM143      0.0000
     20  C3B       13.2480   -0.6130    2.7500 C.ar  143  HEM143      0.0000
     21  C4B       12.4460   -1.6810    2.1880 C.ar  143  HEM143      0.0000
     22  CMB       15.7830   -0.9090    3.5020 C.3   143  HEM143      0.0000
     23  CAB       12.7150    0.7390    3.3030 C.2   143  HEM143      0.0000
     24  CBB       13.3750    1.3720    4.2610 C.2   143  HEM143      0.0000
     25  NC        10.9840   -3.8810    0.6640 N.2   143  HEM143      0.0000
     26  C1C       10.4990   -2.6670    1.2320 C.2   143  HEM143      0.0000
     27  C2C        9.0850   -2.4000    1.1740 C.2   143  HEM143      0.0000
     28  C3C        8.5820   -3.5390    0.6930 C.2   143  HEM143      0.0000
     29  C4C        9.7180   -4.3970    0.4280 C.2   143  HEM143      0.0000
     30  CMC        8.1820   -1.3690    1.8860 C.3   143  HEM143      0.0000
     31  CAC        7.0870   -3.8800    0.4240 C.2   143  HEM143      0.0000
     32  CBC        6.0200   -3.1410    0.0090 C.2   143  HEM143      0.0000
     33  ND        11.9300   -5.9220   -0.3590 N.ar  143  HEM143      0.0000
     34  C1D       10.6230   -6.2700   -0.5900 C.ar  143  HEM143      0.0000
     35  C2D       10.5450   -7.5990   -1.2190 C.ar  143  HEM143      0.0000
     36  C3D       11.8170   -7.9830   -1.4780 C.ar  143  HEM143      0.0000
     37  C4D       12.6760   -6.9730   -0.8620 C.ar  143  HEM143      0.0000
     38  CMD        9.1440   -8.0840   -1.6180 C.3   143  HEM143      0.0000
     39  CAD       12.2970   -9.2410   -2.2190 C.3   143  HEM143      0.0000
     40  CBD       12.2210  -10.3590   -1.1320 C.3   143  HEM143      0.0000
     41  CGD       12.7470  -11.7260   -1.5220 C.2   143  HEM143      0.0000
     42  O1D       13.9620  -11.9830   -1.3160 O.co2 143  HEM143      0.0000
     43  O2D       11.9580  -12.5360   -2.0850 O.co2 143  HEM143      0.0000
@<TRIPOS>BOND
     1    15    14   ar
     2    16    14   ar
     3    14    13    1
     4    39    36    1
     5    39    40    1
     6    43    41   ar
     7    13    12    1
     8    38    35    1
     9    41    42   ar
    10    41    40    1
    11    36    35   ar
    12    36    37   ar
    13    35    34   ar
    14    37     2    2
    15    37    33   ar
    16    12     8    1
    17     2     7    1
    18    34    33   ar
    19    34     5    2
    20    33     1    1
    21     5    29    1
    22     8     7    1
    23     8     9    2
    24     7     6    2
    25    32    31    2
    26    31    28    1
    27    29    25    2
    28    29    28    1
    29     9    11    1
    30     9    10    1
    31     6     1    1
    32     6    10    1
    33     1    25    1
    34     1    17    1
    35    25    26    1
    36    28    27    2
    37    10     3    2
    38    27    26    1
    39    27    30    1
    40    26     4    2
    41    17    18   ar
    42    17    21   ar
    43     4    21    1
    44     3    18    1
    45    18    19   ar
    46    21    20   ar
    47    20    19   ar
    48    20    23    1
    49    19    22    1
    50    23    24    2
