@<TRIPOS>MOLECULE
1moq_GLP_A_1.pdb
 16 16 0 0 0
SMALL
GASTEIGER

@<TRIPOS>ATOM
      1  C1        28.6010   16.1110   -4.4140 C.3   609  GLP609      0.2893
      2  C2        28.8910   15.4320   -3.0910 C.3   609  GLP609      0.1836
      3  C3        28.4690   16.3310   -1.9410 C.3   609  GLP609      0.2071
      4  C4        29.1460   17.6830   -2.0190 C.3   609  GLP609      0.2132
      5  C5        28.8520   18.3080   -3.3990 C.3   609  GLP609      0.1807
      6  C6        29.7790   19.5210   -3.5920 C.3   609  GLP609      0.1859
      7  O1        27.2100   16.2670   -4.5550 O.3   609  GLP609     -0.1882
      8  N2        28.2120   14.1670   -3.0350 N.3   609  GLP609     -0.1247
      9  O3        28.8730   15.7090   -0.7040 O.3   609  GLP609     -0.2186
     10  O4        28.6900   18.5990   -1.0450 O.3   609  GLP609     -0.2176
     11  O5        29.1460   17.3920   -4.4350 O.3   609  GLP609     -0.3245
     12  O6        31.1380   19.0410   -3.7440 O.3   609  GLP609     -0.2675
     13  P         32.4010   19.8890   -3.1820 P.3   609  GLP609      0.5327
     14  O1P       32.4310   21.1820   -3.9060 O.2   609  GLP609     -0.2224
     15  O2P       33.5520   19.0030   -3.3860 O.3   609  GLP609     -0.1145
     16  O3P       32.1520   20.2280   -1.7260 O.3   609  GLP609     -0.1145
@<TRIPOS>BOND
     1     7     1    1
     2    11     1    1
     3    11     5    1
     4     1     2    1
     5    14    13    2
     6    12     6    1
     7    12    13    1
     8     6     5    1
     9     5     4    1
    10    15    13    1
    11    13    16    1
    12     2     8    1
    13     2     3    1
    14     4     3    1
    15     4    10    1
    16     3     9    1
