@<TRIPOS>MOLECULE
1mor_G6P_A_1.pdb
 16 16 0 0 0
SMALL
GASTEIGER

@<TRIPOS>ATOM
      1  C1        28.8680   16.3010   -4.4500 C.3   609  G6P609      0.3024
      2  C2        29.0540   15.6180   -3.1270 C.3   609  G6P609      0.2434
      3  C3        28.5970   16.5050   -1.9840 C.3   609  G6P609      0.2199
      4  C4        29.2290   17.8760   -2.0480 C.3   609  G6P609      0.2143
      5  C5        29.0010   18.5170   -3.4400 C.3   609  G6P609      0.1808
      6  C6        29.9060   19.7420   -3.5660 C.3   609  G6P609      0.1859
      7  O1        27.4780   16.4410   -4.6890 O.3   609  G6P609     -0.1869
      8  O2        28.3320   14.3650   -3.1160 O.3   609  G6P609     -0.2148
      9  O3        29.0030   15.8940   -0.7360 O.3   609  G6P609     -0.2174
     10  O4        28.7980   18.8070   -1.1040 O.3   609  G6P609     -0.2176
     11  O5        29.3440   17.6090   -4.4440 O.3   609  G6P609     -0.3237
     12  O6        31.2710   19.3150   -3.7160 O.3   609  G6P609     -0.2675
     13  P         32.5440   20.1230   -3.1620 P.3   609  G6P609      0.5327
     14  O1P       32.5560   21.3990   -3.9120 O.2   609  G6P609     -0.2224
     15  O2P       33.6760   19.2020   -3.3600 O.3   609  G6P609     -0.1145
     16  O3P       32.3450   20.5270   -1.7600 O.3   609  G6P609     -0.1145
@<TRIPOS>BOND
     1     7     1    1
     2     1    11    1
     3     1     2    1
     4    11     5    1
     5    14    13    2
     6    12     6    1
     7    12    13    1
     8     6     5    1
     9     5     4    1
    10    15    13    1
    11    13    16    1
    12     2     8    1
    13     2     3    1
    14     4     3    1
    15     4    10    1
    16     3     9    1
