@<TRIPOS>MOLECULE
1mos_AGP_A_1.pdb
 16 15 0 0 0
SMALL
GASTEIGER

@<TRIPOS>ATOM
      1  C1        27.3200   16.3360    0.0040 C.3   609  AGP609      0.2036
      2  O1        26.9330   15.3680    0.9790 O.3   609  AGP609     -0.2187
      3  C2        27.2700   15.7660   -1.4010 C.3   609  AGP609      0.1575
      4  N2        28.3990   14.9310   -1.6040 N.3   609  AGP609     -0.1273
      5  C3        27.2620   16.8670   -2.4450 C.3   609  AGP609      0.2048
      6  O3        26.1120   17.7020   -2.2690 O.3   609  AGP609     -0.2187
      7  C4        28.4600   17.8090   -2.3680 C.3   609  AGP609      0.2163
      8  O4        28.2850   18.6550   -1.2270 O.3   609  AGP609     -0.2175
      9  C5        28.4400   18.7920   -3.5730 C.3   609  AGP609      0.2147
     10  O5        28.7340   18.0800   -4.7450 O.3   609  AGP609     -0.2176
     11  C6        29.5080   19.8410   -3.3940 C.3   609  AGP609      0.1892
     12  O6        30.7830   19.1410   -3.4940 O.3   609  AGP609     -0.2674
     13  P         32.1310   19.8810   -3.0740 P.3   609  AGP609      0.5327
     14  O1P       33.2290   18.9560   -3.2760 O.3   609  AGP609     -0.1145
     15  O2P       32.2990   21.1760   -3.8120 O.2   609  AGP609     -0.2224
     16  O3P       32.0480   20.3140   -1.6380 O.3   609  AGP609     -0.1145
@<TRIPOS>BOND
     1    10     9    1
     2    15    13    2
     3     9    11    1
     4     9     7    1
     5    12    11    1
     6    12    13    1
     7    14    13    1
     8    13    16    1
     9     5     7    1
    10     5     6    1
    11     5     3    1
    12     7     8    1
    13     4     3    1
    14     3     1    1
    15     1     2    1
