@<TRIPOS>MOLECULE
1mox_FUC_A_1.pdb
 10 10 0 0 0
SMALL
GASTEIGER

@<TRIPOS>ATOM
      1  C1        -1.8760   26.2450   24.7250 C.3   601  FUC601      0.1776
      2  C2        -2.5450   26.2530   26.1140 C.3   601  FUC601      0.2141
      3  C3        -2.0040   27.3950   26.9790 C.3   601  FUC601      0.2172
      4  C4        -2.1410   28.7240   26.2320 C.3   601  FUC601      0.2116
      5  C5        -1.4090   28.6370   24.8880 C.3   601  FUC601      0.1483
      6  C6        -1.5790   29.8940   24.0550 C.3   601  FUC601      0.0349
      7  O2        -2.3220   25.0110   26.7670 O.3   601  FUC601     -0.2176
      8  O3        -2.7110   27.4510   28.2100 O.3   601  FUC601     -0.2175
      9  O4        -3.5120   29.0280   26.0160 O.3   601  FUC601     -0.2177
     10  O5        -1.9170   27.5340   24.0990 O.3   601  FUC601     -0.3508
@<TRIPOS>BOND
     1     6     5    1
     2    10     1    1
     3    10     5    1
     4     1     2    1
     5     5     4    1
     6     9     4    1
     7     2     7    1
     8     2     3    1
     9     4     3    1
    10     3     8    1
