@<TRIPOS>MOLECULE
1mox_BMA_A_1.pdb
 11 11 0 0 0
SMALL
GASTEIGER

@<TRIPOS>ATOM
      1  C1        23.0760   51.1330   43.8080 C.3   652  BMA652      0.1777
      2  C2        22.5510   50.8740   42.3810 C.3   652  BMA652      0.2141
      3  C3        23.7090   50.7070   41.3790 C.3   652  BMA652      0.2173
      4  C4        24.6870   51.8780   41.5060 C.3   652  BMA652      0.2142
      5  C5        25.1350   52.0290   42.9640 C.3   652  BMA652      0.1810
      6  C6        26.0760   53.1990   43.1660 C.3   652  BMA652      0.2141
      7  O2        21.7210   51.9540   41.9730 O.3   652  BMA652     -0.2176
      8  O3        23.1800   50.6680   40.0330 O.3   652  BMA652     -0.2175
      9  O4        25.8150   51.6530   40.6740 O.3   652  BMA652     -0.2176
     10  O5        23.9860   52.2470   43.8150 O.3   652  BMA652     -0.3481
     11  O6        27.4140   52.8370   42.8510 O.3   652  BMA652     -0.2176
@<TRIPOS>BOND
     1     8     3    1
     2     9     4    1
     3     3     4    1
     4     3     2    1
     5     4     5    1
     6     7     2    1
     7     2     1    1
     8    11     6    1
     9     5     6    1
    10     5    10    1
    11     1    10    1
