@<TRIPOS>MOLECULE
1moz_GDP_A_1.pdb
 28 30 0 0 0
SMALL
GASTEIGER

@<TRIPOS>ATOM
      1  PB        25.5050   59.6100   17.1550 P.3   184  GDP184      0.5373
      2  O1B       26.7100   60.3050   16.7520 O.2   184  GDP184     -0.2221
      3  O2B       24.2760   60.3590   17.2350 O.3   184  GDP184     -0.1143
      4  O3B       25.7620   58.8600   18.4830 O.3   184  GDP184     -0.1143
      5  O3A       25.2690   58.4200   16.1270 O.3   184  GDP184     -0.2261
      6  PA        23.9650   58.0380   15.2650 P.3   184  GDP184      0.2231
      7  O1A       22.7810   57.9180   16.1530 O.3   184  GDP184     -0.4370
      8  O2A       23.9080   58.9130   14.0960 O.2   184  GDP184     -0.5169
      9  O5'       24.4250   56.5270   14.7970 O.3   184  GDP184     -0.3111
     10  C5'       25.6060   56.3270   13.9730 C.3   184  GDP184      0.1813
     11  C4'       25.3950   55.2130   12.9300 C.3   184  GDP184      0.1799
     12  O4'       25.1860   53.9920   13.6290 O.3   184  GDP184     -0.3326
     13  C3'       24.1860   55.4050   12.0560 C.3   184  GDP184      0.2158
     14  O3'       24.5280   55.1930   10.6980 O.3   184  GDP184     -0.2175
     15  C2'       23.1150   54.4340   12.5860 C.3   184  GDP184      0.2310
     16  O2'       22.2330   53.8630   11.6160 O.3   184  GDP184     -0.2158
     17  C1'       23.9430   53.3820   13.2750 C.3   184  GDP184      0.2293
     18  N9        23.3520   52.8820   14.5240 N.pl3 184  GDP184     -0.2354
     19  C8        22.9600   53.5540   15.6440 C.3   184  GDP184      0.2246
     20  N7        22.4790   52.8330   16.6010 N.2   184  GDP184     -0.2322
     21  C5        22.5620   51.5500   16.0910 C.2   184  GDP184      0.2182
     22  C6        22.1900   50.2950   16.6960 C.1   184  GDP184      0.2372
     23  O6        21.7160   50.1130   17.8120 O.2   184  GDP184     -0.2069
     24  N1        22.4200   49.1940   15.8300 N.2   184  GDP184     -0.2485
     25  C2        22.9650   49.2770   14.5400 C.1   184  GDP184      0.2531
     26  N2        23.1060   48.1240   13.8590 N.pl3 184  GDP184     -0.0226
     27  N3        23.3150   50.4710   13.9720 N.2   184  GDP184     -0.3074
     28  C4        23.0970   51.5560   14.8080 C.2   184  GDP184      0.2300
@<TRIPOS>BOND
     1    14    13    1
     2    16    15    1
     3    13    15    1
     4    13    11    1
     5    15    17    1
     6    11    12    1
     7    11    10    1
     8    17    12    1
     9    17    18    1
    10    26    25    1
    11    27    25    2
    12    27    28    2
    13    10     9    1
    14     8     6    2
    15    18    28    1
    16    18    19    1
    17    25    24    2
    18     9     6    1
    19    28    21    1
    20     6     5    1
    21     6     7    1
    22    19    20    1
    23    24    22    2
    24    21    20    2
    25    21    22    1
    26     5     1    1
    27    22    23    2
    28     2     1    2
    29     1     3    1
    30     1     4    1
