@<TRIPOS>MOLECULE
1mp0_NAD_A_1.pdb
 44 48 0 0 0
SMALL
GASTEIGER

@<TRIPOS>ATOM
      1  PA        59.0700    9.7590    1.6970 P.3   777  NAD777      0.2189
      2  O1A       57.7790    9.0480    1.5330 O.3   777  NAD777     -0.4371
      3  O2A       60.0270    9.2590    0.6950 O.2   777  NAD777     -0.5170
      4  O5B       59.6610    9.5110    3.1270 O.3   777  NAD777     -0.3112
      5  C5B       58.7080    9.2180    4.1890 C.3   777  NAD777      0.1813
      6  C4B       59.3760    8.1550    5.0580 C.3   777  NAD777      0.1821
      7  O4B       58.6640    8.0900    6.3050 O.3   777  NAD777     -0.3135
      8  C3B       59.3790    6.7820    4.3470 C.3   777  NAD777      0.2184
      9  O3B       60.6270    6.1310    4.5990 O.3   777  NAD777     -0.2174
     10  C2B       58.2680    6.1410    5.2140 C.3   777  NAD777      0.2570
     11  O2B       58.4370    4.7180    5.2630 O.3   777  NAD777     -0.2130
     12  C1B       58.5550    6.7270    6.6020 C.3   777  NAD777      0.3186
     13  N9A       57.4280    6.5280    7.4660 N.pl3 777  NAD777     -0.1439
     14  C8A       56.0790    6.4510    7.1410 C.3   777  NAD777      0.3377
     15  N7A       55.2840    6.2650    8.2750 N.2   777  NAD777     -0.2095
     16  C5A       56.2040    6.2280    9.3030 C.2   777  NAD777      0.2526
     17  C6A       55.9870    6.0900   10.6590 C.2   777  NAD777      0.4393
     18  N6A       54.7660    5.9220   11.2010 N.pl3 777  NAD777      0.2180
     19  N1A       57.0960    6.1110   11.4930 N.2   777  NAD777      0.0021
     20  C2A       58.3830    6.2760   10.9690 C.3   777  NAD777      0.5254
     21  N3A       58.6070    6.4160    9.5990 N.2   777  NAD777     -0.0055
     22  C4A       57.4640    6.3880    8.8220 C.2   777  NAD777      0.3518
     23  O3        58.8260   11.3230    1.5680 O.3   777  NAD777     -0.2703
     24  PN        59.9520   12.4860    1.4890 P.3   777  NAD777      0.2189
     25  O1N       60.2560   12.7840    0.0790 O.2   777  NAD777     -0.5170
     26  O2N       61.1720   12.1280    2.2580 O.3   777  NAD777     -0.4371
     27  O5D       59.2450   13.7380    2.1760 O.3   777  NAD777     -0.3112
     28  C5D       58.8410   13.5790    3.5750 C.3   777  NAD777      0.1813
     29  C4D       57.8390   14.6340    4.0430 C.3   777  NAD777      0.1799
     30  O4D       58.3710   15.9470    3.8090 O.3   777  NAD777     -0.3327
     31  C3D       56.5240   14.5150    3.2490 C.3   777  NAD777      0.2158
     32  O3D       55.4280   14.8090    4.1190 O.3   777  NAD777     -0.2175
     33  C2D       56.7400   15.6960    2.2800 C.3   777  NAD777      0.2309
     34  O2D       55.4710   16.1710    1.8120 O.3   777  NAD777     -0.2158
     35  C1D       57.3570   16.7390    3.2300 C.3   777  NAD777      0.2263
     36  N1N       58.0140   17.8780    2.5820 N.pl3 777  NAD777     -0.2787
     37  C2N       57.9930   19.0590    3.1990 C.3   777  NAD777      0.1244
     38  C3N       58.6040   20.1120    2.6390 C.2   777  NAD777      0.0544
     39  C7N       58.6090   21.3220    3.2520 C.2   777  NAD777      0.2818
     40  O7N       59.0020   22.3490    2.6550 O.2   777  NAD777     -0.2670
     41  N7N       58.2350   21.4750    4.5210 N.am  777  NAD777     -0.0839
     42  C4N       59.2340   19.9640    1.4520 C.2   777  NAD777      0.0033
     43  C5N       59.2760   18.8000    0.7990 C.2   777  NAD777      0.0157
     44  C6N       58.6320   17.7340    1.4150 C.2   777  NAD777      0.0633
@<TRIPOS>BOND
     1    25    24    2
     2     3     1    2
     3    43    44    2
     4    43    42    1
     5    44    36    1
     6    42    38    2
     7    24    23    1
     8    24    27    1
     9    24    26    1
    10     2     1    1
    11    23     1    1
    12     1     4    1
    13    34    33    1
    14    27    28    1
    15    33    35    1
    16    33    31    1
    17    36    37    1
    18    36    35    1
    19    38    37    1
    20    38    39    1
    21    40    39    2
    22     4     5    1
    23    35    30    1
    24    31    29    1
    25    31    32    1
    26    39    41   am
    27    28    29    1
    28    30    29    1
    29     5     6    1
    30     8     9    1
    31     8     6    1
    32     8    10    1
    33     6     7    1
    34    10    11    1
    35    10    12    1
    36     7    12    1
    37    12    13    1
    38    14    13    1
    39    14    15    1
    40    13    22    1
    41    15    16    2
    42    22    16    1
    43    22    21    2
    44    16    17    1
    45    21    20    1
    46    17    18    1
    47    17    19    2
    48    20    19    1
