@<TRIPOS>MOLECULE
1mp3_TTP_A_1.pdb
 29 30 0 0 0
SMALL
GASTEIGER

@<TRIPOS>ATOM
      1  PA         1.9450   92.1960   30.9970 P.3   501  TTP501      0.2189
      2  O1A        2.7640   92.8210   30.1790 O.2   501  TTP501     -0.5170
      3  O2A        1.4510   93.4050   31.8910 O.3   501  TTP501     -0.4371
      4  O3A        0.6850   91.5550   30.1070 O.3   501  TTP501     -0.2700
      5  PB         1.1230   90.8670   28.6480 P.3   501  TTP501      0.2277
      6  O1B       -0.2030   90.3590   27.9500 O.2   501  TTP501     -0.5168
      7  O2B        2.0840   89.6470   28.9440 O.3   501  TTP501     -0.4368
      8  O3B        1.9250   91.9500   27.6430 O.3   501  TTP501     -0.2258
      9  PG         1.1020   93.0970   26.7530 P.3   501  TTP501      0.5373
     10  O1G        2.0950   93.6480   25.6580 O.2   501  TTP501     -0.2221
     11  O2G        0.6500   94.2700   27.7290 O.3   501  TTP501     -0.1143
     12  O3G       -0.1600   92.4400   26.0550 O.3   501  TTP501     -0.1143
     13  O5'        2.7130   91.1680   31.3290 O.3   501  TTP501     -0.3112
     14  C5'        2.7810   90.9230   32.9150 C.3   501  TTP501      0.1812
     15  C4'        2.8950   89.4790   33.3990 C.3   501  TTP501      0.1773
     16  O4'        1.6960   89.0190   33.9950 O.3   501  TTP501     -0.3342
     17  C3'        3.1780   88.6160   32.1980 C.3   501  TTP501      0.1857
     18  O3'        4.4290   87.9610   32.4900 O.3   501  TTP501     -0.2203
     19  C2'        2.0410   87.6600   32.0870 C.3   501  TTP501      0.0871
     20  C1'        1.3590   87.7570   33.4470 C.3   501  TTP501      0.2052
     21  N1        -0.1400   87.9650   32.9140 N.am  501  TTP501     -0.1977
     22  C2        -0.9130   86.8260   32.9940 C.1   501  TTP501      0.2807
     23  O2        -0.3920   85.7130   32.9890 O.2   501  TTP501     -0.1922
     24  N3        -2.2420   86.8260   33.0660 N.2   501  TTP501     -0.2457
     25  C4        -2.9270   87.9760   33.0590 C.1   501  TTP501      0.2138
     26  O4        -4.2610   87.8800   33.1440 O.2   501  TTP501     -0.2088
     27  C5        -2.2340   89.2030   32.9720 C.2   501  TTP501      0.0940
     28  C5M       -2.7090   90.0390   32.9630 C.2   501  TTP501      0.0105
     29  C6        -0.8340   89.1220   32.9000 C.3   501  TTP501      0.1450
@<TRIPOS>BOND
     1    10     9    2
     2    12     9    1
     3     9     8    1
     4     9    11    1
     5     8     5    1
     6     6     5    2
     7     5     7    1
     8     5     4    1
     9     4     1    1
    10     2     1    2
    11     1    13    1
    12     1     3    1
    13    13    14    1
    14    19    17    1
    15    19    20    1
    16    17    18    1
    17    17    15    1
    18    29    21    1
    19    29    27    1
    20    21    22   am
    21    21    20    1
    22    14    15    1
    23    28    27    2
    24    27    25    1
    25    23    22    2
    26    22    24    2
    27    25    24    2
    28    25    26    2
    29    15    16    1
    30    20    16    1
