@<TRIPOS>MOLECULE
1mp4_UPG_A_1.pdb
 36 38 0 0 0
SMALL
GASTEIGER

@<TRIPOS>ATOM
      1  N1        60.0670   38.9760   24.5560 N.am  501  UPG501     -0.1766
      2  C2        59.8000   37.6750   24.0900 C.1   501  UPG501      0.2845
      3  N3        58.4690   37.4060   23.8280 N.2   501  UPG501     -0.2452
      4  C4        57.3790   38.2970   23.9810 C.1   501  UPG501      0.2182
      5  C5        57.7450   39.6070   24.4600 C.2   501  UPG501      0.1242
      6  C6        59.0150   39.8900   24.7190 C.2   501  UPG501      0.0929
      7  O2        60.7230   36.8690   23.9480 O.2   501  UPG501     -0.1918
      8  O4        56.2640   37.8760   23.7010 O.2   501  UPG501     -0.2085
      9  C1C       61.4900   39.3190   24.8710 C.3   501  UPG501      0.2401
     10  C2C       62.1050   40.3130   23.9040 C.3   501  UPG501      0.2319
     11  O2C       62.5280   39.7230   22.6560 O.3   501  UPG501     -0.2157
     12  C3C       63.2410   40.9380   24.7340 C.3   501  UPG501      0.2158
     13  C4C       62.5620   41.0170   26.1190 C.3   501  UPG501      0.1799
     14  O4C       61.5940   39.9150   26.1400 O.3   501  UPG501     -0.3320
     15  O3C       64.5390   40.3020   24.5980 O.3   501  UPG501     -0.2175
     16  C5C       61.7110   42.2530   26.4270 C.3   501  UPG501      0.1813
     17  O5C       61.8280   43.2890   25.4280 O.3   501  UPG501     -0.3112
     18  PA        60.5710   44.2170   24.9950 P.3   501  UPG501      0.2189
     19  O1A       59.4130   43.4540   24.4100 O.3   501  UPG501     -0.4371
     20  O2A       60.8980   45.2280   23.9300 O.2   501  UPG501     -0.5170
     21  O3A       60.1930   44.9730   26.4030 O.3   501  UPG501     -0.2703
     22  PB        58.6190   45.3960   26.6840 P.3   501  UPG501      0.2208
     23  O1B       58.3120   46.7280   25.8860 O.2   501  UPG501     -0.5170
     24  O2B       57.7630   44.2740   26.3950 O.3   501  UPG501     -0.4371
     25  O3B       58.5790   45.6350   28.2940 O.3   501  UPG501     -0.2857
     26  C1'       58.7180   44.6390   29.2790 C.3   501  UPG501      0.2742
     27  C2'       57.8210   44.9260   30.5120 C.3   501  UPG501      0.2409
     28  C3'       58.2850   46.2720   31.2090 C.3   501  UPG501      0.2198
     29  C4'       59.7020   46.1390   31.6380 C.3   501  UPG501      0.2144
     30  C5'       60.6430   45.8110   30.4230 C.3   501  UPG501      0.1835
     31  C6'       62.0800   45.6760   30.8800 C.3   501  UPG501      0.2142
     32  O2'       56.4350   45.0980   30.1790 O.3   501  UPG501     -0.2149
     33  O3'       57.4970   46.5800   32.3570 O.3   501  UPG501     -0.2174
     34  O4'       60.0600   47.3610   32.2400 O.3   501  UPG501     -0.2176
     35  O5'       60.1860   44.5770   29.7490 O.3   501  UPG501     -0.3254
     36  O6'       62.9400   45.6630   29.7620 O.3   501  UPG501     -0.2176
@<TRIPOS>BOND
     1    11    10    1
     2     8     4    2
     3     3     4    2
     4     3     2    2
     5    10    12    1
     6    10     9    1
     7    20    18    2
     8     7     2    2
     9     4     5    1
    10     2     1   am
    11    19    18    1
    12     5     6    2
    13     1     6    1
    14     1     9    1
    15    15    12    1
    16    12    13    1
    17     9    14    1
    18    18    17    1
    19    18    21    1
    20    17    16    1
    21    23    22    2
    22    13    14    1
    23    13    16    1
    24    24    22    1
    25    21    22    1
    26    22    25    1
    27    25    26    1
    28    26    35    1
    29    26    27    1
    30    35    30    1
    31    36    31    1
    32    32    27    1
    33    30    31    1
    34    30    29    1
    35    27    28    1
    36    28    29    1
    37    28    33    1
    38    29    34    1
