@<TRIPOS>MOLECULE
1mp5_UPG_A_1.pdb
 36 38 0 0 0
SMALL
GASTEIGER

@<TRIPOS>ATOM
      1  N1         1.7940   55.9210   59.5420 N.am  501  UPG501     -0.1766
      2  C2         2.1000   54.8760   60.4220 C.1   501  UPG501      0.2845
      3  N3         2.5750   55.2500   61.6560 N.2   501  UPG501     -0.2452
      4  C4         2.7840   56.5600   62.1160 C.1   501  UPG501      0.2182
      5  C5         2.4510   57.5830   61.1640 C.2   501  UPG501      0.1242
      6  C6         1.9850   57.2640   59.9540 C.2   501  UPG501      0.0929
      7  O2         1.9330   53.7160   60.0630 O.2   501  UPG501     -0.1918
      8  O4         3.2130   56.7230   63.2300 O.2   501  UPG501     -0.2085
      9  C1C        1.2610   55.5550   58.1980 C.3   501  UPG501      0.2401
     10  C2C       -0.1800   56.0010   58.0350 C.3   501  UPG501      0.2319
     11  O2C       -1.1130   55.2400   58.8220 O.3   501  UPG501     -0.2157
     12  C3C       -0.3710   55.8930   56.5150 C.3   501  UPG501      0.2158
     13  C4C        1.0610   56.1430   55.9930 C.3   501  UPG501      0.1799
     14  O4C        1.9370   56.1780   57.1670 O.3   501  UPG501     -0.3320
     15  O3C       -1.1250   54.7420   56.0720 O.3   501  UPG501     -0.2175
     16  C5C        1.3510   57.4630   55.2620 C.3   501  UPG501      0.1813
     17  O5C        0.3220   58.4870   55.3680 O.3   501  UPG501     -0.3112
     18  PA         0.5980   59.8050   56.2700 P.3   501  UPG501      0.2189
     19  O1A        0.8800   59.5060   57.7200 O.3   501  UPG501     -0.4371
     20  O2A       -0.5330   60.8020   56.3270 O.2   501  UPG501     -0.5170
     21  O3A        1.9250   60.4590   55.5070 O.3   501  UPG501     -0.2703
     22  PB         2.6880   61.6620   56.3140 P.3   501  UPG501      0.2208
     23  O1B        1.7350   62.9090   56.3220 O.2   501  UPG501     -0.5170
     24  O2B        3.0550   61.1550   57.6300 O.3   501  UPG501     -0.4371
     25  O3B        4.0730   61.9430   55.4900 O.3   501  UPG501     -0.2857
     26  C1'        5.2050   61.0830   55.3580 C.3   501  UPG501      0.2742
     27  C2'        6.5400   61.8400   54.9950 C.3   501  UPG501      0.2409
     28  C3'        6.4320   62.5020   53.5450 C.3   501  UPG501      0.2198
     29  C4'        6.1750   61.4230   52.5370 C.3   501  UPG501      0.2144
     30  C5'        4.8710   60.6210   52.8550 C.3   501  UPG501      0.1835
     31  C6'        4.6500   59.5410   51.8230 C.3   501  UPG501      0.2142
     32  O2'        6.8950   62.8650   55.9250 O.3   501  UPG501     -0.2149
     33  O3'        7.6360   63.1930   53.1650 O.3   501  UPG501     -0.2174
     34  O4'        6.0780   62.0640   51.2900 O.3   501  UPG501     -0.2176
     35  O5'        4.9450   60.0470   54.2220 O.3   501  UPG501     -0.3254
     36  O6'        3.2840   59.4850   51.4540 O.3   501  UPG501     -0.2176
@<TRIPOS>BOND
     1    34    29    1
     2    36    31    1
     3    31    30    1
     4    29    30    1
     5    29    28    1
     6    30    35    1
     7    33    28    1
     8    28    27    1
     9    35    26    1
    10    27    26    1
    11    27    32    1
    12    16    17    1
    13    16    13    1
    14    26    25    1
    15    17    18    1
    16    25    22    1
    17    21    18    1
    18    21    22    1
    19    13    12    1
    20    13    14    1
    21    15    12    1
    22    18    20    2
    23    18    19    1
    24    22    23    2
    25    22    24    1
    26    12    10    1
    27    14     9    1
    28    10     9    1
    29    10    11    1
    30     9     1    1
    31     1     6    1
    32     1     2   am
    33     6     5    2
    34     7     2    2
    35     2     3    2
    36     5     4    1
    37     3     4    2
    38     4     8    2
