@<TRIPOS>MOLECULE
1mp8_ADP_A_1.pdb
 27 29 0 0 0
SMALL
GASTEIGER

@<TRIPOS>ATOM
      1  PB        32.3330   -6.6830   23.0840 P.3   800  ADP800      0.5373
      2  O1B       32.7350   -8.0440   23.5400 O.3   800  ADP800     -0.1143
      3  O2B       30.8410   -6.4300   23.2880 O.3   800  ADP800     -0.1143
      4  O3B       32.8120   -6.4730   21.6230 O.2   800  ADP800     -0.2221
      5  PA        34.0680   -4.5220   23.5180 P.3   800  ADP800      0.2231
      6  O1A       35.1270   -5.2120   22.7910 O.3   800  ADP800     -0.4370
      7  O2A       33.4700   -3.3730   22.7340 O.2   800  ADP800     -0.5169
      8  O3A       32.9620   -5.5440   24.0330 O.3   800  ADP800     -0.2261
      9  O5'       34.5470   -4.0490   24.9720 O.3   800  ADP800     -0.3111
     10  C5'       33.7360   -3.1940   25.7460 C.3   800  ADP800      0.1813
     11  C4'       34.5620   -2.0100   26.1940 C.3   800  ADP800      0.1821
     12  O4'       35.7660   -2.4420   26.7690 O.3   800  ADP800     -0.3135
     13  C3'       35.0540   -1.1060   25.0790 C.3   800  ADP800      0.2184
     14  O3'       34.0300   -0.2510   24.6790 O.3   800  ADP800     -0.2174
     15  C2'       36.2300   -0.4130   25.7420 C.3   800  ADP800      0.2570
     16  O2'       35.7830    0.5210   26.7030 O.3   800  ADP800     -0.2130
     17  C1'       36.8260   -1.5530   26.5340 C.3   800  ADP800      0.3186
     18  N9        37.7910   -2.3250   25.7410 N.pl3 800  ADP800     -0.1439
     19  C8        37.5600   -3.5040   25.0710 C.3   800  ADP800      0.3377
     20  N7        38.7040   -3.9100   24.4760 N.2   800  ADP800     -0.2095
     21  C5        39.6650   -2.9910   24.7740 C.2   800  ADP800      0.2526
     22  C6        41.0130   -2.9180   24.4410 C.2   800  ADP800      0.4393
     23  N6        41.5630   -3.7790   23.5830 N.pl3 800  ADP800      0.2180
     24  N1        41.7570   -1.8640   24.9330 N.2   800  ADP800      0.0021
     25  C2        41.1670   -0.9020   25.6970 C.3   800  ADP800      0.5254
     26  N3        39.8240   -0.9680   26.0350 N.2   800  ADP800     -0.0055
     27  C4        39.0940   -2.0080   25.5620 C.2   800  ADP800      0.3518
@<TRIPOS>BOND
     1     4     1    2
     2     7     5    2
     3     6     5    1
     4     1     3    1
     5     1     2    1
     6     1     8    1
     7     5     8    1
     8     5     9    1
     9    23    22    1
    10    22    21    1
    11    22    24    2
    12    20    21    2
    13    20    19    1
    14    14    13    1
    15    21    27    1
    16    24    25    1
    17     9    10    1
    18    19    18    1
    19    13    15    1
    20    13    11    1
    21    27    18    1
    22    27    26    2
    23    25    26    1
    24    18    17    1
    25    15    17    1
    26    15    16    1
    27    10    11    1
    28    11    12    1
    29    17    12    1
