@<TRIPOS>MOLECULE
1mpd_MAL_A_1.pdb
 45 46 0 0 0
SMALL
GASTEIGER

@<TRIPOS>ATOM
      1  C1        -0.2610    5.3750   53.4320 C.3   373  MAL373      0.1884
      2  C2         0.6680    6.1370   54.3500 C.3   373  MAL373      0.1341
      3  C3        -0.1470    6.8120   55.4660 C.3   373  MAL373      0.1141
      4  C4        -1.2050    7.7290   54.8400 C.3   373  MAL373      0.1119
      5  C5        -2.0700    6.9590   53.8420 C.3   373  MAL373      0.1130
      6  C6        -3.0010    7.9230   53.1370 C.3   373  MAL373      0.0730
      7  O1        -0.9090    4.3540   54.2040 O.3   373  MAL373     -0.3401
      8  O2         1.6490    5.2730   54.9150 O.3   373  MAL373     -0.3841
      9  O3         0.7260    7.5530   56.3050 O.3   373  MAL373     -0.3864
     10  O4        -2.0450    8.3010   55.8240 O.3   373  MAL373     -0.3865
     11  O5        -1.2430    6.2730   52.8590 O.3   373  MAL373     -0.3405
     12  O6        -3.8080    7.2330   52.2380 O.3   373  MAL373     -0.3924
     13  C1'       -1.4900    0.2210   53.9730 C.3   373  MAL373      0.1854
     14  C2'       -0.0730    0.7390   53.7910 C.3   373  MAL373      0.1339
     15  C3'        0.0690    2.1840   54.2460 C.3   373  MAL373      0.1144
     16  C4'       -1.0020    3.0560   53.6290 C.3   373  MAL373      0.1184
     17  C5'       -2.3890    2.4810   53.8880 C.3   373  MAL373      0.1134
     18  C6'       -3.4440    3.2800   53.1640 C.3   373  MAL373      0.0730
     19  O1'       -1.7440    0.0490   55.3220 O.3   373  MAL373     -0.3649
     20  O2'        0.8090   -0.0320   54.5610 O.3   373  MAL373     -0.3841
     21  O3'        1.3460    2.6640   53.8830 O.3   373  MAL373     -0.3864
     22  O5'       -2.4570    1.1190   53.4220 O.3   373  MAL373     -0.3407
     23  O6'       -4.7120    2.9260   53.6400 O.3   373  MAL373     -0.3924
     24  H1         0.3070    4.9030   52.6160 H     373  MAL373      0.0938
     25  H2         1.1680    6.9210   53.7630 H     373  MAL373      0.0671
     26  H3        -0.6560    6.0350   56.0540 H     373  MAL373      0.0648
     27  H4        -0.6870    8.5240   54.3000 H     373  MAL373      0.0647
     28  H5        -2.6630    6.2050   54.3790 H     373  MAL373      0.0647
     29  H61       -2.4070    8.6740   52.6100 H     373  MAL373      0.0584
     30  H62       -3.6170    8.4380   53.8810 H     373  MAL373      0.0584
     31  HO2        1.2150    4.5040   55.2920 H     373  MAL373      0.2101
     32  HO3        1.3740    6.9600   56.6910 H     373  MAL373      0.2100
     33  HO4       -2.5260    9.0390   55.4430 H     373  MAL373      0.2100
     34  HO6       -3.7660    7.6640   51.3820 H     373  MAL373      0.2095
     35  H1'       -1.6030   -0.7410   53.4490 H     373  MAL373      0.0935
     36  H2'        0.1980    0.6700   52.7260 H     373  MAL373      0.0671
     37  H3'       -0.0400    2.2180   55.3400 H     373  MAL373      0.0648
     38  H4'       -0.8370    3.1330   52.5450 H     373  MAL373      0.0651
     39  H5'       -2.5960    2.4870   54.9690 H     373  MAL373      0.0647
     40 H6'1       -3.3750    3.0770   52.0860 H     373  MAL373      0.0584
     41 H6'2       -3.2660    4.3500   53.3230 H     373  MAL373      0.0584
     42 HO1'       -1.2290   -0.6920   55.6490 H     373  MAL373      0.2126
     43 HO2'        0.6200    0.1020   55.4920 H     373  MAL373      0.2101
     44 HO3'        1.4200    2.6770   52.9260 H     373  MAL373      0.2100
     45 HO6'       -5.2410    3.7190   53.7560 H     373  MAL373      0.2095
@<TRIPOS>BOND
     1    34    12    1
     2    40    18    1
     3    12     6    1
     4    38    16    1
     5    29     6    1
     6    24     1    1
     7    36    14    1
     8    11     1    1
     9    11     5    1
    10    44    21    1
    11     6     5    1
    12     6    30    1
    13    18    41    1
    14    18    23    1
    15    18    17    1
    16    22    17    1
    17    22    13    1
    18     1     7    1
    19     1     2    1
    20    35    13    1
    21    16    17    1
    22    16     7    1
    23    16    15    1
    24    23    45    1
    25    25     2    1
    26    14    13    1
    27    14    15    1
    28    14    20    1
    29     5    28    1
    30     5     4    1
    31    21    15    1
    32    17    39    1
    33    13    19    1
    34    15    37    1
    35    27     4    1
    36     2     8    1
    37     2     3    1
    38    20    43    1
    39     4     3    1
    40     4    10    1
    41     8    31    1
    42    19    42    1
    43    33    10    1
    44     3    26    1
    45     3     9    1
    46     9    32    1
