@<TRIPOS>MOLECULE
1mpl_RE1_A_1.pdb
 21 20 0 0 0
SMALL
GASTEIGER

@<TRIPOS>ATOM
      1  N2        25.9390  -19.0030   39.5930 N.3   400  RE1400     -0.1210
      2  C4        25.3040  -17.6030   39.5320 C.3   400  RE1400      0.1956
      3  C5        24.6200  -17.4960   38.1570 C.2   400  RE1400      0.2612
      4  N3        24.2120  -16.2480   37.8540 N.am  400  RE1400     -0.1943
      5  C6        23.4880  -15.8720   36.6450 C.3   400  RE1400      0.1978
      6  C7        22.0810  -15.3450   36.9370 C.3   400  RE1400      0.0333
      7  C8        21.1890  -16.3060   37.7450 C.3   400  RE1400      0.0029
      8  C9        19.7620  -15.6290   37.7520 C.3   400  RE1400      0.0097
      9  C10       19.6300  -14.3000   38.4860 C.3   400  RE1400      0.0868
     10  C11       18.1720  -13.9100   38.6880 C.2   400  RE1400      0.2418
     11  N4        17.6430  -13.1560   37.7310 N.am  400  RE1400     -0.1978
     12  C12       16.2350  -12.6980   37.8010 C.3   400  RE1400      0.1694
     13  P1        16.3130  -10.9150   38.1530 P.3   400  RE1400      0.2751
     14  O3        24.4750  -18.4380   37.4300 O.2   400  RE1400     -0.2717
     15  C13       24.2780  -14.7670   35.9400 C.2   400  RE1400      0.3842
     16  O4        24.9820  -13.9420   36.5820 O.co2 400  RE1400     -0.2437
     17  O5        24.0680  -14.7580   34.7190 O.co2 400  RE1400     -0.2437
     18  O6        17.5670  -14.3060   39.6410 O.2   400  RE1400     -0.2733
     19  C14       15.4860  -12.9790   36.4740 C.3   400  RE1400      0.0333
     20  O7        16.7700  -10.6740   39.5420 O.3   400  RE1400     -0.1727
     21  O8        16.9810  -10.1990   37.0360 O.3   400  RE1400     -0.1727
@<TRIPOS>BOND
     1    17    15   ar
     2    15    16   ar
     3    15     5    1
     4    19    12    1
     5     5     6    1
     6     5     4    1
     7     6     7    1
     8    21    13    1
     9    14     3    2
    10    11    12    1
    11    11    10   am
    12     7     8    1
    13     8     9    1
    14    12    13    1
    15     4     3   am
    16    13    20    1
    17     3     2    1
    18     9    10    1
    19    10    18    2
    20     2     1    1
