@<TRIPOS>MOLECULE
1mpm_BGC_A_1.pdb
 12 12 0 0 0
SMALL
GASTEIGER

@<TRIPOS>ATOM
      1  C2        15.0660   37.4820   82.6650 C.3   432  BGC432      0.2434
      2  C3        16.1270   37.8840   81.6870 C.3   432  BGC432      0.2199
      3  C4        15.4240   38.4680   80.4640 C.3   432  BGC432      0.2144
      4  C5        14.3790   39.5660   80.7770 C.3   432  BGC432      0.1836
      5  C6        13.4030   39.7420   79.6250 C.3   432  BGC432      0.2142
      6  C1        14.3890   38.7920   83.0350 C.3   432  BGC432      0.3024
      7  O1        13.5870   38.6290   84.1520 O.3   432  BGC432     -0.1869
      8  O2        15.6360   36.8500   83.8050 O.3   432  BGC432     -0.2148
      9  O3        16.9370   36.7710   81.3340 O.3   432  BGC432     -0.2174
     10  O4        16.4210   39.0140   79.6060 O.3   432  BGC432     -0.2176
     11  O5        13.5850   39.2420   81.9400 O.3   432  BGC432     -0.3236
     12  O6        12.6860   40.9600   79.7380 O.3   432  BGC432     -0.2176
@<TRIPOS>BOND
     1    10     3    1
     2     5    12    1
     3     5     4    1
     4     3     4    1
     5     3     2    1
     6     4    11    1
     7     9     2    1
     8     2     1    1
     9    11     6    1
    10     1     6    1
    11     1     8    1
    12     6     7    1
