@<TRIPOS>MOLECULE
1mpm_GLC_A_1.pdb
 11 11 0 0 0
SMALL
GASTEIGER

@<TRIPOS>ATOM
      1  C1        16.9250   38.0660   78.7360 C.3   431  GLC431      0.1777
      2  C2        18.4290   37.9730   78.8840 C.3   431  GLC431      0.2141
      3  C3        19.0780   39.2440   78.3510 C.3   431  GLC431      0.2173
      4  C4        18.6250   39.4780   76.9150 C.3   431  GLC431      0.2142
      5  C5        17.1140   39.6130   76.9670 C.3   431  GLC431      0.1810
      6  C6        16.4010   39.9710   75.6820 C.3   431  GLC431      0.2141
      7  O2        18.7460   37.8010   80.2540 O.3   431  GLC431     -0.2176
      8  O3        20.4890   39.1290   78.4070 O.3   431  GLC431     -0.2175
      9  O4        19.2320   40.6500   76.3860 O.3   431  GLC431     -0.2176
     10  O5        16.5740   38.3720   77.4090 O.3   431  GLC431     -0.3481
     11  O6        14.9850   39.8180   75.8290 O.3   431  GLC431     -0.2176
@<TRIPOS>BOND
     1     6    11    1
     2     6     5    1
     3     9     4    1
     4     4     5    1
     5     4     3    1
     6     5    10    1
     7    10     1    1
     8     3     8    1
     9     3     2    1
    10     1     2    1
    11     2     7    1
