@<TRIPOS>MOLECULE
1mpn_GLC_A_1.pdb
 11 11 0 0 0
SMALL
GASTEIGER

@<TRIPOS>ATOM
      1  C1        17.1260   38.3200   79.9340 C.3   431  GLC431      0.1777
      2  C2        18.6370   38.2120   79.8880 C.3   431  GLC431      0.2141
      3  C3        19.2700   39.5370   79.4740 C.3   431  GLC431      0.2173
      4  C4        18.5430   40.2900   78.3540 C.3   431  GLC431      0.2142
      5  C5        17.0420   40.2150   78.4970 C.3   431  GLC431      0.1810
      6  C6        16.3620   40.7360   77.2430 C.3   431  GLC431      0.2141
      7  O2        19.1040   37.9040   81.2000 O.3   431  GLC431     -0.2176
      8  O3        20.5860   39.2760   79.0510 O.3   431  GLC431     -0.2175
      9  O4        18.9230   41.6580   78.3870 O.3   431  GLC431     -0.2176
     10  O5        16.6500   38.8470   78.7080 O.3   431  GLC431     -0.3481
     11  O6        15.0070   40.3100   77.1490 O.3   431  GLC431     -0.2176
@<TRIPOS>BOND
     1    11     6    1
     2     6     5    1
     3     4     9    1
     4     4     5    1
     5     4     3    1
     6     5    10    1
     7    10     1    1
     8     8     3    1
     9     3     2    1
    10     2     1    1
    11     2     7    1
