@<TRIPOS>MOLECULE
1mpo_GLC_A_1.pdb
 11 11 0 0 0
SMALL
GASTEIGER

@<TRIPOS>ATOM
      1  C1        20.0570   40.5650   75.6010 C.3   430  GLC430      0.1777
      2  C2        20.9590   41.7850   75.5760 C.3   430  GLC430      0.2141
      3  C3        20.0870   43.0140   75.3160 C.3   430  GLC430      0.2173
      4  C4        19.3660   42.8460   73.9700 C.3   430  GLC430      0.2142
      5  C5        18.5980   41.5190   73.9360 C.3   430  GLC430      0.1810
      6  C6        18.0910   41.2140   72.5410 C.3   430  GLC430      0.2141
      7  O2        21.6490   41.9090   76.8120 O.3   430  GLC430     -0.2176
      8  O3        20.8970   44.1830   75.2990 O.3   430  GLC430     -0.2175
      9  O4        18.4470   43.9410   73.7480 O.3   430  GLC430     -0.2176
     10  O5        19.4500   40.4150   74.3240 O.3   430  GLC430     -0.3481
     11  O6        17.5610   39.8990   72.4590 O.3   430  GLC430     -0.2176
@<TRIPOS>BOND
     1    11     6    1
     2     6     5    1
     3     9     4    1
     4     5     4    1
     5     5    10    1
     6     4     3    1
     7    10     1    1
     8     8     3    1
     9     3     2    1
    10     2     1    1
    11     2     7    1
