@<TRIPOS>MOLECULE
1mpq_GLC_A_1.pdb
 11 11 0 0 0
SMALL
GASTEIGER

@<TRIPOS>ATOM
      1  C1        13.3450   40.8540   88.0340 C.3   422  GLC422      0.1777
      2  C2        13.3530   42.3840   88.0340 C.3   422  GLC422      0.2141
      3  C3        14.7810   42.9160   87.9270 C.3   422  GLC422      0.2173
      4  C4        15.6430   42.3160   89.0310 C.3   422  GLC422      0.2142
      5  C5        15.5590   40.7900   89.0060 C.3   422  GLC422      0.1810
      6  C6        16.2800   40.1770   90.1940 C.3   422  GLC422      0.2141
      7  O2        12.5830   42.8670   86.9430 O.3   422  GLC422     -0.2176
      8  O3        14.7710   44.3320   88.0470 O.3   422  GLC422     -0.2175
      9  O4        16.9940   42.7250   88.8620 O.3   422  GLC422     -0.2176
     10  O5        14.1820   40.3620   89.0780 O.3   422  GLC422     -0.3481
     11  O6        15.8810   38.8300   90.4060 O.3   422  GLC422     -0.2176
@<TRIPOS>BOND
     1     7     2    1
     2     3     2    1
     3     3     8    1
     4     3     4    1
     5     1     2    1
     6     1    10    1
     7     9     4    1
     8     5     4    1
     9     5    10    1
    10     5     6    1
    11     6    11    1
