@<TRIPOS>MOLECULE
1mps_SPN_M_1.pdb
 43 42 0 0 0
SMALL
GASTEIGER

@<TRIPOS>ATOM
      1  CMA       24.2100  117.6960    6.3740 C.3   600  SPN600      0.1745
      2  O1        25.7280  117.8620    6.3020 O.3   600  SPN600     -0.3486
      3  CM1       27.8100  118.9790    7.0950 C.3   600  SPN600      0.0376
      4  CM2       25.6270  120.1690    7.2540 C.3   600  SPN600      0.0376
      5  C1        26.3210  118.8170    7.3390 C.3   600  SPN600      0.1476
      6  C2        26.0800  118.1340    8.6900 C.2   600  SPN600      0.1972
      7  O2        25.7030  118.7890    9.6630 O.2   600  SPN600     -0.2889
      8  C3        26.4300  116.6020    8.9190 C.2   600  SPN600      0.0395
      9  C4        26.8210  116.1060   10.1560 C.2   600  SPN600     -0.0012
     10  C5        26.9510  114.6010   10.3970 C.2   600  SPN600     -0.0218
     11  CM3       26.8530  113.5840    9.2500 C.3   600  SPN600      0.0310
     12  C6        27.2060  114.2120   11.7070 C.2   600  SPN600     -0.0043
     13  C7        27.1400  112.7440   12.1310 C.2   600  SPN600     -0.0006
     14  C8        27.3510  112.4270   13.4680 C.2   600  SPN600     -0.0043
     15  C9        27.5450  110.9750   13.9150 C.2   600  SPN600     -0.0218
     16  CM4       27.0760  109.7810   13.0330 C.3   600  SPN600      0.0310
     17  C10       28.1900  110.8000   15.1430 C.2   600  SPN600     -0.0043
     18  C11       28.3680  109.4180   15.7590 C.2   600  SPN600     -0.0006
     19  C12       29.1020  109.3110   16.9300 C.2   600  SPN600     -0.0043
     20  C13       29.1620  107.9880   17.6850 C.2   600  SPN600     -0.0218
     21  CM5       28.0980  106.8970   17.4780 C.3   600  SPN600      0.0310
     22  C14       30.1760  107.8750   18.6270 C.2   600  SPN600     -0.0043
     23  C15       30.2740  106.6680   19.5610 C.2   600  SPN600     -0.0003
     24  C16       31.1680  106.7110   20.6240 C.2   600  SPN600     -0.0003
     25  C17       32.0660  107.9380   20.7870 C.2   600  SPN600     -0.0043
     26  C18       32.8520  108.1230   21.9160 C.2   600  SPN600     -0.0222
     27  CM6       32.8870  107.1090   23.0770 C.3   600  SPN600      0.0310
     28  C19       33.6520  109.4210   21.9540 C.2   600  SPN600     -0.0088
     29  C20       34.4450  109.7400   23.0450 C.2   600  SPN600     -0.0265
     30  C21       35.1480  111.0990   23.0590 C.3   600  SPN600      0.0260
     31  C22       36.0330  111.4690   24.0720 C.3   600  SPN600      0.0047
     32  CM7       35.9190  111.0250   25.5450 C.3   600  SPN600      0.0004
     33  C23       36.9570  112.6770   23.9130 C.3   600  SPN600      0.0050
     34  C24       38.4030  112.3260   24.1950 C.3   600  SPN600      0.0254
     35  C25       39.3470  113.4370   23.7360 C.2   600  SPN600     -0.0346
     36  C26       40.5180  113.3840   22.9850 C.2   600  SPN600     -0.0478
     37  CM8       41.1030  112.0960   22.3760 C.3   600  SPN600      0.0260
     38  C27       41.3570  114.6300   22.6770 C.3   600  SPN600      0.0263
     39  C28       41.9290  115.2570   23.9350 C.3   600  SPN600      0.0297
     40  C29       42.6110  116.5860   23.6250 C.2   600  SPN600     -0.0342
     41  C30       43.1010  117.5610   24.4830 C.2   600  SPN600     -0.0478
     42  CM9       42.9300  117.5050   26.0150 C.3   600  SPN600      0.0260
     43  CMB       43.8410  118.8370   24.0170 C.3   600  SPN600      0.0260
@<TRIPOS>BOND
     1     2     1    1
     2     2     5    1
     3     3     5    1
     4     4     5    1
     5     5     6    1
     6     6     8    1
     7     6     7    2
     8     8     9    2
     9    11    10    1
    10     9    10    1
    11    10    12    2
    12    12    13    1
    13    13    14    2
    14    16    15    1
    15    14    15    1
    16    15    17    2
    17    17    18    1
    18    18    19    2
    19    19    20    1
    20    21    20    1
    21    20    22    2
    22    22    23    1
    23    23    24    2
    24    24    25    1
    25    25    26    2
    26    26    28    1
    27    26    27    1
    28    28    29    2
    29    37    36    1
    30    38    36    1
    31    38    39    1
    32    36    35    2
    33    29    30    1
    34    30    31    1
    35    40    39    1
    36    40    41    2
    37    35    34    1
    38    33    31    1
    39    33    34    1
    40    43    41    1
    41    31    32    1
    42    41    42    1
