@<TRIPOS>MOLECULE
1mps_U10_L_1.pdb
 48 48 0 0 0
SMALL
GASTEIGER

@<TRIPOS>ATOM
      1  C1        12.8850  116.6450   25.4780 C.2   502  U10502      0.0198
      2  C2        13.1010  116.5660   26.9080 C.2   502  U10502      0.2282
      3  C3        13.5890  115.3300   27.4940 C.2   502  U10502      0.2140
      4  C4        13.8530  114.2650   26.6980 C.2   502  U10502      0.2140
      5  C5        13.6320  114.3460   25.2690 C.2   502  U10502      0.2285
      6  C6        13.1130  115.5680   24.6770 C.2   502  U10502      0.0235
      7  C1M       12.3980  117.9890   24.9420 C.3   502  U10502      0.0343
      8  C3M       13.1610  116.0780   29.9340 C.3   502  U10502      0.2528
      9  C4M       14.6260  112.5290   28.3790 C.3   502  U10502      0.2528
     10  C7        12.7940  115.6530   23.1750 C.3   502  U10502      0.0548
     11  C8        12.1110  114.4670   22.6690 C.2   502  U10502     -0.0298
     12  C9        11.0080  114.3230   21.8330 C.2   502  U10502     -0.0475
     13  C10       10.2120  115.4900   21.2180 C.3   502  U10502      0.0260
     14  C11       10.4570  112.9530   21.4330 C.3   502  U10502      0.0264
     15  C12        9.9350  112.1680   22.6280 C.3   502  U10502      0.0297
     16  C13        9.5170  110.8270   22.2440 C.2   502  U10502     -0.0342
     17  C14       10.2540  109.6700   22.0010 C.2   502  U10502     -0.0478
     18  C15       11.7890  109.5660   22.0970 C.3   502  U10502      0.0260
     19  C16        9.5990  108.3440   21.6100 C.3   502  U10502      0.0263
     20  C17        9.0770  108.3360   20.1800 C.3   502  U10502      0.0297
     21  C18        8.4100  107.0770   19.8810 C.2   502  U10502     -0.0342
     22  C19        7.1190  106.6360   20.1610 C.2   502  U10502     -0.0478
     23  C20        6.0490  107.4710   20.8900 C.3   502  U10502      0.0260
     24  C21        6.6010  105.2440   19.7660 C.3   502  U10502      0.0263
     25  C22        6.1580  105.1420   18.3090 C.3   502  U10502      0.0297
     26  C23        7.2900  104.9970   17.3980 C.2   502  U10502     -0.0342
     27  C24        7.8450  105.8660   16.4620 C.2   502  U10502     -0.0478
     28  C25        7.3360  107.2930   16.1740 C.3   502  U10502      0.0260
     29  C26        9.0480  105.4790   15.5970 C.3   502  U10502      0.0263
     30  C27        8.6600  104.5640   14.4430 C.3   502  U10502      0.0297
     31  C28        9.8280  104.1210   13.6870 C.2   502  U10502     -0.0342
     32  C29       10.6650  104.7850   12.7930 C.2   502  U10502     -0.0478
     33  C30       10.5220  106.2640   12.3780 C.3   502  U10502      0.0260
     34  C31       11.8500  104.0900   12.1080 C.3   502  U10502      0.0263
     35  C32       11.6190  103.8240   10.6240 C.3   502  U10502      0.0297
     36  C33       10.4630  102.9640   10.4070 C.2   502  U10502     -0.0342
     37  C34        9.9070  102.4490    9.2400 C.2   502  U10502     -0.0478
     38  C35       10.4520  102.6970    7.8200 C.3   502  U10502      0.0260
     39  C36        8.6630  101.5570    9.2490 C.3   502  U10502      0.0263
     40  C37        7.4050  102.3170    9.6450 C.3   502  U10502      0.0297
     41  C38        6.2590  101.4270    9.7350 C.2   502  U10502     -0.0342
     42  C39        5.8130  100.6110   10.7710 C.2   502  U10502     -0.0478
     43  C40        6.4960  100.4840   12.1470 C.3   502  U10502      0.0260
     44  C41        4.5630   99.7380   10.6510 C.3   502  U10502      0.0260
     45  O2        12.8640  117.5540   27.6150 O.2   502  U10502     -0.2836
     46  O3        13.7050  115.2400   28.9610 O.2   502  U10502     -0.4652
     47  O4        14.3430  112.9520   27.0980 O.2   502  U10502     -0.4652
     48  O5        13.9810  113.4060   24.5470 O.2   502  U10502     -0.2835
@<TRIPOS>BOND
     1    38    37    1
     2    37    39    1
     3    37    36    2
     4    39    40    1
     5    40    41    1
     6    41    42    2
     7    36    35    1
     8    35    34    1
     9    44    42    1
    10    42    43    1
    11    34    32    1
    12    33    32    1
    13    32    31    2
    14    31    30    1
    15    30    29    1
    16    29    27    1
    17    28    27    1
    18    27    26    2
    19    26    25    1
    20    25    24    1
    21    24    22    1
    22    21    22    2
    23    21    20    1
    24    22    23    1
    25    20    19    1
    26    13    12    1
    27    14    12    1
    28    14    15    1
    29    19    17    1
    30    12    11    2
    31    17    18    1
    32    17    16    2
    33    16    15    1
    34    11    10    1
    35    10     6    1
    36    48     5    2
    37     6     5    1
    38     6     1    2
    39     7     1    1
    40     5     4    1
    41     1     2    1
    42     4    47    1
    43     4     3    2
    44     2     3    1
    45     2    45    2
    46    47     9    1
    47     3    46    1
    48    46     8    1
