@<TRIPOS>MOLECULE
1mpw_HEM_A_1.pdb
 43 50 0 0 0
SMALL
GASTEIGER

@<TRIPOS>ATOM
      1 FE         23.5580  -10.1510  -49.5240 Fe    417  HEM417      0.0000
      2  CHA       25.0000   -9.6350  -46.3620 C.2   417  HEM417      0.0000
      3  CHB       20.4120   -9.8220  -48.0800 C.2   417  HEM417      0.0000
      4  CHC       22.1070  -11.1710  -52.4560 C.2   417  HEM417      0.0000
      5  CHD       26.6050  -11.2360  -50.6830 C.2   417  HEM417      0.0000
      6  NA        22.9020   -9.8320  -47.6160 N.2   417  HEM417      0.0000
      7  C1A       23.6140   -9.5910  -46.4460 C.2   417  HEM417      0.0000
      8  C2A       22.6860   -9.2660  -45.3620 C.2   417  HEM417      0.0000
      9  C3A       21.4480   -9.3510  -45.8410 C.2   417  HEM417      0.0000
     10  C4A       21.5510   -9.7000  -47.2690 C.2   417  HEM417      0.0000
     11  CMA       20.1010   -9.1190  -45.1540 C.3   417  HEM417      0.0000
     12  CAA       23.1040   -8.8740  -43.8920 C.3   417  HEM417      0.0000
     13  CBA       23.3230   -9.9700  -42.8870 C.3   417  HEM417      0.0000
     14  CGA       23.7460   -9.4310  -41.4770 C.2   417  HEM417      0.0000
     15  O1A       23.8650   -8.2390  -41.2610 O.co2 417  HEM417      0.0000
     16  O2A       23.9060  -10.4160  -40.7720 O.co2 417  HEM417      0.0000
     17  NB        21.6280  -10.5530  -50.0640 N.ar  417  HEM417      0.0000
     18  C1B       20.4810  -10.1440  -49.4070 C.ar  417  HEM417      0.0000
     19  C2B       19.3210  -10.1390  -50.3220 C.ar  417  HEM417      0.0000
     20  C3B       19.7700  -10.4940  -51.5200 C.ar  417  HEM417      0.0000
     21  C4B       21.2530  -10.7680  -51.4060 C.ar  417  HEM417      0.0000
     22  CMB       17.9150   -9.7390  -49.8380 C.3   417  HEM417      0.0000
     23  CAB       19.0530  -10.6460  -52.9080 C.2   417  HEM417      0.0000
     24  CBB       17.7690  -10.4110  -53.1540 C.2   417  HEM417      0.0000
     25  NC        24.2440  -11.0960  -51.1870 N.2   417  HEM417      0.0000
     26  C1C       23.4890  -11.3610  -52.3590 C.2   417  HEM417      0.0000
     27  C2C       24.3800  -11.8220  -53.4220 C.2   417  HEM417      0.0000
     28  C3C       25.6290  -11.8420  -52.8830 C.2   417  HEM417      0.0000
     29  C4C       25.5120  -11.3930  -51.5000 C.2   417  HEM417      0.0000
     30  CMC       23.9550  -12.2070  -54.9030 C.3   417  HEM417      0.0000
     31  CAC       27.0670  -12.2320  -53.5170 C.2   417  HEM417      0.0000
     32  CBC       27.1500  -13.3140  -54.2990 C.2   417  HEM417      0.0000
     33  ND        25.4520  -10.4200  -48.6850 N.ar  417  HEM417      0.0000
     34  C1D       26.5510  -10.7700  -49.3990 C.ar  417  HEM417      0.0000
     35  C2D       27.7360  -10.5930  -48.5550 C.ar  417  HEM417      0.0000
     36  C3D       27.2880  -10.1590  -47.3770 C.ar  417  HEM417      0.0000
     37  C4D       25.8250  -10.0370  -47.4190 C.ar  417  HEM417      0.0000
     38  CMD       29.2030  -10.8980  -49.0310 C.3   417  HEM417      0.0000
     39  CAD       28.1000   -9.8420  -46.1130 C.3   417  HEM417      0.0000
     40  CBD       28.3290   -8.4730  -45.7090 C.3   417  HEM417      0.0000
     41  CGD       29.1150   -8.4230  -44.3360 C.2   417  HEM417      0.0000
     42  O1D       29.7040   -7.3710  -44.1990 O.co2 417  HEM417      0.0000
     43  O2D       28.9240   -9.4110  -43.6380 O.co2 417  HEM417      0.0000
@<TRIPOS>BOND
     1    30    27    1
     2    32    31    2
     3    31    28    1
     4    27    28    2
     5    27    26    1
     6    24    23    2
     7    23    20    1
     8    28    29    1
     9     4    26    2
    10     4    21    1
    11    26    25    1
    12    20    21   ar
    13    20    19   ar
    14    29    25    2
    15    29     5    1
    16    21    17   ar
    17    25     1    1
    18     5    34    2
    19    19    22    1
    20    19    18   ar
    21    17     1    1
    22    17    18   ar
    23     1    33    1
    24     1     6    1
    25    18     3    1
    26    34    33   ar
    27    34    35   ar
    28    38    35    1
    29    33    37   ar
    30    35    36   ar
    31     3    10    2
    32     6    10    1
    33     6     7    2
    34    37    36   ar
    35    37     2    2
    36    36    39    1
    37    10     9    1
    38     7     2    1
    39     7     8    1
    40    39    40    1
    41     9     8    2
    42     9    11    1
    43    40    41    1
    44     8    12    1
    45    41    42   ar
    46    41    43   ar
    47    12    13    1
    48    13    14    1
    49    14    15   ar
    50    14    16   ar
