@<TRIPOS>MOLECULE
1mpw_TMH_A_1.pdb
 10 11 0 0 0
SMALL
GASTEIGER

@<TRIPOS>ATOM
      1  C3        24.9240  -14.3430  -47.6170 C.2   1450  TMH1450    -0.0346
      2  C2        23.7770  -13.5960  -47.5720 C.2   1450  TMH1450    -0.0485
      3  C1        22.9040  -13.6870  -46.2360 C.3   1450  TMH1450     0.0180
      4  C6        22.6850  -15.2980  -46.1660 C.3   1450  TMH1450     0.0044
      5  C5        24.0550  -15.1120  -45.2830 C.3   1450  TMH1450     0.0049
      6  C4        25.2190  -15.2290  -46.3820 C.3   1450  TMH1450     0.0254
      7  C7        23.5450  -13.7530  -44.8050 C.3   1450  TMH1450     0.0038
      8  C8        22.4810  -13.8030  -43.7730 C.3   1450  TMH1450     0.0003
      9  C9        24.6460  -12.8170  -44.3440 C.3   1450  TMH1450     0.0003
     10  C10       23.3200  -12.7360  -48.6330 C.3   1450  TMH1450     0.0260
@<TRIPOS>BOND
     1    10     2    1
     2     1     2    2
     3     1     6    1
     4     2     3    1
     5     6     5    1
     6     3     4    1
     7     3     7    1
     8     4     5    1
     9     5     7    1
    10     7     9    1
    11     7     8    1
