@<TRIPOS>MOLECULE
1mq0_BRD_A_1.pdb
 17 18 0 0 0
SMALL
GASTEIGER

@<TRIPOS>ATOM
      1  C4        29.7980   93.9860  102.6700 C.3   148  BRD148      0.1649
      2  N3        29.1840   94.1370  103.9920 N.2   148  BRD148     -0.1852
      3  C2        29.7480   94.0670  105.2220 C.1   148  BRD148      0.2134
      4  N1        30.8600   93.3610  105.5920 N.am  148  BRD148     -0.2066
      5  C7        31.2270   92.1810  104.8000 C.3   148  BRD148      0.1310
      6  C6        31.8210   92.6000  103.4800 C.2   148  BRD148     -0.0065
      7  O2        29.0520   94.7500  106.1540 O.2   148  BRD148     -0.2062
      8  C1'       31.6350   93.7830  106.7880 C.3   148  BRD148      0.2356
      9  O4'       32.9890   94.0600  106.4830 O.3   148  BRD148     -0.3321
     10  C4'       33.8200   93.6810  107.5720 C.3   148  BRD148      0.1829
     11  C3'       32.9320   93.0650  108.6770 C.3   148  BRD148      0.2159
     12  C2'       31.6600   92.7150  107.9020 C.3   148  BRD148      0.2316
     13  O2'       30.5210   92.8190  108.7200 O.3   148  BRD148     -0.2157
     14  O3'       32.6580   94.0400  109.6620 O.3   148  BRD148     -0.2175
     15  C5'       34.9240   92.7250  107.0390 C.3   148  BRD148      0.2142
     16  O5'       34.5130   91.3730  107.0890 O.3   148  BRD148     -0.2176
     17  C5        31.1830   93.3560  102.5510 C.2   148  BRD148     -0.0020
@<TRIPOS>BOND
     1    17     1    1
     2    17     6    2
     3     1     2    1
     4     6     5    1
     5     2     3    2
     6     5     4    1
     7     3     4   am
     8     3     7    2
     9     4     8    1
    10     9     8    1
    11     9    10    1
    12     8    12    1
    13    15    16    1
    14    15    10    1
    15    10    11    1
    16    12    11    1
    17    12    13    1
    18    11    14    1
