@<TRIPOS>MOLECULE
1mq3_DCP_A_1.pdb
 28 29 0 0 0
SMALL
GASTEIGER

@<TRIPOS>ATOM
      1  N1         7.0880    7.2490   10.1470 N.am  338  DCP338     -0.1802
      2  C2         7.7460    7.9480    9.1280 C.1   338  DCP338      0.2756
      3  N3         9.0310    8.3250    9.3160 N.2   338  DCP338     -0.3024
      4  C4         9.6540    8.0320   10.4620 C.2   338  DCP338      0.2346
      5  C5         9.0050    7.3320   11.5150 C.2   338  DCP338      0.0687
      6  C6         7.7360    6.9660   11.3190 C.2   338  DCP338      0.0835
      7  O2         7.1370    8.2070    8.0800 O.2   338  DCP338     -0.1925
      8  N4        10.9210    8.4150   10.6010 N.pl3 338  DCP338     -0.0921
      9  C1'        5.6980    6.8100    9.9480 C.3   338  DCP338      0.2090
     10  C2'        5.5400    5.3260   10.2470 C.3   338  DCP338      0.0874
     11  C3'        4.2800    5.2210   11.0830 C.3   338  DCP338      0.1857
     12  C4'        4.0970    6.6130   11.6780 C.3   338  DCP338      0.1773
     13  O4'        4.9050    7.5120   10.8880 O.3   338  DCP338     -0.3339
     14  O3'        3.1540    4.8680   10.2920 O.3   338  DCP338     -0.2203
     15  C5'        4.5620    6.6810   13.1080 C.3   338  DCP338      0.1812
     16  O5'        3.9700    5.6230   13.8390 O.3   338  DCP338     -0.3112
     17  PA         4.7750    4.8910   14.9950 P.3   338  DCP338      0.2189
     18  O1A        3.8620    4.8900   16.1600 O.3   338  DCP338     -0.4371
     19  O2A        6.0900    5.5790   15.1000 O.2   338  DCP338     -0.5170
     20  O3A        5.0270    3.4500   14.6280 O.3   338  DCP338     -0.2700
     21  PB         4.0220    2.5210   14.0180 P.3   338  DCP338      0.2277
     22  O1B        4.4130    2.4160   12.5870 O.2   338  DCP338     -0.5168
     23  O2B        2.6720    3.0260   14.3710 O.3   338  DCP338     -0.4368
     24  O3B        4.1710    1.1370   14.5860 O.3   338  DCP338     -0.2258
     25  PG         3.8920    0.7920   16.0220 P.3   338  DCP338      0.5373
     26  O1G        3.3940    2.0000   16.7360 O.3   338  DCP338     -0.1143
     27  O2G        3.1170   -0.4680   16.0870 O.2   338  DCP338     -0.2221
     28  O3G        5.2000    0.4770   16.6460 O.3   338  DCP338     -0.1143
@<TRIPOS>BOND
     1     7     2    2
     2     2     3    2
     3     2     1   am
     4     3     4    2
     5     9     1    1
     6     9    10    1
     7     9    13    1
     8     1     6    1
     9    10    11    1
    10    14    11    1
    11     4     8    1
    12     4     5    1
    13    13    12    1
    14    11    12    1
    15     6     5    2
    16    12    15    1
    17    22    21    2
    18    15    16    1
    19    16    17    1
    20    21    23    1
    21    21    24    1
    22    21    20    1
    23    24    25    1
    24    20    17    1
    25    17    19    2
    26    17    18    1
    27    25    27    2
    28    25    28    1
    29    25    26    1
