@<TRIPOS>MOLECULE
1mq4_ADP_A_1.pdb
 27 29 0 0 0
SMALL
GASTEIGER

@<TRIPOS>ATOM
      1  PB       -10.9220   23.1770   81.0000 P.3   2001  ADP2001     0.5373
      2  O1B      -11.7080   22.7550   79.7930 O.2   2001  ADP2001    -0.2221
      3  O2B      -10.4460   22.0080   81.8420 O.3   2001  ADP2001    -0.1143
      4  O3B      -11.7040   24.2140   81.8110 O.3   2001  ADP2001    -0.1143
      5  PA        -9.4920   25.3550   79.8600 P.3   2001  ADP2001     0.2231
      6  O1A       -9.3380   25.3630   78.3740 O.2   2001  ADP2001    -0.5169
      7  O2A      -10.6430   26.2170   80.2970 O.3   2001  ADP2001    -0.4370
      8  O3A       -9.5680   23.8700   80.5080 O.3   2001  ADP2001    -0.2261
      9  O5'       -8.1520   25.8750   80.5180 O.3   2001  ADP2001    -0.3111
     10  C5'       -7.9970   25.8790   81.9250 C.3   2001  ADP2001     0.1813
     11  C4'       -7.2100   27.1200   82.3370 C.3   2001  ADP2001     0.1821
     12  O4'       -5.9560   27.1800   81.6670 O.3   2001  ADP2001    -0.3135
     13  C3'       -7.9260   28.4110   81.9890 C.3   2001  ADP2001     0.2184
     14  O3'       -8.9550   28.7330   82.9070 O.3   2001  ADP2001    -0.2174
     15  C2'       -6.7720   29.3740   81.9200 C.3   2001  ADP2001     0.2570
     16  O2'       -6.4060   29.7200   83.2390 O.3   2001  ADP2001    -0.2130
     17  C1'       -5.6710   28.5370   81.3200 C.3   2001  ADP2001     0.3186
     18  N9        -5.6070   28.6410   79.8630 N.pl3 2001  ADP2001    -0.1439
     19  C8        -6.3420   27.8780   78.9870 C.3   2001  ADP2001     0.3377
     20  N7        -6.0410   28.2350   77.7060 N.2   2001  ADP2001    -0.2095
     21  C5        -5.1260   29.2070   77.7870 C.2   2001  ADP2001     0.2526
     22  C6        -4.4990   29.9020   76.7940 C.2   2001  ADP2001     0.4393
     23  N6        -4.7000   29.5860   75.4970 N.pl3 2001  ADP2001     0.2180
     24  N1        -3.6090   30.8630   77.1660 N.2   2001  ADP2001     0.0021
     25  C2        -3.3410   31.1410   78.4920 C.3   2001  ADP2001     0.5254
     26  N3        -3.9700   30.4320   79.4830 N.2   2001  ADP2001    -0.0055
     27  C4        -4.8350   29.4670   79.1260 C.2   2001  ADP2001     0.3518
@<TRIPOS>BOND
     1    23    22    1
     2    22    24    2
     3    22    21    1
     4    24    25    1
     5    20    21    2
     6    20    19    1
     7    21    27    1
     8     6     5    2
     9    25    26    1
    10    19    18    1
    11    27    26    2
    12    27    18    1
    13     2     1    2
    14     5     7    1
    15     5     8    1
    16     5     9    1
    17    18    17    1
    18     8     1    1
    19     9    10    1
    20     1     4    1
    21     1     3    1
    22    17    12    1
    23    17    15    1
    24    12    11    1
    25    15    13    1
    26    15    16    1
    27    10    11    1
    28    13    11    1
    29    13    14    1
