@<TRIPOS>MOLECULE
1mqb_ANP_A_1.pdb
 31 33 0 0 0
SMALL
GASTEIGER

@<TRIPOS>ATOM
      1  PG        36.0570   33.8650   48.5080 P.3   1000  ANP1000     0.4884
      2  O1G       36.0110   32.4560   48.0650 O.3   1000  ANP1000    -0.1240
      3  O2G       34.8330   34.6110   47.9200 O.2   1000  ANP1000    -0.2331
      4  O3G       37.3700   34.5590   48.0340 O.3   1000  ANP1000    -0.1240
      5  PB        37.3550   34.0120   51.0510 P.3   1000  ANP1000     0.4669
      6  O1B       36.8620   33.9710   52.4570 O.3   1000  ANP1000    -0.1253
      7  O2B       38.2990   32.8030   50.7610 O.2   1000  ANP1000    -0.2351
      8  N3B       36.0300   33.9630   50.1230 N.3   1000  ANP1000    -0.0163
      9  PA        38.3550   36.6720   51.4940 P.3   1000  ANP1000     0.2220
     10  O1A       37.6930   36.5100   52.8030 O.3   1000  ANP1000    -0.4370
     11  O2A       39.7740   37.1330   51.8730 O.2   1000  ANP1000    -0.5170
     12  O3A       38.2410   35.3340   50.6370 O.3   1000  ANP1000    -0.2360
     13  O5'       37.5840   37.8140   50.6530 O.3   1000  ANP1000    -0.3111
     14  C5'       36.4830   37.5890   49.7990 C.3   1000  ANP1000     0.1813
     15  C4'       36.7100   38.3810   48.5270 C.3   1000  ANP1000     0.1821
     16  O4'       36.8500   39.7530   48.8400 O.3   1000  ANP1000    -0.3135
     17  C3'       37.9800   37.9740   47.7780 C.3   1000  ANP1000     0.2184
     18  O3'       37.7270   37.0540   46.7680 O.3   1000  ANP1000    -0.2174
     19  C2'       38.4620   39.2570   47.1650 C.3   1000  ANP1000     0.2570
     20  O2'       37.8620   39.4620   45.9020 O.3   1000  ANP1000    -0.2130
     21  C1'       37.9550   40.3070   48.1390 C.3   1000  ANP1000     0.3186
     22  N9        39.0230   40.7530   49.0540 N.pl3 1000  ANP1000    -0.1439
     23  C8        39.3700   40.2780   50.2890 C.3   1000  ANP1000     0.3377
     24  N7        40.4040   41.0300   50.7510 N.2   1000  ANP1000    -0.2095
     25  C5        40.7000   41.9950   49.8500 C.2   1000  ANP1000     0.2526
     26  C6        41.6440   43.0220   49.7900 C.2   1000  ANP1000     0.4393
     27  N6        42.5480   43.2570   50.7420 N.pl3 1000  ANP1000     0.2180
     28  N1        41.6620   43.8230   48.6940 N.2   1000  ANP1000     0.0021
     29  C2        40.8080   43.6340   47.6330 C.3   1000  ANP1000     0.5254
     30  N3        39.9030   42.6120   47.6930 N.2   1000  ANP1000    -0.0055
     31  C4        39.8370   41.8180   48.7780 C.2   1000  ANP1000     0.3518
@<TRIPOS>BOND
     1    20    19    1
     2    18    17    1
     3    19    17    1
     4    19    21    1
     5    29    30    1
     6    29    28    1
     7    30    31    2
     8    17    15    1
     9     3     1    2
    10     4     1    1
    11     2     1    1
    12    21    16    1
    13    21    22    1
    14     1     8    1
    15    15    16    1
    16    15    14    1
    17    28    26    2
    18    31    22    1
    19    31    25    1
    20    22    23    1
    21    26    25    1
    22    26    27    1
    23    14    13    1
    24    25    24    2
    25     8     5    1
    26    23    24    1
    27    12     5    1
    28    12     9    1
    29    13     9    1
    30     7     5    2
    31     5     6    1
    32     9    11    2
    33     9    10    1
