@<TRIPOS>MOLECULE
1mqd_SHI_A_1.pdb
 12 12 0 0 0
SMALL
GASTEIGER

@<TRIPOS>ATOM
      1  O1        72.8180   43.7880   43.0640 O.2   3001  SHI3001    -0.3405
      2  N2        74.0130   43.5010   42.3310 N.2   3001  SHI3001    -0.0004
      3  C5        72.5970   45.1230   42.9880 C.2   3001  SHI3001     0.2204
      4  C4        73.6060   45.7530   42.3780 C.2   3001  SHI3001     0.1059
      5  C3        74.4540   44.6770   41.8760 C.1   3001  SHI3001     0.1884
      6  O31       75.4660   44.7740   41.1220 O.2   3001  SHI3001    -0.2193
      7  C41       73.8890   47.2110   42.1980 C.3   3001  SHI3001     0.0722
      8  C42       74.7350   47.8530   43.3240 C.3   3001  SHI3001     0.1995
      9  N1        74.0510   47.6890   44.6610 N.3   3001  SHI3001    -0.1204
     10  C43       74.9640   49.3460   42.9290 C.2   3001  SHI3001     0.3822
     11  O41       74.7360   50.1900   43.8440 O.co2 3001  SHI3001    -0.2440
     12  O42       75.3660   49.6150   41.7590 O.co2 3001  SHI3001    -0.2440
@<TRIPOS>BOND
     1     6     5    2
     2    12    10   ar
     3     5     2    2
     4     5     4    1
     5     7     4    1
     6     7     8    1
     7     2     1    1
     8     4     3    2
     9    10     8    1
    10    10    11   ar
    11     3     1    1
    12     8     9    1
