@<TRIPOS>MOLECULE
1mqe_APR_A_1.pdb
 36 39 0 0 0
SMALL
GASTEIGER

@<TRIPOS>ATOM
      1  N1        33.3420   22.1580    5.4070 N.2   208  APR208      0.0021
      2  C2        33.1700   23.2350    4.5710 C.3   208  APR208      0.5254
      3  N3        31.9530   23.3820    3.9510 N.2   208  APR208     -0.0055
      4  C4        30.9390   22.4910    4.1590 C.2   208  APR208      0.3518
      5  C5        31.1250   21.3990    5.0120 C.2   208  APR208      0.2526
      6  C6        32.3240   21.2510    5.6230 C.2   208  APR208      0.4393
      7  N6        32.4890   20.1840    6.4500 N.pl3 208  APR208      0.2180
      8  N7        29.9690   20.6530    5.0570 N.2   208  APR208     -0.2095
      9  C8        29.0720   21.2660    4.2430 C.3   208  APR208      0.3377
     10  N9        29.6580   22.3860    3.6910 N.pl3 208  APR208     -0.1439
     11  C1'       28.9630   23.2760    2.7570 C.3   208  APR208      0.3186
     12  C2'       29.0440   23.4520    1.2620 C.3   208  APR208      0.2570
     13  O2'       29.4450   24.8150    1.1040 O.3   208  APR208     -0.2130
     14  C3'       27.6230   23.0860    0.9680 C.3   208  APR208      0.2184
     15  O3'       27.3190   23.4760   -0.3500 O.3   208  APR208     -0.2174
     16  O4'       27.8190   24.0680    3.1330 O.3   208  APR208     -0.3135
     17  C4'       26.8810   23.9270    2.0340 C.3   208  APR208      0.1821
     18  C5'       25.7380   22.9290    2.1720 C.3   208  APR208      0.1813
     19  O5'       24.6190   23.6370    2.6480 O.3   208  APR208     -0.3112
     20  PA        23.2310   23.0090    2.9500 P.3   208  APR208      0.2189
     21  O1A       22.8510   22.3700    1.6010 O.2   208  APR208     -0.5170
     22  O2A       22.4300   24.2600    3.4020 O.3   208  APR208     -0.4371
     23  O3A       23.2010   21.9350    4.0920 O.3   208  APR208     -0.2703
     24  PB        23.7080   20.4870    4.3910 P.3   208  APR208      0.2189
     25  O1B       25.2390   20.3210    4.2470 O.3   208  APR208     -0.4371
     26  O2B       23.0160   19.4480    3.4520 O.2   208  APR208     -0.5170
     27  O5D       23.3140   20.0410    5.8030 O.3   208  APR208     -0.3112
     28  C5D       21.9830   20.0440    6.3080 C.3   208  APR208      0.1813
     29  O4D       22.2870   17.7740    6.9950 O.3   208  APR208     -0.3237
     30  O1D       22.9780   16.0380    8.0340 O.3   208  APR208     -0.1869
     31  C1D       23.5110   17.1860    7.4080 C.3   208  APR208      0.3023
     32  O2D       24.8470   17.5220    9.2930 O.3   208  APR208     -0.2148
     33  C2D       24.3060   18.2110    8.1950 C.3   208  APR208      0.2433
     34  O3D       22.5680   19.2880    9.6840 O.3   208  APR208     -0.2175
     35  C3D       23.2920   19.2700    8.4770 C.3   208  APR208      0.2168
     36  C4D       22.0830   19.0880    7.5150 C.3   208  APR208      0.1807
@<TRIPOS>BOND
     1    15    14    1
     2    14    12    1
     3    14    17    1
     4    13    12    1
     5    12    11    1
     6    21    20    2
     7    17    18    1
     8    17    16    1
     9    18    19    1
    10    19    20    1
    11    11    16    1
    12    11    10    1
    13    20    22    1
    14    20    23    1
    15    26    24    2
    16    10     4    1
    17    10     9    1
    18     3     4    2
    19     3     2    1
    20    23    24    1
    21     4     5    1
    22     9     8    1
    23    25    24    1
    24    24    27    1
    25     2     1    1
    26     5     8    2
    27     5     6    1
    28     1     6    2
    29     6     7    1
    30    27    28    1
    31    28    36    1
    32    29    31    1
    33    29    36    1
    34    31    30    1
    35    31    33    1
    36    36    35    1
    37    33    35    1
    38    33    32    1
    39    35    34    1
