@<TRIPOS>MOLECULE
1mqg_IWD_A_1.pdb
 15 15 0 0 0
SMALL
GASTEIGER

@<TRIPOS>ATOM
      1  N1        18.7120    3.0980   21.0510 N.am  301  IWD301     -0.2009
      2  C2        17.8410    3.7760   20.1570 C.1   301  IWD301      0.2827
      3  O2        18.1940    4.3340   19.1470 O.2   301  IWD301     -0.1919
      4  N3        16.4840    3.7430   20.5520 N.2   301  IWD301     -0.2448
      5  C4        15.9350    3.1450   21.6550 C.1   301  IWD301      0.2229
      6  O4        14.7440    3.1970   21.9020 O.2   301  IWD301     -0.2081
      7  C5        16.9670    2.4460   22.5360 C.2   301  IWD301      0.1404
      8  I5        16.3750    1.4200   24.2420 I     301  IWD301     -0.0273
      9  C6        18.2580    2.4620   22.1520 C.2   301  IWD301      0.0956
     10  C7        20.1530    2.9810   20.7490 C.3   301  IWD301      0.1396
     11  C8        20.4560    2.0730   19.5690 C.3   301  IWD301      0.2151
     12  N8        20.1600    0.6510   19.9600 N.3   301  IWD301     -0.1189
     13  C9        21.8790    2.1940   18.9970 C.2   301  IWD301      0.3836
     14  O91       22.5640    1.1890   18.8910 O.co2 301  IWD301     -0.2440
     15  O92       22.2350    3.3980   18.7140 O.co2 301  IWD301     -0.2440
@<TRIPOS>BOND
     1    15    13   ar
     2    14    13   ar
     3    13    11    1
     4     3     2    2
     5    11    12    1
     6    11    10    1
     7     2     4    2
     8     2     1   am
     9     4     5    2
    10    10     1    1
    11     1     9    1
    12     5     6    2
    13     5     7    1
    14     9     7    2
    15     7     8    1
