@<TRIPOS>MOLECULE
1mqh_BWD_A_1.pdb
 15 15 0 0 0
SMALL
GASTEIGER

@<TRIPOS>ATOM
      1  N1        15.7260   43.9930   15.3850 N.am  301  BWD301     -0.2008
      2  C2        15.4890   45.2560   14.7790 C.1   301  BWD301      0.2827
      3  O2        15.3010   46.2820   15.3870 O.2   301  BWD301     -0.1919
      4  N3        15.4900   45.2160   13.3620 N.2   301  BWD301     -0.2448
      5  C4        15.6990   44.1270   12.5440 C.1   301  BWD301      0.2238
      6  O4        15.6630   44.1960   11.3240 O.2   301  BWD301     -0.2080
      7  C5        15.9490   42.8430   13.3120 C.2   301  BWD301      0.1451
      8 BR5        16.3090   41.2560   12.3810 Br    301  BWD301     -0.0340
      9  C6        15.9640   42.8790   14.6610 C.2   301  BWD301      0.0965
     10  C7        15.8190   43.8800   16.8520 C.3   301  BWD301      0.1396
     11  C8        17.0620   44.5400   17.4280 C.3   301  BWD301      0.2151
     12  N8        18.2470   43.6520   17.1660 N.3   301  BWD301     -0.1189
     13  C9        16.9770   44.9090   18.9130 C.2   301  BWD301      0.3836
     14  O91       17.8250   44.4850   19.6570 O.co2 301  BWD301     -0.2440
     15  O92       15.9590   45.6300   19.2350 O.co2 301  BWD301     -0.2440
@<TRIPOS>BOND
     1     6     5    2
     2     8     7    1
     3     5     7    1
     4     5     4    2
     5     7     9    2
     6     4     2    2
     7     9     1    1
     8     2     1   am
     9     2     3    2
    10     1    10    1
    11    10    11    1
    12    12    11    1
    13    11    13    1
    14    13    15   ar
    15    13    14   ar
