@<TRIPOS>MOLECULE
1mqi_FWD_A_1.pdb
 15 15 0 0 0
SMALL
GASTEIGER

@<TRIPOS>ATOM
      1  N1        16.3460    1.7690   15.4420 N.am  401  FWD401     -0.1990
      2  C2        16.4520    0.4720   14.8800 C.1   401  FWD401      0.2828
      3  O2        16.4860   -0.5540   15.5220 O.2   401  FWD401     -0.1919
      4  N3        16.5110    0.4660   13.4730 N.2   401  FWD401     -0.2430
      5  C4        16.4800    1.5440   12.6260 C.1   401  FWD401      0.2454
      6  O4        16.5550    1.4430   11.4210 O.2   401  FWD401     -0.2062
      7  C5        16.3720    2.8640   13.3280 C.2   401  FWD401      0.2498
      8  F5        16.3160    3.9720   12.5750 F     401  FWD401     -0.1891
      9  C6        16.2890    2.8890   14.6780 C.2   401  FWD401      0.1198
     10  C7        16.2070    1.8990   16.8970 C.3   401  FWD401      0.1396
     11  C8        14.8860    1.3810   17.4490 C.3   401  FWD401      0.2151
     12  N8        13.7800    2.3630   17.1840 N.3   401  FWD401     -0.1189
     13  C9        14.9390    1.0120   18.9290 C.2   401  FWD401      0.3836
     14  O91       14.1300    1.5030   19.6780 O.co2 401  FWD401     -0.2440
     15  O92       15.9070    0.2240   19.2430 O.co2 401  FWD401     -0.2440
@<TRIPOS>BOND
     1     6     5    2
     2     8     7    1
     3     5     7    1
     4     5     4    2
     5     7     9    2
     6     4     2    2
     7     9     1    1
     8     2     1   am
     9     2     3    2
    10     1    10    1
    11    10    11    1
    12    12    11    1
    13    11    13    1
    14    13    15   ar
    15    13    14   ar
