@<TRIPOS>MOLECULE
1mqj_HWD_A_1.pdb
 14 14 0 0 0
SMALL
GASTEIGER

@<TRIPOS>ATOM
      1  N1        16.2660    1.7120   15.4300 N.am  301  HWD301     -0.2013
      2  C2        16.3910    0.4090   14.8630 C.1   301  HWD301      0.2826
      3  O2        16.4680   -0.6340   15.5440 O.2   301  HWD301     -0.1919
      4  N3        16.4210    0.3860   13.4680 N.2   301  HWD301     -0.2452
      5  C4        16.3400    1.5070   12.6140 C.1   301  HWD301      0.2182
      6  O4        16.3810    1.3700   11.4040 O.2   301  HWD301     -0.2085
      7  C5        16.2110    2.7990   13.2910 C.2   301  HWD301      0.1241
      8  C6        16.1540    2.8610   14.6430 C.2   301  HWD301      0.0905
      9  C7        16.1540    1.8670   16.8930 C.3   301  HWD301      0.1396
     10  C8        14.8540    1.3310   17.4900 C.3   301  HWD301      0.2151
     11  N8        13.7290    2.3010   17.2460 N.3   301  HWD301     -0.1189
     12  C9        14.9480    0.9720   18.9800 C.2   301  HWD301      0.3836
     13  O91       14.1470    1.4500   19.7430 O.co2 301  HWD301     -0.2440
     14  O92       15.9380    0.2100   19.2820 O.co2 301  HWD301     -0.2440
@<TRIPOS>BOND
     1     6     5    2
     2     5     7    1
     3     5     4    2
     4     7     8    2
     5     4     2    2
     6     8     1    1
     7     2     1   am
     8     2     3    2
     9     1     9    1
    10     9    10    1
    11    11    10    1
    12    10    12    1
    13    12    14   ar
    14    12    13   ar
