@<TRIPOS>MOLECULE
1mql_NAG_G_1.pdb
 15 15 0 0 0
SMALL
GASTEIGER

@<TRIPOS>ATOM
      1  C1        82.1670   10.7140   75.7610 C.3   335  NAG335      0.2917
      2  C2        81.5640    9.6940   74.8190 C.3   335  NAG335      0.1871
      3  C3        80.7120    8.6420   75.5060 C.3   335  NAG335      0.2095
      4  C4        80.8860    8.4660   77.0080 C.3   335  NAG335      0.2136
      5  C5        81.6200    9.5790   77.7250 C.3   335  NAG335      0.1835
      6  C6        82.2470    9.0760   78.9790 C.3   335  NAG335      0.2142
      7  C7        81.1320   10.4920   72.6340 C.2   335  NAG335      0.2421
      8  C8        80.1290   10.7270   71.4980 C.3   335  NAG335      0.0964
      9  N2        80.7110   10.3870   73.8820 N.am  335  NAG335     -0.1991
     10  O1        83.2320   11.3360   75.1330 O.3   335  NAG335     -0.1879
     11  O3        80.9180    7.3860   74.8910 O.3   335  NAG335     -0.2183
     12  O4        79.5840    8.3720   77.5530 O.3   335  NAG335     -0.2176
     13  O5        82.6750   10.0550   76.9090 O.3   335  NAG335     -0.3242
     14  O6        83.5240    8.5680   78.6740 O.3   335  NAG335     -0.2176
     15  O7        82.3300   10.3780   72.3710 O.2   335  NAG335     -0.2733
@<TRIPOS>BOND
     1     8     7    1
     2    15     7    2
     3     7     9   am
     4     9     2    1
     5     2     3    1
     6     2     1    1
     7    11     3    1
     8    10     1    1
     9     3     4    1
    10     1    13    1
    11    13     5    1
    12     4    12    1
    13     4     5    1
    14     5     6    1
    15    14     6    1
