@<TRIPOS>MOLECULE
1mqm_NAG_A_1.pdb
 14 14 0 0 0
SMALL
GASTEIGER

@<TRIPOS>ATOM
      1  C1        62.2290   63.3390   92.0030 C.3   401  NAG401      0.1665
      2  C2        63.6690   63.6290   91.5350 C.3   401  NAG401      0.1576
      3  C3        63.6690   64.8320   90.5830 C.3   401  NAG401      0.2069
      4  C4        62.6440   64.6450   89.4620 C.3   401  NAG401      0.2134
      5  C5        61.2690   64.3530   90.0530 C.3   401  NAG401      0.1809
      6  C6        60.2430   64.0510   88.9730 C.3   401  NAG401      0.2141
      7  C7        64.4230   63.2760   93.8310 C.2   401  NAG401      0.2420
      8  C8        63.6990   63.9820   94.9750 C.3   401  NAG401      0.0964
      9  N2        64.5390   63.9220   92.6680 N.am  401  NAG401     -0.2019
     10  O3        64.9610   65.0030   90.0240 O.3   401  NAG401     -0.2184
     11  O4        62.5700   65.8340   88.6570 O.3   401  NAG401     -0.2176
     12  O5        61.3450   63.1890   90.8840 O.3   401  NAG401     -0.3489
     13  O6        58.9210   64.3100   89.4250 O.3   401  NAG401     -0.2176
     14  O7        64.8860   62.1490   94.0150 O.2   401  NAG401     -0.2733
@<TRIPOS>BOND
     1    11     4    1
     2     6    13    1
     3     6     5    1
     4     4     5    1
     5     4     3    1
     6    10     3    1
     7     5    12    1
     8     3     2    1
     9    12     1    1
    10     2     1    1
    11     2     9    1
    12     9     7   am
    13     7    14    2
    14     7     8    1
