@<TRIPOS>MOLECULE
1mqm_SIA_A_1.pdb
 20 20 0 0 0
SMALL
GASTEIGER

@<TRIPOS>ATOM
      1  C1        52.0960   47.3900   70.6930 C.2   409  SIA409      0.3914
      2  C2        52.4330   47.0760   69.2410 C.3   409  SIA409      0.2203
      3  C3        52.7240   48.3770   68.4810 C.3   409  SIA409      0.0760
      4  C4        53.9540   49.0790   69.0860 C.3   409  SIA409      0.1773
      5  C5        55.1340   48.1120   69.2350 C.3   409  SIA409      0.1552
      6  C6        54.7190   46.8090   69.9100 C.3   409  SIA409      0.1710
      7  C7        55.9000   45.8450   69.8910 C.3   409  SIA409      0.2134
      8  C8        55.4420   44.4030   70.1170 C.3   409  SIA409      0.2173
      9  C9        56.6350   43.4730   70.0520 C.3   409  SIA409      0.2175
     10  C10       57.4260   48.7090   69.6170 C.2   409  SIA409      0.2420
     11  C11       58.3200   49.8400   70.0970 C.3   409  SIA409      0.0964
     12  N5        56.1680   48.7320   70.0310 N.am  409  SIA409     -0.2020
     13  O1A       51.2620   48.2880   70.9330 O.co2 409  SIA409     -0.2430
     14  O1B       52.6220   46.7050   71.5960 O.co2 409  SIA409     -0.2430
     15  O4        54.3510   50.1600   68.2530 O.3   409  SIA409     -0.2211
     16  O6        53.5870   46.2260   69.2230 O.3   409  SIA409     -0.3429
     17  O7        56.5720   45.9420   68.6450 O.3   409  SIA409     -0.2176
     18  O8        54.8160   44.2810   71.3870 O.3   409  SIA409     -0.2175
     19  O9        56.5240   42.4990   71.0760 O.3   409  SIA409     -0.2175
     20  O10       57.8740   47.8340   68.8750 O.2   409  SIA409     -0.2733
@<TRIPOS>BOND
     1    15     4    1
     2     3     4    1
     3     3     2    1
     4    17     7    1
     5    20    10    2
     6     4     5    1
     7    16     2    1
     8    16     6    1
     9     5     6    1
    10     5    12    1
    11     2     1    1
    12    10    12   am
    13    10    11    1
    14     7     6    1
    15     7     8    1
    16     9     8    1
    17     9    19    1
    18     8    18    1
    19     1    13   ar
    20     1    14   ar
