@<TRIPOS>MOLECULE
1mqm_GAL_A_1.pdb
 11 11 0 0 0
SMALL
GASTEIGER

@<TRIPOS>ATOM
      1  C1        50.1280   44.7910   65.5320 C.3   410  GAL410      0.1777
      2  C2        50.0830   45.6130   66.8170 C.3   410  GAL410      0.2141
      3  C3        51.4780   45.7370   67.4170 C.3   410  GAL410      0.2173
      4  C4        52.0880   44.3350   67.6100 C.3   410  GAL410      0.2142
      5  C5        51.9950   43.5100   66.3090 C.3   410  GAL410      0.1810
      6  C6        52.4280   42.0650   66.5020 C.3   410  GAL410      0.2141
      7  O2        49.5640   46.9050   66.5560 O.3   410  GAL410     -0.2176
      8  O3        51.3540   46.3980   68.6910 O.3   410  GAL410     -0.2175
      9  O4        51.4230   43.6490   68.6670 O.3   410  GAL410     -0.2176
     10  O5        50.6330   43.4820   65.8220 O.3   410  GAL410     -0.3481
     11  O6        52.3300   41.3280   65.2920 O.3   410  GAL410     -0.2176
@<TRIPOS>BOND
     1    11     6    1
     2     1    10    1
     3     1     2    1
     4    10     5    1
     5     5     6    1
     6     5     4    1
     7     7     2    1
     8     2     3    1
     9     3     4    1
    10     3     8    1
    11     4     9    1
