@<TRIPOS>MOLECULE
1mqn_SIA_A_1.pdb
 20 20 0 0 0
SMALL
GASTEIGER

@<TRIPOS>ATOM
      1  C1        52.3050   47.4620   69.9150 C.2   409  SIA409      0.3914
      2  C2        52.7820   47.3960   68.4620 C.3   409  SIA409      0.2203
      3  C3        53.0440   48.7910   67.9020 C.3   409  SIA409      0.0760
      4  C4        54.3020   49.4400   68.4710 C.3   409  SIA409      0.1773
      5  C5        55.4760   48.4710   68.4990 C.3   409  SIA409      0.1552
      6  C6        55.0240   47.2060   69.1700 C.3   409  SIA409      0.1710
      7  C7        56.1270   46.1840   69.2970 C.3   409  SIA409      0.2134
      8  C8        55.5720   44.9400   69.9990 C.3   409  SIA409      0.2173
      9  C9        56.5910   43.8130   69.9790 C.3   409  SIA409      0.2175
     10  C10       57.8410   48.9310   68.8490 C.2   409  SIA409      0.2420
     11  C11       58.8990   49.5420   69.7440 C.3   409  SIA409      0.0964
     12  N5        56.5760   49.0480   69.2540 N.am  409  SIA409     -0.2020
     13  O1A       51.4150   48.2770   70.2190 O.co2 409  SIA409     -0.2430
     14  O1B       52.7750   46.6580   70.7570 O.co2 409  SIA409     -0.2430
     15  O4        54.6550   50.5620   67.6730 O.3   409  SIA409     -0.2211
     16  O6        53.9680   46.6290   68.4150 O.3   409  SIA409     -0.3429
     17  O7        56.5750   45.8290   67.9990 O.3   409  SIA409     -0.2176
     18  O8        55.2270   45.2470   71.3420 O.3   409  SIA409     -0.2175
     19  O9        56.1040   42.7410   70.7610 O.3   409  SIA409     -0.2175
     20  O10       58.1670   48.4140   67.7740 O.2   409  SIA409     -0.2733
@<TRIPOS>BOND
     1    15     4    1
     2    20    10    2
     3     3     2    1
     4     3     4    1
     5    17     7    1
     6    16     2    1
     7    16     6    1
     8     2     1    1
     9     4     5    1
    10     5     6    1
    11     5    12    1
    12    10    12   am
    13    10    11    1
    14     6     7    1
    15     7     8    1
    16     1    13   ar
    17     1    14   ar
    18     9     8    1
    19     9    19    1
    20     8    18    1
