@<TRIPOS>MOLECULE
1mqn_NAG_A_1.pdb
 14 14 0 0 0
SMALL
GASTEIGER

@<TRIPOS>ATOM
      1  C1        62.2290   63.4300   91.7910 C.3   401  NAG401      0.1665
      2  C2        63.6680   63.7250   91.3250 C.3   401  NAG401      0.1576
      3  C3        63.6650   64.9260   90.3710 C.3   401  NAG401      0.2069
      4  C4        62.6430   64.7330   89.2480 C.3   401  NAG401      0.2134
      5  C5        61.2680   64.4370   89.8380 C.3   401  NAG401      0.1809
      6  C6        60.2450   64.1300   88.7570 C.3   401  NAG401      0.2141
      7  C7        64.4200   63.3780   93.6220 C.2   401  NAG401      0.2420
      8  C8        63.6920   64.0830   94.7640 C.3   401  NAG401      0.0964
      9  N2        64.5350   64.0230   92.4590 N.am  401  NAG401     -0.2019
     10  O3        64.9570   65.1010   89.8130 O.3   401  NAG401     -0.2184
     11  O4        62.5650   65.9210   88.4410 O.3   401  NAG401     -0.2176
     12  O5        61.3470   63.2750   90.6710 O.3   401  NAG401     -0.3489
     13  O6        58.9210   64.3850   89.2060 O.3   401  NAG401     -0.2176
     14  O7        64.8870   62.2530   93.8090 O.2   401  NAG401     -0.2733
@<TRIPOS>BOND
     1    11     4    1
     2     6    13    1
     3     6     5    1
     4     4     5    1
     5     4     3    1
     6    10     3    1
     7     5    12    1
     8     3     2    1
     9    12     1    1
    10     2     1    1
    11     2     9    1
    12     9     7   am
    13     7    14    2
    14     7     8    1
