@<TRIPOS>MOLECULE
1mqq_GCU_A_1.pdb
 13 13 0 0 0
SMALL
GASTEIGER

@<TRIPOS>ATOM
      1  C1        22.7220   34.0860  153.3640 C.3   701  GCU701      0.3028
      2  C2        24.1070   34.1010  154.0850 C.3   701  GCU701      0.2435
      3  C3        24.4930   35.4970  154.6560 C.3   701  GCU701      0.2204
      4  C4        24.1460   36.6880  153.7180 C.3   701  GCU701      0.2229
      5  C5        22.6540   36.5680  153.2310 C.3   701  GCU701      0.2530
      6  C6        22.2440   37.6920  152.2350 C.2   701  GCU701      0.3941
      7  O1        22.6110   32.9970  152.4410 O.3   701  GCU701     -0.1869
      8  O2        24.0620   33.1580  155.1820 O.3   701  GCU701     -0.2148
      9  O3        25.9130   35.5270  154.8750 O.3   701  GCU701     -0.2174
     10  O4        24.4170   37.9980  154.2740 O.3   701  GCU701     -0.2171
     11  O5        22.4880   35.2620  152.5460 O.3   701  GCU701     -0.3149
     12  O6A       22.4550   38.8830  152.5670 O.co2 701  GCU701     -0.2429
     13  O6B       21.8860   37.2980  151.0960 O.co2 701  GCU701     -0.2429
@<TRIPOS>BOND
     1    13     6   ar
     2     6    12   ar
     3     6     5    1
     4     7     1    1
     5    11     5    1
     6    11     1    1
     7     5     4    1
     8     1     2    1
     9     4    10    1
    10     4     3    1
    11     2     3    1
    12     2     8    1
    13     3     9    1
