@<TRIPOS>MOLECULE
1mqt_SPL_A_1.pdb
 30 29 0 0 0
SMALL
GASTEIGER

@<TRIPOS>ATOM
      1  C1        35.9230    8.3500  126.5820 C.2   284  SPL284      0.2488
      2  O1        35.3400    9.2670  127.5290 O.2   284  SPL284     -0.2820
      3  C2        35.4250    6.9050  126.4220 C.2   284  SPL284      0.1232
      4  N2        34.3340    6.2660  127.1710 N.am  284  SPL284     -0.1777
      5  C3        36.1990    6.1100  125.3490 C.3   284  SPL284      0.1925
      6  O3        37.1730    5.5880  126.3520 O.3   284  SPL284     -0.2168
      7  C4        37.2200    6.7470  124.4390 C.3   284  SPL284      0.0390
      8  C5        37.7060    5.9530  123.4250 C.3   284  SPL284      0.0030
      9  C6        39.1110    5.4970  123.6870 C.3   284  SPL284      0.0001
     10  C7        39.2240    3.9800  123.3670 C.3   284  SPL284      0.0000
     11  C8        40.6250    3.4820  123.6200 C.3   284  SPL284      0.0000
     12  C9        40.7030    1.9930  123.3290 C.3   284  SPL284      0.0000
     13  C10       42.1630    1.2130  123.5400 C.3   284  SPL284      0.0000
     14  C11       42.0160   -0.4380  123.5720 C.3   284  SPL284      0.0000
     15  C12       43.2440   -1.0970  123.7520 C.3   284  SPL284      0.0000
     16  C13       43.9720   -1.6100  122.5050 C.3   284  SPL284      0.0000
     17  C14       45.2510   -2.3660  122.8720 C.3   284  SPL284      0.0000
     18  C15       46.0010   -2.8900  121.6450 C.3   284  SPL284      0.0000
     19  C16       47.2800   -3.6450  122.0230 C.3   284  SPL284      0.0000
     20  C17       48.0340   -4.1710  120.8020 C.3   284  SPL284      0.0000
     21  C18       49.3200   -4.9300  121.1790 C.3   284  SPL284      0.0000
     22  C19       33.9880    4.9760  126.9350 C.2   284  SPL284      0.2454
     23  O19       34.5990    4.0770  127.6390 O.2   284  SPL284     -0.2730
     24  C20       32.9450    4.5090  125.9190 C.3   284  SPL284      0.0872
     25  C21       32.0540    3.1920  126.0590 C.3   284  SPL284      0.0096
     26  C22       32.1980    2.2400  124.9090 C.3   284  SPL284      0.0005
     27  C23       32.4230    0.7780  125.4010 C.3   284  SPL284      0.0000
     28  C24       33.3330   -0.0140  124.4370 C.3   284  SPL284      0.0000
     29  C25       33.5900   -1.4750  124.8750 C.3   284  SPL284      0.0000
     30  C26       34.8280   -2.0940  124.1880 C.3   284  SPL284      0.0000
@<TRIPOS>BOND
     1    20    21    1
     2    20    19    1
     3    18    19    1
     4    18    17    1
     5    16    17    1
     6    16    15    1
     7    12    13    1
     8    12    11    1
     9    10    11    1
    10    10     9    1
    11     8     9    1
    12     8     7    1
    13    13    14    1
    14    14    15    1
    15    30    29    1
    16    28    29    1
    17    28    27    1
    18     7     5    1
    19    26    27    1
    20    26    25    1
    21     5     6    1
    22     5     3    1
    23    24    25    1
    24    24    22    1
    25     3     1    2
    26     3     4    1
    27     1     2    1
    28    22     4   am
    29    22    23    2
