@<TRIPOS>MOLECULE
1mqv_HEM_A_1.pdb
 43 50 0 0 0
SMALL
GASTEIGER

@<TRIPOS>ATOM
      1 FE         14.5460   -1.5330   23.6230 Fe    150  HEM150      0.0000
      2  CHA       14.7970   -4.8870   23.7710 C.2   150  HEM150      0.0000
      3  CHB       11.9980   -1.8390   21.3610 C.2   150  HEM150      0.0000
      4  CHC       13.7590    1.7350   24.0210 C.2   150  HEM150      0.0000
      5  CHD       16.8490   -1.2030   26.2850 C.2   150  HEM150      0.0000
      6  NA        13.5750   -3.0990   22.7130 N.ar  150  HEM150      0.0000
      7  C1A       13.8530   -4.4130   22.9360 C.ar  150  HEM150      0.0000
      8  C2A       12.9930   -5.2030   22.1360 C.ar  150  HEM150      0.0000
      9  C3A       12.1730   -4.3510   21.3870 C.ar  150  HEM150      0.0000
     10  C4A       12.5730   -3.0220   21.7940 C.ar  150  HEM150      0.0000
     11  CMA       11.1110   -4.5700   20.3560 C.3   150  HEM150      0.0000
     12  CAA       13.0300   -6.7230   22.0390 C.3   150  HEM150      0.0000
     13  CBA       12.1180   -7.3150   23.0900 C.3   150  HEM150      0.0000
     14  CGA       11.9630   -8.8310   22.9090 C.2   150  HEM150      0.0000
     15  O1A       10.9320   -9.2390   22.3650 O.co2 150  HEM150      0.0000
     16  O2A       12.8730   -9.5820   23.3100 O.co2 150  HEM150      0.0000
     17  NB        13.2180   -0.3410   22.8520 N.2   150  HEM150      0.0000
     18  C1B       12.3100   -0.5710   21.8320 C.2   150  HEM150      0.0000
     19  C2B       11.6470    0.6590   21.3470 C.2   150  HEM150      0.0000
     20  C3B       12.1460    1.6600   22.0850 C.2   150  HEM150      0.0000
     21  C4B       13.0980    1.0350   23.0490 C.2   150  HEM150      0.0000
     22  CMB       10.6240    0.6910   20.1700 C.3   150  HEM150      0.0000
     23  CAB       11.8560    3.0910   21.9990 C.3   150  HEM150      0.0000
     24  CBB       10.5560    3.6180   21.9710 C.3   150  HEM150      0.0000
     25  NC        15.1130   -0.0930   24.9200 N.ar  150  HEM150      0.0000
     26  C1C       14.7010    1.2390   24.9280 C.ar  150  HEM150      0.0000
     27  C2C       15.4200    2.0070   25.8700 C.ar  150  HEM150      0.0000
     28  C3C       16.3320    1.2190   26.5230 C.ar  150  HEM150      0.0000
     29  C4C       16.1110   -0.1150   25.8850 C.ar  150  HEM150      0.0000
     30  CMC       15.3450    3.5660   26.0030 C.3   150  HEM150      0.0000
     31  CAC       17.3690    1.4850   27.5100 C.3   150  HEM150      0.0000
     32  CBC       17.2210    2.6740   28.3640 C.3   150  HEM150      0.0000
     33  ND        15.6460   -2.7550   24.8170 N.2   150  HEM150      0.0000
     34  C1D       16.6160   -2.5080   25.7550 C.2   150  HEM150      0.0000
     35  C2D       17.2970   -3.7480   26.1840 C.2   150  HEM150      0.0000
     36  C3D       16.7030   -4.7510   25.4560 C.2   150  HEM150      0.0000
     37  C4D       15.6620   -4.1520   24.6230 C.2   150  HEM150      0.0000
     38  CMD       18.2500   -3.7900   27.4150 C.3   150  HEM150      0.0000
     39  CAD       17.0460   -6.3060   25.6320 C.3   150  HEM150      0.0000
     40  CBD       15.9920   -6.8160   26.6610 C.3   150  HEM150      0.0000
     41  CGD       16.3320   -8.2410   27.0890 C.2   150  HEM150      0.0000
     42  O1D       16.6430   -9.0120   26.1700 O.co2 150  HEM150      0.0000
     43  O2D       16.2970   -8.5520   28.2960 O.co2 150  HEM150      0.0000
@<TRIPOS>BOND
     1    22    19    1
     2    11     9    1
     3    19    18    1
     4    19    20    2
     5     3    10    2
     6     3    18    1
     7     9    10   ar
     8     9     8   ar
     9    10     6   ar
    10    18    17    2
    11    24    23    1
    12    23    20    1
    13    12     8    1
    14    12    13    1
    15    20    21    1
    16     8     7   ar
    17    15    14   ar
    18     6     7   ar
    19     6     1    1
    20    17    21    1
    21    17     1    1
    22    14    13    1
    23    14    16   ar
    24     7     2    2
    25    21     4    2
    26     1    33    1
    27     1    25    1
    28     2    37    1
    29     4    26    1
    30    37    33    2
    31    37    36    1
    32    33    34    1
    33    25    26   ar
    34    25    29   ar
    35    26    27   ar
    36    36    39    1
    37    36    35    2
    38    39    40    1
    39    34    35    1
    40    34     5    2
    41    27    30    1
    42    27    28   ar
    43    29     5    1
    44    29    28   ar
    45    42    41   ar
    46    35    38    1
    47    28    31    1
    48    40    41    1
    49    41    43   ar
    50    31    32    1
