@<TRIPOS>MOLECULE
1mqw_ADV_A_1.pdb
 27 29 0 0 0
SMALL
GASTEIGER

@<TRIPOS>ATOM
      1  PA        22.6460   22.8890    2.5620 P.3   301  ADV301      0.3770
      2  O5'       23.9740   23.3520    1.8640 O.3   301  ADV301     -0.2897
      3  C5'       24.5370   22.6180    0.7480 C.3   301  ADV301      0.1836
      4  C4'       25.6340   23.2000    0.3190 C.3   301  ADV301      0.1822
      5  O4'       26.6580   23.2580    1.1530 O.3   301  ADV301     -0.3135
      6  C3'       26.4970   22.1140   -0.4380 C.3   301  ADV301      0.2184
      7  O3'       25.9360   22.0410   -1.8940 O.3   301  ADV301     -0.2174
      8  C2'       27.8380   22.4850   -0.3910 C.3   301  ADV301      0.2570
      9  O2'       28.1450   23.3890   -1.2720 O.3   301  ADV301     -0.2130
     10  C1'       27.9880   22.9620    1.1110 C.3   301  ADV301      0.3186
     11  N9        28.7620   22.2990    2.1140 N.pl3 301  ADV301     -0.1439
     12  C8        28.4290   20.9970    2.5420 C.3   301  ADV301      0.3377
     13  N7        29.2980   20.5590    3.5030 N.2   301  ADV301     -0.2095
     14  C5        30.2020   21.5580    3.7130 C.2   301  ADV301      0.2526
     15  C6        31.2850   21.6540    4.5670 C.2   301  ADV301      0.4393
     16  N6        31.5460   20.5850    5.3650 N.pl3 301  ADV301      0.2180
     17  N1        32.0930   22.8210    4.6020 N.2   301  ADV301      0.0021
     18  C2        31.8260   23.9350    3.7750 C.3   301  ADV301      0.5254
     19  N3        30.7110   23.8400    2.8990 N.2   301  ADV301     -0.0055
     20  C4        29.8980   22.6900    2.8510 C.2   301  ADV301      0.3518
     21  CX        22.8960   21.8270    3.7470 C.3   301  ADV301      0.1765
     22  PB        23.3750   20.3290    3.9100 P.3   301  ADV301      0.1295
     23  O1B       24.7880   20.1340    3.3740 O.3   301  ADV301     -0.3567
     24  OR5       22.3960   19.4070    3.1410 O.2   301  ADV301     -0.4595
     25  O2A       21.7110   22.1690    1.4440 O.2   301  ADV301     -0.2550
     26  O2B       23.3590   19.8830    5.3630 O.3   301  ADV301     -0.3567
     27  O1A       22.1280   24.2620    3.1120 O.3   301  ADV301     -0.1394
@<TRIPOS>BOND
     1     7     6    1
     2     9     8    1
     3     6     8    1
     4     6     4    1
     5     8    10    1
     6     4     3    1
     7     4     5    1
     8     3     2    1
     9    10     5    1
    10    10    11    1
    11    25     1    2
    12     2     1    1
    13    11    12    1
    14    11    20    1
    15    12    13    1
    16     1    27    1
    17     1    21    1
    18    20    19    2
    19    20    14    1
    20    19    18    1
    21    24    22    2
    22    23    22    1
    23    13    14    2
    24    14    15    1
    25    21    22    1
    26    18    17    1
    27    22    26    1
    28    15    17    2
    29    15    16    1
