@<TRIPOS>MOLECULE
1mr2_A12_A_1.pdb
 27 29 0 0 0
SMALL
GASTEIGER

@<TRIPOS>ATOM
      1  PB        23.6300   20.1690    3.6990 P.3   301  A12301      0.1295
      2  O1B       24.7240   19.1390    3.9630 O.3   301  A12301     -0.3567
      3  O2B       22.8610   20.5210    5.0430 O.3   301  A12301     -0.3567
      4  O3B       22.6370   19.4540    2.6670 O.2   301  A12301     -0.4595
      5  PA        25.2860   21.7340    1.9450 P.3   301  A12301      0.3770
      6  O1A       26.0820   20.5620    1.2290 O.3   301  A12301     -0.1394
      7  O2A       24.1030   22.3850    1.1410 O.2   301  A12301     -0.2550
      8  C3A       24.6700   21.2710    3.3390 C.3   301  A12301      0.1765
      9  O5'       26.3440   22.9250    2.0290 O.3   301  A12301     -0.2897
     10  C5'       26.1470   24.3090    1.6710 C.3   301  A12301      0.1836
     11  C4'       27.4720   25.0950    1.9130 C.3   301  A12301      0.1822
     12  O4'       28.2490   24.7400    3.0540 O.3   301  A12301     -0.3135
     13  C3'       28.3250   24.7990    0.6650 C.3   301  A12301      0.2184
     14  O3'       28.6420   26.0170    0.0630 O.3   301  A12301     -0.2174
     15  C2'       29.6430   24.2370    1.1900 C.3   301  A12301      0.2570
     16  O2'       30.7470   25.0970    1.4580 O.3   301  A12301     -0.2130
     17  C1'       29.2960   23.8750    2.6430 C.3   301  A12301      0.3186
     18  N9        29.8290   22.8510    3.5370 N.pl3 301  A12301     -0.1439
     19  C8        29.0640   21.7820    3.9380 C.3   301  A12301      0.3377
     20  N7        29.8020   20.9810    4.7650 N.2   301  A12301     -0.2095
     21  C5        31.0430   21.5700    4.8710 C.2   301  A12301      0.2526
     22  C6        32.1720   21.2200    5.5580 C.2   301  A12301      0.4393
     23  N6        32.1270   20.0770    6.2930 N.pl3 301  A12301      0.2180
     24  N1        33.3230   22.0150    5.4950 N.2   301  A12301      0.0021
     25  C2        33.3780   23.1870    4.7440 C.3   301  A12301      0.5254
     26  N3        32.2250   23.5280    4.0530 N.2   301  A12301     -0.0055
     27  C4        31.0780   22.7540    4.1070 C.2   301  A12301      0.3518
@<TRIPOS>BOND
     1    14    13    1
     2    13    15    1
     3    13    11    1
     4     7     5    2
     5    15    16    1
     6    15    17    1
     7     6     5    1
     8    10    11    1
     9    10     9    1
    10    11    12    1
    11     5     9    1
    12     5     8    1
    13    17    12    1
    14    17    18    1
    15     4     1    2
    16     8     1    1
    17    18    19    1
    18    18    27    1
    19     1     2    1
    20     1     3    1
    21    19    20    1
    22    26    27    2
    23    26    25    1
    24    27    21    1
    25    25    24    1
    26    20    21    2
    27    21    22    1
    28    24    22    2
    29    22    23    1
