@<TRIPOS>MOLECULE
1mr3_G3D_F_1.pdb
 32 34 0 0 0
SMALL
GASTEIGER

@<TRIPOS>ATOM
      1  PB         6.3320   19.4590   -0.5040 P.3   800  G3D800      0.5373
      2  O1B        7.5840   18.9200    0.0870 O.3   800  G3D800     -0.1143
      3  O2B        5.2690   19.7260    0.3660 O.3   800  G3D800     -0.1143
      4  O3B        6.6900   20.7220   -1.4520 O.2   800  G3D800     -0.2221
      5  PA         4.2520   17.6950   -1.6320 P.3   800  G3D800      0.2231
      6  O3A        5.7660   18.3780   -1.4910 O.3   800  G3D800     -0.2261
      7  O1A        3.8670   16.9390   -0.4010 O.3   800  G3D800     -0.4370
      8  O2A        3.3350   18.8380   -2.0170 O.2   800  G3D800     -0.5169
      9  O5'        4.5450   16.7060   -2.7950 O.3   800  G3D800     -0.3111
     10  C5'        4.9970   17.1700   -4.1010 C.3   800  G3D800      0.1812
     11  C4'        4.6010   16.3140   -5.2190 C.3   800  G3D800      0.1772
     12  O4'        5.1830   14.9510   -5.0000 O.3   800  G3D800     -0.3327
     13  C3'        3.0640   15.9740   -5.2970 C.3   800  G3D800      0.1902
     14  O3'        2.8090   15.7610   -6.7380 O.3   800  G3D800     -0.2674
     15  C2'        2.8600   14.6320   -4.5440 C.3   800  G3D800      0.2283
     16  O2'        1.6910   13.8420   -4.8090 O.3   800  G3D800     -0.2159
     17  C1'        4.1500   13.8690   -4.9290 C.3   800  G3D800      0.2292
     18  N9         4.6330   12.8570   -3.9620 N.pl3 800  G3D800     -0.2354
     19  C8         4.7350   13.2080   -2.5060 C.3   800  G3D800      0.2246
     20  N7         5.2240   11.9410   -2.1530 N.2   800  G3D800     -0.2322
     21  C5         5.4150   10.9900   -3.0730 C.2   800  G3D800      0.2182
     22  C6         5.8390    9.6640   -3.3180 C.1   800  G3D800      0.2372
     23  O6         6.2490    8.9760   -2.2500 O.2   800  G3D800     -0.2069
     24  N1         5.8600    9.0710   -4.5360 N.2   800  G3D800     -0.2485
     25  C2         5.3980    9.8730   -5.7130 C.1   800  G3D800      0.2531
     26  N2         5.4950    9.1200   -6.8020 N.pl3 800  G3D800     -0.0226
     27  N3         5.0080   11.0650   -5.5460 N.2   800  G3D800     -0.3074
     28  C4         5.0080   11.6090   -4.3170 C.2   800  G3D800      0.2300
     29  P1         1.4940   16.3530   -7.4470 P.3   800  G3D800      0.5327
     30  O4P        1.7410   17.7990   -7.6470 O.3   800  G3D800     -0.1145
     31  O5P        0.2680   15.9050   -6.7080 O.3   800  G3D800     -0.1145
     32  O6P        1.4890   15.6410   -8.8700 O.2   800  G3D800     -0.2224
@<TRIPOS>BOND
     1    32    29    2
     2    30    29    1
     3    29    14    1
     4    29    31    1
     5    26    25    1
     6    14    13    1
     7    25    27    2
     8    25    24    2
     9    27    28    2
    10    13    11    1
    11    13    15    1
    12    11    12    1
    13    11    10    1
    14    12    17    1
    15    17    15    1
    16    17    18    1
    17    16    15    1
    18    24    22    2
    19    28    18    1
    20    28    21    1
    21    10     9    1
    22    18    19    1
    23    22    21    1
    24    22    23    2
    25    21    20    2
    26     9     5    1
    27    19    20    1
    28     8     5    2
    29     5     6    1
    30     5     7    1
    31     6     1    1
    32     4     1    2
    33     1     2    1
    34     1     3    1
