@<TRIPOS>MOLECULE
1mr9_ACO_Z_1.pdb
 47 49 0 0 0
SMALL
GASTEIGER

@<TRIPOS>ATOM
      1  N1A       25.7640  130.8790   62.9100 N.2   304  ACO304      0.0021
      2  C2A       26.3760  131.7370   62.0600 C.3   304  ACO304      0.5254
      3  N3A       25.7010  132.6460   61.3260 N.2   304  ACO304     -0.0055
      4  C4A       24.3780  132.7460   61.4260 C.2   304  ACO304      0.3518
      5  C5A       23.6910  131.8690   62.3210 C.2   304  ACO304      0.2526
      6  C6A       24.4450  130.8920   63.0940 C.2   304  ACO304      0.4393
      7  N6A       23.8420  130.0380   63.9450 N.pl3 304  ACO304      0.2180
      8  N7A       22.3910  132.1270   62.2940 N.2   304  ACO304     -0.2095
      9  C8A       22.2320  133.1420   61.4040 C.3   304  ACO304      0.3377
     10  N9A       23.4410  133.4970   60.8720 N.pl3 304  ACO304     -0.1439
     11  C1B       23.7240  134.5870   59.9200 C.3   304  ACO304      0.3185
     12  C2B       22.9290  134.5390   58.6310 C.3   304  ACO304      0.2543
     13  O2B       23.5780  133.7450   57.6290 O.3   304  ACO304     -0.2131
     14  C3B       22.9190  135.9720   58.2440 C.3   304  ACO304      0.1928
     15  O3B       24.0620  136.2990   57.4900 O.3   304  ACO304     -0.2673
     16  P3B       24.0660  137.2210   56.2930 P.3   304  ACO304      0.5327
     17  O7A       23.3540  138.4390   56.8380 O.3   304  ACO304     -0.1145
     18  O8A       23.2980  136.3880   55.2950 O.2   304  ACO304     -0.2224
     19  O9A       25.0550  137.8750   55.3660 O.3   304  ACO304     -0.1145
     20  C4B       22.8850  136.7370   59.5280 C.3   304  ACO304      0.1795
     21  O4B       23.4050  135.8460   60.5200 O.3   304  ACO304     -0.3136
     22  C5B       21.4820  137.1600   59.9200 C.3   304  ACO304      0.1812
     23  O5B       20.6800  136.0070   60.1220 O.3   304  ACO304     -0.3112
     24  P1A       19.3500  136.1360   60.8060 P.3   304  ACO304      0.2189
     25  O1A       18.7040  136.6970   59.5710 O.2   304  ACO304     -0.5170
     26  O2A       18.8710  134.7690   61.2140 O.3   304  ACO304     -0.4371
     27  O3A       18.7350  137.1820   61.7090 O.3   304  ACO304     -0.2703
     28  P2A       18.4540  136.8830   63.1650 P.3   304  ACO304      0.2188
     29  O4A       18.9490  138.1470   63.8170 O.3   304  ACO304     -0.4371
     30  O5A       16.9610  136.6750   63.1190 O.2   304  ACO304     -0.5170
     31  O6A       18.8810  135.8400   64.1620 O.3   304  ACO304     -0.3138
     32  CBP       18.6330  133.8300   65.4850 C.3   304  ACO304      0.0645
     33  CCP       17.9370  134.8880   64.6380 C.3   304  ACO304      0.1519
     34  CDP       18.4880  134.1840   66.9570 C.3   304  ACO304      0.0056
     35  CEP       20.1070  133.7720   65.1360 C.3   304  ACO304      0.0056
     36  CAP       17.9930  132.4830   65.1980 C.3   304  ACO304      0.2312
     37  OAP       18.4730  131.9950   63.9440 O.3   304  ACO304     -0.2131
     38  C9P       18.3320  131.4820   66.2570 C.2   304  ACO304      0.2719
     39  O9P       19.4100  130.9300   66.2370 O.2   304  ACO304     -0.2706
     40  N8P       17.3970  131.2130   67.1640 N.am  304  ACO304     -0.2028
     41  C7P       17.4820  130.0390   68.0070 C.3   304  ACO304      0.1248
     42  C6P       16.5800  130.1600   69.2290 C.3   304  ACO304      0.1102
     43  C5P       16.1440  128.7920   69.6870 C.2   304  ACO304      0.2432
     44  O5P       16.7370  127.8060   69.3100 O.2   304  ACO304     -0.2733
     45  N4P       15.1050  128.7400   70.5120 N.am  304  ACO304     -0.2054
     46  C3P       14.7740  127.5370   71.2500 C.3   304  ACO304      0.1152
     47  C2P       14.0170  127.8640   72.5320 C.3   304  ACO304      0.0252
@<TRIPOS>BOND
     1    18    16    2
     2    19    16    1
     3    16    17    1
     4    16    15    1
     5    15    14    1
     6    13    12    1
     7    14    12    1
     8    14    20    1
     9    12    11    1
    10    20    22    1
    11    20    21    1
    12    25    24    2
    13    22    23    1
    14    11    21    1
    15    11    10    1
    16    23    24    1
    17    24    26    1
    18    24    27    1
    19    10     9    1
    20    10     4    1
    21     3     4    2
    22     3     2    1
    23     9     8    1
    24     4     5    1
    25    27    28    1
    26     2     1    1
    27     8     5    2
    28     5     6    1
    29     1     6    2
    30     6     7    1
    31    30    28    2
    32    28    29    1
    33    28    31    1
    34    37    36    1
    35    31    33    1
    36    33    32    1
    37    35    32    1
    38    36    32    1
    39    36    38    1
    40    32    34    1
    41    39    38    2
    42    38    40   am
    43    40    41    1
    44    41    42    1
    45    42    43    1
    46    44    43    2
    47    43    45   am
    48    45    46    1
    49    46    47    1
