@<TRIPOS>MOLECULE
1mra_APG_A_1.pdb
 12 12 0 0 0
SMALL
GASTEIGER

@<TRIPOS>ATOM
      1  C1        33.4110    5.1490   17.7690 C.ar  399  APG399     -0.0002
      2  C2        32.1250    5.2190   18.2850 C.ar  399  APG399     -0.0014
      3  C3        31.1130    4.4530   17.7220 C.ar  399  APG399      0.0155
      4  C4        31.3830    3.6350   16.6350 C.ar  399  APG399     -0.0014
      5  C5        32.6690    3.5710   16.1180 C.ar  399  APG399     -0.0002
      6  C6        33.6830    4.3250   16.6860 C.ar  399  APG399     -0.0000
      7  C12       29.6850    4.5290   18.2920 C.3   399  APG399      0.2376
      8  O17       28.8500    3.8100   17.3510 O.3   399  APG399     -0.2096
      9  C13       29.1780    5.9640   18.5380 C.2   399  APG399      0.3955
     10  C14       29.5990    3.7330   19.6110 C.3   399  APG399      0.0494
     11  O14       28.0340    6.1800   18.8210 O.co2 399  APG399     -0.2426
     12  O15       29.8870    6.9310   18.4760 O.co2 399  APG399     -0.2426
@<TRIPOS>BOND
     1     5     4   ar
     2     5     6   ar
     3     4     3   ar
     4     6     1   ar
     5     8     7    1
     6     3     2   ar
     7     3     7    1
     8     1     2   ar
     9     7     9    1
    10     7    10    1
    11    12     9   ar
    12     9    11   ar
