@<TRIPOS>MOLECULE
1mrd_IDP_L_1.pdb
 27 29 0 0 0
SMALL
GASTEIGER

@<TRIPOS>ATOM
      1  PB       -16.5750   15.3860   55.2980 P.3   901  IDP901      0.5373
      2  O1B      -15.5250   14.7630   56.1600 O.3   901  IDP901     -0.1143
      3  O2B      -17.7040   14.4590   54.9890 O.2   901  IDP901     -0.2221
      4  O3B      -17.0310   16.7280   55.7780 O.3   901  IDP901     -0.1143
      5  PA       -16.3650   15.9950   52.4060 P.3   901  IDP901      0.2231
      6  O1A      -15.5530   15.2720   51.3900 O.2   901  IDP901     -0.5169
      7  O2A      -16.4870   17.4670   52.3970 O.3   901  IDP901     -0.4370
      8  O3A      -15.8320   15.6230   53.8700 O.3   901  IDP901     -0.2261
      9  O5'      -17.8360   15.3570   52.2300 O.3   901  IDP901     -0.3111
     10  C5'      -19.0310   16.1370   52.0190 C.3   901  IDP901      0.1813
     11  C4'      -19.6860   15.9910   50.6420 C.3   901  IDP901      0.1821
     12  O4'      -19.7800   17.0860   49.7260 O.3   901  IDP901     -0.3135
     13  C3'      -19.6780   14.7410   49.7930 C.3   901  IDP901      0.2184
     14  O3'      -20.9360   14.4540   49.1980 O.3   901  IDP901     -0.2174
     15  C2'      -18.7310   15.1900   48.7320 C.3   901  IDP901      0.2570
     16  O2'      -18.7670   14.4230   47.5400 O.3   901  IDP901     -0.2130
     17  C1'      -18.9310   16.6900   48.6490 C.3   901  IDP901      0.3186
     18  N9       -17.6820   17.4480   48.5240 N.pl3 901  IDP901     -0.1435
     19  C8       -16.4680   16.9850   48.8560 C.3   901  IDP901      0.3382
     20  N7       -15.5170   17.7970   48.4080 N.2   901  IDP901     -0.2054
     21  C5       -16.1520   18.7990   47.8060 C.2   901  IDP901      0.2446
     22  C6       -15.5850   20.0240   47.1130 C.1   901  IDP901      0.1792
     23  O6       -14.4030   20.3170   46.9340 O.2   901  IDP901     -0.2203
     24  N1       -16.6170   20.8220   46.6720 N.2   901  IDP901     -0.1458
     25  C2       -17.9570   20.5960   46.8440 C.3   901  IDP901      0.4017
     26  N3       -18.4070   19.4760   47.3750 N.2   901  IDP901     -0.0334
     27  C4       -17.5300   18.5890   47.8690 C.2   901  IDP901      0.3528
@<TRIPOS>BOND
     1    24    25    1
     2    24    22    2
     3    25    26    1
     4    23    22    2
     5    22    21    1
     6    26    27    2
     7    16    15    1
     8    21    27    1
     9    21    20    2
    10    27    18    1
    11    20    19    1
    12    18    17    1
    13    18    19    1
    14    17    15    1
    15    17    12    1
    16    15    13    1
    17    14    13    1
    18    12    11    1
    19    13    11    1
    20    11    10    1
    21     6     5    2
    22    10     9    1
    23     9     5    1
    24     7     5    1
    25     5     8    1
    26     8     1    1
    27     3     1    2
    28     1     4    1
    29     1     2    1
