@<TRIPOS>MOLECULE
1mre_GDP_L_1.pdb
 28 30 0 0 0
SMALL
GASTEIGER

@<TRIPOS>ATOM
      1  PB       -17.2980   15.5680   54.9410 P.3   901  GDP901      0.5373
      2  O1B      -18.2840   14.4550   54.8900 O.3   901  GDP901     -0.1143
      3  O2B      -17.9090   16.9150   54.8790 O.2   901  GDP901     -0.2221
      4  O3B      -16.2690   15.4170   56.0070 O.3   901  GDP901     -0.1143
      5  O3A      -16.4510   15.4090   53.5580 O.3   901  GDP901     -0.2261
      6  PA       -16.6100   15.9660   52.0550 P.3   901  GDP901      0.2231
      7  O1A      -15.5470   15.4130   51.1840 O.2   901  GDP901     -0.5169
      8  O2A      -16.7910   17.4330   52.1090 O.3   901  GDP901     -0.4370
      9  O5'      -17.9680   15.2870   51.5570 O.3   901  GDP901     -0.3111
     10  C5'      -19.2530   15.8400   51.8780 C.3   901  GDP901      0.1813
     11  C4'      -20.0040   16.1180   50.5890 C.3   901  GDP901      0.1799
     12  O4'      -19.5060   17.1820   49.7780 O.3   901  GDP901     -0.3326
     13  C3'      -20.2920   15.0500   49.5570 C.3   901  GDP901      0.2158
     14  O3'      -21.3510   15.4450   48.6960 O.3   901  GDP901     -0.2175
     15  C2'      -18.9930   15.0420   48.7990 C.3   901  GDP901      0.2310
     16  O2'      -19.0240   14.3500   47.5620 O.3   901  GDP901     -0.2158
     17  C1'      -18.8210   16.5410   48.7020 C.3   901  GDP901      0.2293
     18  N9       -17.5340   17.0920   48.3160 N.pl3 901  GDP901     -0.2354
     19  C8       -16.3360   16.5170   48.4510 C.3   901  GDP901      0.2246
     20  N7       -15.4000   17.3360   47.9790 N.2   901  GDP901     -0.2322
     21  C5       -16.0340   18.4370   47.5560 C.2   901  GDP901      0.2182
     22  C6       -15.4930   19.7740   47.0490 C.1   901  GDP901      0.2372
     23  O6       -14.3390   20.1600   46.9100 O.2   901  GDP901     -0.2069
     24  N1       -16.5320   20.5870   46.6760 N.2   901  GDP901     -0.2485
     25  C2       -17.8780   20.2560   46.7260 C.1   901  GDP901      0.2531
     26  N2       -18.7430   21.1450   46.2350 N.pl3 901  GDP901     -0.0226
     27  N3       -18.3460   19.1170   47.2760 N.2   901  GDP901     -0.3074
     28  C4       -17.4090   18.2630   47.7290 C.2   901  GDP901      0.2300
@<TRIPOS>BOND
     1    26    25    1
     2    24    25    2
     3    24    22    2
     4    25    27    2
     5    23    22    2
     6    22    21    1
     7    27    28    2
     8    21    28    1
     9    21    20    2
    10    16    15    1
    11    28    18    1
    12    20    19    1
    13    18    19    1
    14    18    17    1
    15    14    13    1
    16    17    15    1
    17    17    12    1
    18    15    13    1
    19    13    11    1
    20    12    11    1
    21    11    10    1
    22     7     6    2
    23     9    10    1
    24     9     6    1
    25     6     8    1
    26     6     5    1
    27     5     1    1
    28     3     1    2
    29     2     1    1
    30     1     4    1
