@<TRIPOS>MOLECULE
1mrf_DI_L_1.pdb
 22 24 0 0 0
SMALL
GASTEIGER

@<TRIPOS>ATOM
      1  OP3      -15.3610   15.4520   51.2450 O.2   901  DI901      -0.2224
      2  P        -16.4090   15.9750   52.1460 P.3   901  DI901       0.5327
      3  OP1      -16.6790   17.4170   52.0040 O.3   901  DI901      -0.1145
      4  OP2      -16.3520   15.5420   53.5520 O.3   901  DI901      -0.1145
      5  O5'      -17.7500   15.2480   51.6450 O.3   901  DI901      -0.2675
      6  C5'      -19.0650   15.7630   51.9440 C.3   901  DI901       0.1859
      7  C4'      -19.7930   15.9000   50.6150 C.3   901  DI901       0.1796
      8  O4'      -19.6310   17.0940   49.8500 O.3   901  DI901      -0.3155
      9  C3'      -19.8510   14.7660   49.6080 C.3   901  DI901       0.1883
     10  O3'      -21.1220   14.1270   49.4800 O.3   901  DI901      -0.2202
     11  C2'      -19.1280   15.2360   48.3650 C.3   901  DI901       0.1151
     12  C1'      -18.9060   16.6850   48.7010 C.3   901  DI901       0.2874
     13  N9       -17.6320   17.3520   48.4590 N.pl3 901  DI901      -0.1457
     14  C8       -16.4320   16.8060   48.6530 C.3   901  DI901       0.3381
     15  N7       -15.5020   17.5220   48.0210 N.2   901  DI901      -0.2054
     16  C5       -16.1260   18.5350   47.4340 C.2   901  DI901       0.2446
     17  C6       -15.5630   19.8360   46.8870 C.1   901  DI901       0.1792
     18  O6       -14.3860   20.1940   46.8170 O.2   901  DI901      -0.2203
     19  N1       -16.5930   20.6970   46.5430 N.2   901  DI901      -0.1458
     20  C2       -17.9420   20.4660   46.6900 C.3   901  DI901       0.4017
     21  N3       -18.3630   19.3710   47.3070 N.2   901  DI901      -0.0334
     22  C4       -17.4850   18.4330   47.7050 C.2   901  DI901       0.3528
@<TRIPOS>BOND
     1    19    20    1
     2    19    17    2
     3    20    21    1
     4    18    17    2
     5    17    16    1
     6    21    22    2
     7    16    22    1
     8    16    15    2
     9    22    13    1
    10    15    14    1
    11    11    12    1
    12    11     9    1
    13    13    14    1
    14    13    12    1
    15    12     8    1
    16    10     9    1
    17     9     7    1
    18     8     7    1
    19     7     6    1
    20     1     2    2
    21     5     6    1
    22     5     2    1
    23     3     2    1
    24     2     4    1
