@<TRIPOS>MOLECULE
1mrg_ADN_A_1.pdb
 15 16 0 0 0
SMALL
GASTEIGER

@<TRIPOS>ATOM
      1  C1'       47.6270   99.6430   -4.1920 C.3   300  ADN300      0.1217
      2  N9        48.4370   99.0940   -4.4510 N.pl3 300  ADN300     -0.2401
      3  C8        49.6170   98.9970   -3.7470 C.2   300  ADN300      0.1437
      4  N7        50.6170   98.5600   -4.4540 N.2   300  ADN300     -0.3872
      5  C5        50.0720   98.4220   -5.7310 C.2   300  ADN300      0.2211
      6  C6        50.6520   98.1240   -6.9600 C.2   300  ADN300      0.2227
      7  N6        51.9360   97.9030   -7.0260 N.pl3 300  ADN300     -0.3300
      8  N1        49.8920   98.0910   -8.0920 N.2   300  ADN300     -0.3296
      9  C2        48.5800   98.3630   -7.9150 C.1   300  ADN300      0.0930
     10  N3        47.8720   98.6150   -6.7930 N.2   300  ADN300     -0.3288
     11  C4        48.7250   98.6550   -5.7220 C.2   300  ADN300      0.2340
     12  H8        49.6680   99.2410   -2.6930 H     300  ADN300      0.1149
     13 HN61       52.4970   98.0110   -6.1800 H     300  ADN300      0.1448
     14 HN62       52.3690   97.5750   -7.8780 H     300  ADN300      0.1448
     15  H2        48.0230   98.5270   -8.8390 H     300  ADN300      0.1751
@<TRIPOS>BOND
     1    15     9    1
     2     8     9    2
     3     8     6    2
     4     9    10    2
     5    14     7    1
     6     7     6    1
     7     7    13    1
     8     6     5    1
     9    10    11    2
    10     5    11    1
    11     5     4    2
    12    11     2    1
    13     4     3    2
    14     2     1    1
    15     2     3    1
    16     3    12    1
