@<TRIPOS>MOLECULE
1mrh_FMC_A_1.pdb
 32 34 0 0 0
SMALL
GASTEIGER

@<TRIPOS>ATOM
      1  N1        49.4910   98.1710   -7.5400 N.2   300  FMC300     -0.3348
      2  C2        48.1960   98.3150   -7.1710 C.1   300  FMC300      0.0906
      3  N3        47.7070   98.3710   -5.9020 N.2   300  FMC300     -0.3478
      4  C4        48.6940   98.2660   -4.8750 C.2   300  FMC300      0.1650
      5  C5        50.0150   98.2080   -5.2110 C.3   300  FMC300      0.2081
      6  C6        50.3980   98.1040   -6.5350 C.2   300  FMC300      0.1920
      7  N6        51.6580   97.9100   -6.8470 N.pl3 300  FMC300     -0.3339
      8  N7        50.6920   98.2810   -4.0850 N.pl3 300  FMC300     -0.2445
      9  N8        49.8940   98.3650   -2.9470 N.2   300  FMC300     -0.1847
     10  C9        48.6340   98.3220   -3.4330 C.2   300  FMC300      0.1267
     11  C1'       47.4060   98.4450   -2.5400 C.3   300  FMC300      0.1335
     12  C2'       46.5890   97.0990   -2.2950 C.3   300  FMC300      0.1153
     13  O2'       45.7430   96.7270   -3.3250 O.3   300  FMC300     -0.3862
     14  C3'       45.5030   97.6760   -1.4000 C.3   300  FMC300      0.1120
     15  O3'       44.6570   98.4750   -2.2320 O.3   300  FMC300     -0.3865
     16  C4'       46.4290   98.3580   -0.3030 C.3   300  FMC300      0.1109
     17  O4'       47.5850   98.8630   -1.1220 O.3   300  FMC300     -0.3595
     18  C5'       46.7600   97.2300    0.8030 C.3   300  FMC300      0.0729
     19  O5'       47.1160   97.6170    2.1660 O.3   300  FMC300     -0.3924
     20  H2        47.4970   98.4420   -7.9760 H     300  FMC300      0.1750
     21 HN61       52.3300   97.8900   -6.0780 H     300  FMC300      0.1445
     22 HN62       51.9680   97.7190   -7.7860 H     300  FMC300      0.1445
     23  H7        51.7000   98.2450   -4.0890 H     300  FMC300      0.1697
     24  H1'       46.7890   99.2110   -3.0350 H     300  FMC300      0.0690
     25  H2'       47.1830   96.3150   -1.8360 H     300  FMC300      0.0650
     26 HO2'       45.1440   97.4960   -3.3740 H     300  FMC300      0.2100
     27  H3'       44.8130   96.9280   -0.9920 H     300  FMC300      0.0647
     28 HO3'       43.8790   98.7390   -1.7010 H     300  FMC300      0.2100
     29  H4'       45.9430   99.1880    0.1940 H     300  FMC300      0.0646
     30 H5'1       47.5450   96.5620    0.4270 H     300  FMC300      0.0584
     31 H5'2       45.8720   96.6090    0.9840 H     300  FMC300      0.0584
     32 HO5'       46.3250   98.0370    2.5190 H     300  FMC300      0.2095
@<TRIPOS>BOND
     1    20     2    1
     2    22     7    1
     3     1     2    2
     4     1     6    2
     5     2     3    2
     6     7     6    1
     7     7    21    1
     8     6     5    1
     9     3     4    2
    10     5     4    1
    11     5     8    1
    12     4    10    1
    13    23     8    1
    14     8     9    1
    15    10     9    2
    16    10    11    1
    17    26    13    1
    18    13    12    1
    19    24    11    1
    20    11    12    1
    21    11    17    1
    22    12    25    1
    23    12    14    1
    24    15    28    1
    25    15    14    1
    26    14    27    1
    27    14    16    1
    28    17    16    1
    29    16    29    1
    30    16    18    1
    31    30    18    1
    32    18    31    1
    33    18    19    1
    34    19    32    1
