@<TRIPOS>MOLECULE
1mrj_ADN_A_1.pdb
 15 16 0 0 0
SMALL
GASTEIGER

@<TRIPOS>ATOM
      1  C1'       13.8500   -5.6850   40.1060 C.3   300  ADN300      0.1217
      2  N9        14.5790   -5.0920   39.7710 N.pl3 300  ADN300     -0.2401
      3  C8        15.7880   -4.9720   40.2970 C.2   300  ADN300      0.1437
      4  N7        16.2330   -3.7300   40.4180 N.2   300  ADN300     -0.3872
      5  C5        15.3140   -2.9930   39.6370 C.2   300  ADN300      0.2211
      6  C6        15.0800   -1.5990   39.4160 C.2   300  ADN300      0.2227
      7  N6        15.9480   -0.6110   39.6220 N.pl3 300  ADN300     -0.3300
      8  N1        13.8960   -1.2390   38.9200 N.2   300  ADN300     -0.3296
      9  C2        13.0100   -2.1400   38.6290 C.1   300  ADN300      0.0930
     10  N3        13.1140   -3.4920   38.6900 N.2   300  ADN300     -0.3288
     11  C4        14.3070   -3.8450   39.2290 C.2   300  ADN300      0.2340
     12  H8        16.3100   -5.8600   40.6270 H     300  ADN300      0.1149
     13 HN61       16.8420   -0.8700   40.0340 H     300  ADN300      0.1448
     14 HN62       15.7850    0.3440   39.3390 H     300  ADN300      0.1448
     15  H2        12.0920   -1.7100   38.2770 H     300  ADN300      0.1751
@<TRIPOS>BOND
     1    15     9    1
     2     9    10    2
     3     9     8    2
     4    10    11    2
     5     8     6    2
     6    11     5    1
     7    11     2    1
     8    14     7    1
     9     6     7    1
    10     6     5    1
    11     7    13    1
    12     5     4    2
    13     2     1    1
    14     2     3    1
    15     3     4    2
    16     3    12    1
