@<TRIPOS>MOLECULE
1mrk_FMC_A_1.pdb
 32 34 0 0 0
SMALL
GASTEIGER

@<TRIPOS>ATOM
      1  N1        15.3520   -0.8200   38.6070 N.2   300  FMC300     -0.3348
      2  C2        14.6950   -1.9030   39.0430 C.1   300  FMC300      0.0906
      3  N3        15.1290   -3.1500   39.1270 N.2   300  FMC300     -0.3478
      4  C4        16.4330   -3.2660   38.6900 C.2   300  FMC300      0.1650
      5  C5        17.1270   -2.2220   38.0810 C.3   300  FMC300      0.2081
      6  C6        16.5790   -0.9130   38.0870 C.2   300  FMC300      0.1920
      7  N6        17.2740    0.1670   37.7280 N.pl3 300  FMC300     -0.3339
      8  N7        18.3360   -2.7110   37.6900 N.pl3 300  FMC300     -0.2445
      9  N8        18.4240   -4.0470   37.9680 N.2   300  FMC300     -0.1847
     10  C9        17.2870   -4.4160   38.5600 C.2   300  FMC300      0.1267
     11  C1'       16.9810   -5.8540   38.9370 C.3   300  FMC300      0.1335
     12  C2'       15.4960   -6.0710   39.3420 C.3   300  FMC300      0.1153
     13  O2'       15.1730   -5.3460   40.5370 O.3   300  FMC300     -0.3862
     14  C3'       15.5310   -7.6480   39.2700 C.3   300  FMC300      0.1120
     15  O3'       16.5000   -8.2800   40.1350 O.3   300  FMC300     -0.3865
     16  C4'       16.0060   -7.7890   37.8080 C.3   300  FMC300      0.1109
     17  O4'       17.0920   -6.7810   37.8070 O.3   300  FMC300     -0.3595
     18  C5'       14.9470   -7.5880   36.6600 C.3   300  FMC300      0.0729
     19  O5'       13.7780   -8.4070   36.7490 O.3   300  FMC300     -0.3924
     20  H2        13.6700   -1.7290   39.3680 H     300  FMC300      0.1750
     21 HN61       18.2300    0.0660   37.4040 H     300  FMC300      0.1445
     22 HN62       16.8840    1.1000   37.8230 H     300  FMC300      0.1445
     23  H7        19.0190   -2.1620   37.1730 H     300  FMC300      0.1697
     24  H1'       17.6590   -6.1560   39.7390 H     300  FMC300      0.0690
     25  H2'       14.7820   -5.6860   38.6170 H     300  FMC300      0.0650
     26 HO2'       15.8490   -5.5630   41.1830 H     300  FMC300      0.2100
     27  H3'       14.5770   -8.1260   39.4780 H     300  FMC300      0.0647
     28 HO3'       16.0940   -9.0930   40.4500 H     300  FMC300      0.2100
     29  H4'       16.4850   -8.7780   37.7420 H     300  FMC300      0.0646
     30 H5'1       15.4570   -7.8370   35.7270 H     300  FMC300      0.0584
     31 H5'2       14.5200   -6.5900   36.6020 H     300  FMC300      0.0584
     32 HO5'       13.7520   -8.7410   37.6780 H     300  FMC300      0.2095
@<TRIPOS>BOND
     1    30    18    1
     2    31    18    1
     3    18    19    1
     4    18    16    1
     5    19    32    1
     6    23     8    1
     7    21     7    1
     8     8     9    1
     9     8     5    1
    10     7    22    1
    11     7     6    1
    12    29    16    1
    13    17    16    1
    14    17    11    1
    15    16    14    1
    16     9    10    2
    17     5     6    1
    18     5     4    1
    19     6     1    2
    20    10     4    1
    21    10    11    1
    22     1     2    2
    23    25    12    1
    24     4     3    2
    25    11    12    1
    26    11    24    1
    27     2     3    2
    28     2    20    1
    29    14    12    1
    30    14    27    1
    31    14    15    1
    32    12    13    1
    33    15    28    1
    34    13    26    1
