@<TRIPOS>MOLECULE
1mrl_DOL_A_1.pdb
 48 50 0 0 0
SMALL
GASTEIGER

@<TRIPOS>ATOM
      1  O7        26.0830   52.8290   56.9690 O.2   300  DOL300     -0.2673
      2  C6        26.5630   54.0940   56.6410 C.2   300  DOL300      0.2788
      3  N5        25.9730   55.2900   57.2510 N.am  300  DOL300     -0.2646
      4  C4        26.8120   56.3570   56.7010 C.3   300  DOL300      0.0961
      5  C3        27.9180   56.5330   57.7470 C.3   300  DOL300      0.0474
      6  C2        27.4330   55.8050   58.9890 C.3   300  DOL300      0.1598
      7  S39       27.7720   56.8120   60.4140 S.O2  300  DOL300     -0.0080
      8  O41       27.1440   58.4290   60.1010 O.2   300  DOL300     -0.1729
      9  O40       27.0210   56.1110   61.8450 O.2   300  DOL300     -0.1729
     10  C42       29.5420   56.8570   60.6360 C.3   300  DOL300      0.1681
     11  C43       30.1530   57.8870   59.6940 C.3   300  DOL300      0.0977
     12  N44       30.6840   58.8930   60.5980 N.3   300  DOL300     -0.2712
     13  C47       32.1140   59.1850   60.6040 C.3   300  DOL300      0.0722
     14  C48       32.4740   60.0820   59.4370 C.3   300  DOL300      0.0188
     15  C45       29.7720   59.5790   61.5050 C.3   300  DOL300      0.0722
     16  C46       30.1820   61.0230   61.6910 C.3   300  DOL300      0.0188
     17  C1        25.9610   55.7490   58.6570 C.3   300  DOL300      0.1970
     18  C8        27.6850   54.4130   55.6890 C.2   300  DOL300      0.2092
     19  C12       28.5250   55.6850   55.5030 C.3   300  DOL300      0.2708
     20  O11       29.1140   55.5760   54.1920 O.2   300  DOL300     -0.4467
     21  N9        27.6920   53.6570   54.4930 N.2   300  DOL300     -0.3673
     22  C10       28.6030   54.3590   53.6440 C.2   300  DOL300      0.2552
     23  C13       28.8390   53.7380   52.2940 C.3   300  DOL300      0.1318
     24  C14       27.5720   52.8840   52.2770 C.3   300  DOL300      0.1649
     25  O15       27.4570   51.8280   53.2360 O.3   300  DOL300     -0.2225
     26  C16       26.3850   53.1450   51.3550 C.3   300  DOL300      0.0663
     27  C17       25.1640   52.3790   51.8720 C.3   300  DOL300      0.1546
     28  O18       24.2350   52.1600   50.8080 O.3   300  DOL300     -0.2231
     29  C19       24.4900   53.1940   52.9670 C.3   300  DOL300      0.0330
     30  C20       23.5400   52.4040   53.8630 C.3   300  DOL300      0.0026
     31  C21       23.2890   50.9170   53.6410 C.3   300  DOL300      0.0001
     32  C22       22.5770   53.2370   54.6940 C.3   300  DOL300      0.0022
     33  C23       21.5040   52.4310   55.4070 C.3   300  DOL300      0.0272
     34  C24       20.6830   53.4480   56.1800 C.3   300  DOL300      0.1375
     35  N25       21.6340   54.2100   56.9550 N.2   300  DOL300     -0.2063
     36  C26       21.2590   54.8600   58.1860 C.1   300  DOL300      0.1260
     37  O27       19.8890   54.8050   58.5780 O.2   300  DOL300     -0.2270
     38  C28       22.0710   56.0560   58.6320 C.3   300  DOL300      0.1218
     39  C29       21.8750   56.2530   60.1240 C.3   300  DOL300      0.0212
     40  C30       22.7010   57.4600   60.5310 C.3   300  DOL300      0.0413
     41  C31       21.9080   58.2520   61.5710 C.3   300  DOL300      0.0037
     42  C32       24.1690   57.1680   60.9260 C.3   300  DOL300      0.1687
     43  C33       24.4700   57.6180   62.3630 C.3   300  DOL300      0.0402
     44  C35       24.9880   59.0520   62.4500 C.3   300  DOL300      0.0037
     45  C34       23.2890   57.4020   63.3060 C.3   300  DOL300      0.0037
     46  O36       24.5800   55.7860   60.8750 O.3   300  DOL300     -0.4511
     47  C37       24.9460   55.1390   59.6360 C.2   300  DOL300      0.3369
     48  O38       24.3040   53.8980   59.3200 O.2   300  DOL300     -0.2482
@<TRIPOS>BOND
     1    28    27    1
     2    26    27    1
     3    26    24    1
     4    27    29    1
     5    24    23    1
     6    24    25    1
     7    23    22    1
     8    29    30    1
     9    31    30    1
    10    22    20    1
    11    22    21    2
    12    30    32    1
    13    20    19    1
    14    21    18    2
    15    32    33    1
    16    33    34    1
    17    19    18    1
    18    18     2    1
    19    34    35    1
    20     2     1    2
    21     2     3   am
    22     4     3    1
    23     4     5    1
    24    35    36    2
    25     3    17    1
    26     5     6    1
    27    36    37    2
    28    36    38    1
    29    38    39    1
    30    17     6    1
    31    17    47    1
    32     6     7    1
    33    48    47    2
    34    14    13    1
    35    47    46    1
    36    11    12    1
    37    11    10    1
    38     8     7    2
    39    39    40    1
    40     7    10    1
    41     7     9    2
    42    40    42    1
    43    40    41    1
    44    12    13    1
    45    12    15    1
    46    46    42    1
    47    42    43    1
    48    15    16    1
    49    43    44    1
    50    43    45    1
