@<TRIPOS>MOLECULE
1mro_TP7_A_1.pdb
 21 20 0 0 0
SMALL
GASTEIGER

@<TRIPOS>ATOM
      1  N         23.4880   37.3280  -18.0370 N.am  9000  TP79000    -0.1930
      2  P         22.2780   41.6380  -17.9130 P.3   9000  TP79000     0.5326
      3  O1P       21.6910   41.9120  -19.2290 O.2   9000  TP79000    -0.2224
      4  O2P       21.3330   41.9480  -16.8420 O.3   9000  TP79000    -0.1145
      5  O3P       23.5620   42.3300  -17.7280 O.3   9000  TP79000    -0.1145
      6  O4P       22.5690   40.0240  -17.8320 O.3   9000  TP79000    -0.2704
      7  CB        21.7600   39.0040  -18.2560 C.3   9000  TP79000     0.1572
      8  C         23.3210   38.5940  -20.1430 C.2   9000  TP79000     0.3867
      9  O         22.6840   38.7520  -21.2220 O.co2 9000  TP79000    -0.2437
     10  OXT       24.5410   38.9230  -20.0010 O.co2 9000  TP79000    -0.2437
     11  CA        22.5710   37.9530  -18.9010 C.3   9000  TP79000     0.2251
     12  CG        21.0350   38.4480  -17.0490 C.3   9000  TP79000     0.0351
     13  O1        22.2870   35.4020  -17.8500 O.2   9000  TP79000    -0.2733
     14  C1        23.4120   35.9630  -17.7270 C.2   9000  TP79000     0.2419
     15  C2        24.5730   35.3340  -17.2840 C.3   9000  TP79000     0.0868
     16  C3        24.4140   33.8320  -16.9950 C.3   9000  TP79000     0.0096
     17  C4        25.5780   32.8750  -16.6840 C.3   9000  TP79000     0.0005
     18  C5        26.2560   33.3340  -15.3710 C.3   9000  TP79000     0.0009
     19  C6        25.3380   32.9830  -14.1790 C.3   9000  TP79000     0.0125
     20  C7        25.1580   31.5050  -14.1010 C.3   9000  TP79000     0.0687
     21  S7        24.0650   30.8900  -12.8030 S.3   9000  TP79000    -0.0821
@<TRIPOS>BOND
     1     9     8   ar
     2     8    10   ar
     3     8    11    1
     4     3     2    2
     5    11     7    1
     6    11     1    1
     7     7     6    1
     8     7    12    1
     9     1    14   am
    10     2     6    1
    11     2     5    1
    12     2     4    1
    13    13    14    2
    14    14    15    1
    15    15    16    1
    16    16    17    1
    17    17    18    1
    18    18    19    1
    19    19    20    1
    20    20    21    1
