@<TRIPOS>MOLECULE
1mrq_STR_A_1.pdb
 23 26 0 0 0
SMALL
GASTEIGER

@<TRIPOS>ATOM
      1  C1        -0.0940   35.7250   15.6970 C.3   501  STR501      0.0118
      2  C2        -1.4490   35.6910   14.9910 C.3   501  STR501      0.0694
      3  C3        -1.2970   34.9980   13.6580 C.2   501  STR501      0.1725
      4  O3        -2.0260   35.2970   12.7260 O.2   501  STR501     -0.2914
      5  C4        -0.2640   33.9580   13.4840 C.2   501  STR501      0.0289
      6  C5         0.6270   33.6590   14.4470 C.2   501  STR501     -0.0420
      7  C6         1.6390   32.5680   14.1480 C.3   501  STR501      0.0221
      8  C7         3.0380   32.9200   14.6440 C.3   501  STR501      0.0044
      9  C8         3.0050   33.4010   16.0910 C.3   501  STR501      0.0006
     10  C9         2.0720   34.6240   16.2350 C.3   501  STR501      0.0035
     11  C10        0.6210   34.3710   15.7920 C.3   501  STR501      0.0157
     12  C11        2.1360   35.2770   17.6280 C.3   501  STR501      0.0003
     13  C12        3.5520   35.4740   18.1780 C.3   501  STR501      0.0001
     14  C13        4.3820   34.2020   18.0670 C.3   501  STR501      0.0024
     15  C14        4.3970   33.7740   16.6090 C.3   501  STR501      0.0001
     16  C15        5.5520   32.7780   16.5140 C.3   501  STR501      0.0001
     17  C16        6.5760   33.3120   17.5210 C.3   501  STR501      0.0025
     18  C17        5.8640   34.3890   18.3490 C.3   501  STR501      0.0304
     19  C18        3.8120   33.1080   18.9870 C.3   501  STR501      0.0001
     20  C19       -0.1240   33.4850   16.7960 C.3   501  STR501      0.0041
     21  C20        6.1250   34.3040   19.8260 C.3   501  STR501      0.1520
     22  O20        7.1100   33.3320   20.1230 O.3   501  STR501     -0.2232
     23  C21        6.5350   35.6250   20.4000 C.3   501  STR501      0.0355
@<TRIPOS>BOND
     1     4     3    2
     2     5     3    1
     3     5     6    2
     4     3     2    1
     5     7     6    1
     6     7     8    1
     7     6    11    1
     8     8     9    1
     9     2     1    1
    10     1    11    1
    11    11    10    1
    12    11    20    1
    13     9    10    1
    14     9    15    1
    15    10    12    1
    16    16    15    1
    17    16    17    1
    18    15    14    1
    19    17    18    1
    20    12    13    1
    21    14    13    1
    22    14    18    1
    23    14    19    1
    24    18    21    1
    25    21    22    1
    26    21    23    1
