@<TRIPOS>MOLECULE
1mrq_NAP_A_1.pdb
 48 52 0 0 0
SMALL
GASTEIGER

@<TRIPOS>ATOM
      1  PA         9.9670   33.2810   28.6220 P.3   500  NAP500      0.2189
      2  O1A       10.8920   32.2290   28.1570 O.2   500  NAP500     -0.5170
      3  O2A       10.6070   34.5870   29.0800 O.3   500  NAP500     -0.4371
      4  O5B        9.1400   32.7140   29.8810 O.3   500  NAP500     -0.3112
      5  C5B        8.2700   31.6180   29.7720 C.3   500  NAP500      0.1813
      6  C4B        7.3620   31.5070   30.9970 C.3   500  NAP500      0.1820
      7  O4B        8.0910   31.6400   32.1960 O.3   500  NAP500     -0.3136
      8  C3B        6.2850   32.5720   31.0830 C.3   500  NAP500      0.2157
      9  O3B        5.1040   32.0860   30.4960 O.3   500  NAP500     -0.2175
     10  C2B        6.1410   32.8630   32.5770 C.3   500  NAP500      0.2314
     11  O2B        4.8660   32.5840   33.1180 O.3   500  NAP500     -0.2630
     12  C1B        7.1970   31.9850   33.2270 C.3   500  NAP500      0.3158
     13  N9A        7.9830   32.6790   34.2610 N.pl3 500  NAP500     -0.1439
     14  C8A        8.4600   33.9640   34.2350 C.3   500  NAP500      0.3377
     15  N7A        9.1580   34.1870   35.3680 N.2   500  NAP500     -0.2095
     16  C5A        9.1450   33.0630   36.1130 C.2   500  NAP500      0.2526
     17  C6A        9.6900   32.7400   37.3540 C.2   500  NAP500      0.4393
     18  N6A       10.4790   33.5960   37.9950 N.pl3 500  NAP500      0.2180
     19  N1A        9.4880   31.4720   37.8660 N.2   500  NAP500      0.0021
     20  C2A        8.7640   30.5320   37.1600 C.3   500  NAP500      0.5254
     21  N3A        8.2260   30.8550   35.9300 N.2   500  NAP500     -0.0055
     22  C4A        8.4110   32.1020   35.4260 C.2   500  NAP500      0.3518
     23  O3         8.7520   33.5750   27.5990 O.3   500  NAP500     -0.2703
     24  PN         8.7100   34.0000   26.0360 P.3   500  NAP500      0.2189
     25  O1N        8.8050   32.8000   25.1830 O.2   500  NAP500     -0.5170
     26  O2N        7.5150   34.8590   25.9210 O.3   500  NAP500     -0.4371
     27  O5D       10.0130   34.8880   25.7440 O.3   500  NAP500     -0.3112
     28  C5D       10.1550   36.1490   26.3800 C.3   500  NAP500      0.1813
     29  C4D        9.9430   37.3300   25.4410 C.3   500  NAP500      0.1799
     30  O4D       10.8540   37.2950   24.3600 O.3   500  NAP500     -0.3327
     31  C3D        8.5760   37.4000   24.7680 C.3   500  NAP500      0.2158
     32  O3D        7.5310   37.8190   25.6210 O.3   500  NAP500     -0.2175
     33  C2D        8.8590   38.3380   23.6200 C.3   500  NAP500      0.2309
     34  O2D        8.9510   39.6540   24.1120 O.3   500  NAP500     -0.2158
     35  C1D       10.2560   37.8920   23.2220 C.3   500  NAP500      0.2263
     36  N1N       10.1920   36.8970   22.1350 N.pl3 500  NAP500     -0.2787
     37  C2N       10.5950   37.3110   20.8990 C.3   500  NAP500      0.1244
     38  C3N       10.5650   36.4370   19.8260 C.2   500  NAP500      0.0544
     39  C7N       11.1860   36.8520   18.5270 C.2   500  NAP500      0.2818
     40  O7N       10.8890   36.1090   17.3890 O.2   500  NAP500     -0.2670
     41  N7N       12.0250   37.8870   18.4680 N.am  500  NAP500     -0.0839
     42  C4N       10.1280   35.1220   20.0180 C.2   500  NAP500      0.0033
     43  C5N        9.7280   34.7050   21.2860 C.2   500  NAP500      0.0157
     44  C6N        9.7720   35.6040   22.3470 C.2   500  NAP500      0.0633
     45  P2B        4.0770   33.7190   33.9570 P.3   500  NAP500      0.5328
     46  O1X        3.7410   34.8370   33.0450 O.2   500  NAP500     -0.2224
     47  O2X        2.7880   33.0800   34.5060 O.3   500  NAP500     -0.1145
     48  O3X        4.9460   34.2180   35.1220 O.3   500  NAP500     -0.1145
@<TRIPOS>BOND
     1    40    39    2
     2    41    39   am
     3    39    38    1
     4    38    42    2
     5    38    37    1
     6    42    43    1
     7    37    36    1
     8    43    44    2
     9    36    44    1
    10    36    35    1
    11    35    33    1
    12    35    30    1
    13    33    34    1
    14    33    31    1
    15    30    29    1
    16    31    29    1
    17    31    32    1
    18    25    24    2
    19    29    28    1
    20    27    24    1
    21    27    28    1
    22    26    24    1
    23    24    23    1
    24    23     1    1
    25     2     1    2
    26     1     3    1
    27     1     4    1
    28     5     4    1
    29     5     6    1
    30     9     8    1
    31     6     8    1
    32     6     7    1
    33     8    10    1
    34     7    12    1
    35    10    11    1
    36    10    12    1
    37    46    45    2
    38    11    45    1
    39    12    13    1
    40    45    47    1
    41    45    48    1
    42    14    13    1
    43    14    15    1
    44    13    22    1
    45    15    16    2
    46    22    21    2
    47    22    16    1
    48    21    20    1
    49    16    17    1
    50    20    19    1
    51    17    19    2
    52    17    18    1
