@<TRIPOS>MOLECULE
1mrs_5HU_A_1.pdb
 22 23 0 0 0
SMALL
GASTEIGER

@<TRIPOS>ATOM
      1  P         26.4290   15.2810    8.3730 P.3   217  5HU217      0.5327
      2  OP1       27.4210   14.8400    9.5550 O.3   217  5HU217     -0.1145
      3  OP2       25.5450   16.6390    8.8350 O.3   217  5HU217     -0.1145
      4  OP3       27.2720   15.6440    6.9850 O.2   217  5HU217     -0.2224
      5  O5'       25.3510   14.1790    8.1290 O.3   217  5HU217     -0.2675
      6  C5'       25.3440   13.0540    7.3450 C.3   217  5HU217      0.1858
      7  C4'       23.9370   12.4280    7.5210 C.3   217  5HU217      0.1774
      8  O4'       23.8310   11.0130    7.7110 O.3   217  5HU217     -0.3339
      9  C3'       22.9490   12.8970    8.6520 C.3   217  5HU217      0.1857
     10  O3'       21.4840   13.1190    8.4360 O.3   217  5HU217     -0.2203
     11  C2'       23.5020   11.9320    9.7490 C.3   217  5HU217      0.0874
     12  C1'       23.5510   10.6290    9.0420 C.3   217  5HU217      0.2090
     13  N1        24.5820    9.6320    9.3830 N.am  217  5HU217     -0.1793
     14  C2        24.0980    8.3690    9.6460 C.1   217  5HU217      0.2844
     15  O2        22.8300    8.1360    9.5760 O.2   217  5HU217     -0.1918
     16  N3        24.9180    7.3630    9.9780 N.2   217  5HU217     -0.2454
     17  C4        26.2480    7.5750   10.0590 C.1   217  5HU217      0.2159
     18  O4        27.0210    6.5500   10.3930 O.2   217  5HU217     -0.2087
     19  C5        26.8010    8.8510    9.7950 C.2   217  5HU217      0.1217
     20  C5A       28.2830    9.0410    9.8900 C.3   217  5HU217      0.2225
     21  C6        25.9230    9.8800    9.4540 C.2   217  5HU217      0.0903
     22  O5B       28.6390    8.8530    8.9170 O.3   217  5HU217     -0.2143
@<TRIPOS>BOND
     1     4     1    2
     2     6     7    1
     3     6     5    1
     4     7     8    1
     5     7     9    1
     6     8    12    1
     7     5     1    1
     8     1     3    1
     9     1     2    1
    10    10     9    1
    11     9    11    1
    12    22    20    1
    13    12    13    1
    14    12    11    1
    15    13    21    1
    16    13    14   am
    17    21    19    2
    18    15    14    2
    19    14    16    2
    20    19    20    1
    21    19    17    1
    22    16    17    2
    23    17    18    2
