@<TRIPOS>MOLECULE
1mru_AGS_A_1.pdb
 31 33 0 0 0
SMALL
GASTEIGER

@<TRIPOS>ATOM
      1  PG         0.2800   21.9250    8.9080 P.3   340  AGS340      0.4340
      2  S1G        0.0630   22.3720    6.9490 S.3   340  AGS340      0.0416
      3  O2G        1.8480   21.8620    9.2260 O.3   340  AGS340     -0.1305
      4  O3G       -0.3940   20.5770    9.1750 O.2   340  AGS340     -0.2423
      5  PB        -0.1810   23.0470   11.4910 P.3   340  AGS340      0.2262
      6  O1B       -1.4910   23.2860   12.0950 O.3   340  AGS340     -0.4369
      7  O2B        0.5800   21.7380   11.8410 O.2   340  AGS340     -0.5168
      8  O3B       -0.2680   23.0730    9.8880 O.3   340  AGS340     -0.2405
      9  PA         2.2090   24.3980   12.1200 P.3   340  AGS340      0.2189
     10  O1A        2.4940   23.8440   13.5610 O.3   340  AGS340     -0.4371
     11  O2A        3.0710   23.6280   11.1150 O.2   340  AGS340     -0.5170
     12  O3A        0.7280   24.2970   11.6920 O.3   340  AGS340     -0.2701
     13  O5'        2.4100   25.9970   12.1360 O.3   340  AGS340     -0.3112
     14  C5'        1.5340   26.8990   11.3590 C.3   340  AGS340      0.1813
     15  C4'        2.1770   28.2750   11.3860 C.3   340  AGS340      0.1821
     16  O4'        2.0530   28.7220   12.7370 O.3   340  AGS340     -0.3135
     17  C3'        3.6690   28.2430   11.1750 C.3   340  AGS340      0.2184
     18  O3'        4.1080   27.8990    9.8170 O.3   340  AGS340     -0.2174
     19  C2'        3.9740   29.5680   11.8860 C.3   340  AGS340      0.2570
     20  O2'        3.6740   30.7600   11.1370 O.3   340  AGS340     -0.2130
     21  C1'        3.1100   29.4920   13.0960 C.3   340  AGS340      0.3186
     22  N9         3.7490   28.8900   14.2890 N.pl3 340  AGS340     -0.1439
     23  C8         3.7690   27.6140   14.7560 C.3   340  AGS340      0.3377
     24  N7         4.4480   27.4730   15.8950 N.2   340  AGS340     -0.2095
     25  C5         4.8870   28.7500   16.1640 C.2   340  AGS340      0.2526
     26  C6         5.6610   29.2870   17.2350 C.2   340  AGS340      0.4393
     27  N6         6.1300   28.6750   18.2120 N.pl3 340  AGS340      0.2180
     28  N1         5.8750   30.6420   17.1180 N.2   340  AGS340      0.0021
     29  C2         5.4090   31.4370   16.0890 C.3   340  AGS340      0.5254
     30  N3         4.6880   30.9710   15.0860 N.2   340  AGS340     -0.0055
     31  C4         4.4620   29.6250   15.1790 C.2   340  AGS340      0.3518
@<TRIPOS>BOND
     1     2     1    1
     2     1     4    2
     3     1     3    1
     4     1     8    1
     5    18    17    1
     6     8     5    1
     7    11     9    2
     8    20    19    1
     9    17    15    1
    10    17    19    1
    11    14    15    1
    12    14    13    1
    13    15    16    1
    14     5    12    1
    15     5     7    2
    16     5     6    1
    17    12     9    1
    18    19    21    1
    19     9    13    1
    20     9    10    1
    21    16    21    1
    22    21    22    1
    23    22    23    1
    24    22    31    1
    25    23    24    1
    26    30    31    2
    27    30    29    1
    28    31    25    1
    29    24    25    2
    30    29    28    1
    31    25    26    1
    32    28    26    2
    33    26    27    1
