@<TRIPOS>MOLECULE
1mrw_K57_A_1.pdb
 37 39 0 0 0
SMALL
GASTEIGER

@<TRIPOS>ATOM
      1  C1        11.1140   17.7090   19.0530 C.ar  1001  K571001     0.0417
      2  C2        11.1960   18.3940   17.8240 C.ar  1001  K571001     0.0034
      3  C3        12.2820   19.2640   17.5690 C.ar  1001  K571001     0.0045
      4  C4        13.3080   19.4670   18.5420 C.ar  1001  K571001     0.0542
      5  C5        13.2250   18.7660   19.8070 C.ar  1001  K571001     0.0215
      6  C6        12.1150   17.8910   20.0360 C.ar  1001  K571001     0.1919
      7  C7        14.2760   18.9230   20.9010 C.3   1001  K571001     0.0345
      8  C8        14.4410   20.3890   18.2340 C.2   1001  K571001     0.2646
      9  O33       12.0080   17.2060   21.2310 O.3   1001  K571001    -0.2869
     10  O34       15.6250   20.0630   18.3350 O.2   1001  K571001    -0.2684
     11  C13       16.2980   24.7030   18.4790 C.2   1001  K571001     0.2589
     12  N9        14.1020   21.6370   17.8070 N.am  1001  K571001    -0.2000
     13  O26       16.3070   25.8310   18.0080 O.2   1001  K571001    -0.2720
     14  C12       15.0360   23.8360   18.2440 C.3   1001  K571001     0.2475
     15  C19       14.1780   22.0340   14.9940 C.ar  1001  K571001    -0.0204
     16  C11       15.1250   22.8580   15.8140 C.3   1001  K571001     0.0511
     17  C22       12.4840   20.3920   13.4020 C.ar  1001  K571001    -0.0000
     18  C10       15.1130   22.5980   17.3450 C.3   1001  K571001     0.1392
     19  O25       13.8140   24.2040   18.7960 O.3   1001  K571001    -0.2114
     20  C20       14.7280   21.0530   14.1260 C.ar  1001  K571001    -0.0042
     21  C24       12.7660   22.1920   15.0600 C.ar  1001  K571001    -0.0042
     22  C21       13.8870   20.2300   13.3280 C.ar  1001  K571001    -0.0003
     23  C23       11.9240   21.3750   14.2680 C.ar  1001  K571001    -0.0003
     24  C29       19.1420   24.5590   17.3600 C.2   1001  K571001     0.2602
     25  N14       17.4370   24.0970   19.0340 N.am  1001  K571001    -0.2602
     26  O32       18.9120   23.4900   16.7830 O.2   1001  K571001    -0.2715
     27  C15       18.7480   24.7560   18.8690 C.3   1001  K571001     0.1633
     28  C16       19.7330   24.1200   19.9070 C.3   1001  K571001     0.0661
     29  C18       17.5020   22.7580   19.6830 C.3   1001  K571001     0.1527
     30  C27       19.6190   24.7670   21.3030 C.3   1001  K571001     0.0131
     31  C28       21.2030   24.1520   19.4270 C.3   1001  K571001     0.0131
     32  S17       19.2360   22.4060   20.0420 S.3   1001  K571001    -0.1182
     33  N30       19.7290   25.6700   16.7930 N.am  1001  K571001    -0.2074
     34  C31       20.2020   25.8120   15.3920 C.3   1001  K571001     0.0788
     35  C35       20.7570   27.2410   15.2750 C.3   1001  K571001     0.0217
     36  C67       19.0310   25.6220   14.4000 C.3   1001  K571001     0.0217
     37  C71       21.3410   24.8010   15.0940 C.3   1001  K571001     0.0217
@<TRIPOS>BOND
     1    22    17   ar
     2    22    20   ar
     3    17    23   ar
     4    20    15   ar
     5    23    21   ar
     6    36    34    1
     7    15    21   ar
     8    15    16    1
     9    37    34    1
    10    35    34    1
    11    34    33    1
    12    16    18    1
    13    26    24    2
    14    33    24   am
    15    18    12    1
    16    18    14    1
    17    24    27    1
    18     3     2   ar
    19     3     4   ar
    20    12     8   am
    21     2     1   ar
    22    13    11    2
    23     8    10    2
    24     8     4    1
    25    14    11    1
    26    14    19    1
    27    11    25   am
    28     4     5   ar
    29    27    25    1
    30    27    28    1
    31    25    29    1
    32     1     6   ar
    33    31    28    1
    34    29    32    1
    35     5     6   ar
    36     5     7    1
    37    28    32    1
    38    28    30    1
    39     6     9    1
