@<TRIPOS>MOLECULE
1mrx_K57_B_1.pdb
 37 39 0 0 0
SMALL
GASTEIGER

@<TRIPOS>ATOM
      1  C1        10.8540   17.8030   18.9150 C.ar  1001  K571001     0.0417
      2  C2        10.8460   18.4860   17.6850 C.ar  1001  K571001     0.0034
      3  C3        11.9030   19.3690   17.3700 C.ar  1001  K571001     0.0045
      4  C4        12.9890   19.5810   18.2850 C.ar  1001  K571001     0.0542
      5  C5        12.9970   18.8820   19.5480 C.ar  1001  K571001     0.0215
      6  C6        11.9130   17.9960   19.8320 C.ar  1001  K571001     0.1919
      7  C7        14.1020   19.0350   20.5900 C.3   1001  K571001     0.0345
      8  C8        14.0800   20.5240   17.8970 C.2   1001  K571001     0.2646
      9  O33       11.8860   17.3100   21.0240 O.3   1001  K571001    -0.2869
     10  O34       15.2680   20.1750   17.8920 O.2   1001  K571001    -0.2684
     11  C13       16.1510   24.7410   18.2180 C.2   1001  K571001     0.2589
     12  N9        13.7210   21.7790   17.5260 N.am  1001  K571001    -0.2000
     13  O26       16.1730   25.8630   17.7130 O.2   1001  K571001    -0.2720
     14  C12       14.7910   24.0120   18.0640 C.3   1001  K571001     0.2475
     15  C19       14.1540   22.5370   14.6290 C.ar  1001  K571001    -0.0204
     16  C11       14.3450   23.5460   15.7420 C.3   1001  K571001     0.0511
     17  C22       14.0490   20.6920   12.4740 C.ar  1001  K571001    -0.0000
     18  C10       14.6400   22.8260   17.0820 C.3   1001  K571001     0.1392
     19  O25       13.6730   24.4750   18.7440 O.3   1001  K571001    -0.2114
     20  C20       15.2790   22.3390   13.7900 C.ar  1001  K571001    -0.0042
     21  C24       12.9640   21.8000   14.3820 C.ar  1001  K571001    -0.0042
     22  C21       15.2400   21.4220   12.7100 C.ar  1001  K571001    -0.0003
     23  C23       12.9140   20.8770   13.3040 C.ar  1001  K571001    -0.0003
     24  C29       19.0320   24.6000   17.1560 C.2   1001  K571001     0.2602
     25  N14       17.2660   24.0940   18.7350 N.am  1001  K571001    -0.2602
     26  O32       18.8890   23.5170   16.5900 O.2   1001  K571001    -0.2715
     27  C15       18.5740   24.7910   18.6420 C.3   1001  K571001     0.1633
     28  C16       19.5090   24.1940   19.7340 C.3   1001  K571001     0.0661
     29  C18       17.3560   22.7620   19.3800 C.3   1001  K571001     0.1527
     30  C27       19.2230   24.8250   21.1090 C.3   1001  K571001     0.0131
     31  C28       21.0220   24.3140   19.4160 C.3   1001  K571001     0.0131
     32  S17       19.0750   22.4510   19.8340 S.3   1001  K571001    -0.1182
     33  N30       19.5710   25.7230   16.5970 N.am  1001  K571001    -0.2074
     34  C31       20.0920   25.8960   15.2210 C.3   1001  K571001     0.0788
     35  C35       20.5710   27.3550   15.1520 C.3   1001  K571001     0.0217
     36  C67       18.9750   25.6600   14.1830 C.3   1001  K571001     0.0217
     37  C71       21.2910   24.9600   14.9330 C.3   1001  K571001     0.0217
@<TRIPOS>BOND
     1    17    22   ar
     2    17    23   ar
     3    22    20   ar
     4    23    21   ar
     5    20    15   ar
     6    36    34    1
     7    21    15   ar
     8    15    16    1
     9    37    34    1
    10    35    34    1
    11    34    33    1
    12    16    18    1
    13    26    24    2
    14    33    24   am
    15    18    12    1
    16    18    14    1
    17    24    27    1
    18     3     2   ar
    19     3     4   ar
    20    12     8   am
    21     2     1   ar
    22    13    11    2
    23    10     8    2
    24     8     4    1
    25    14    11    1
    26    14    19    1
    27    11    25   am
    28     4     5   ar
    29    27    25    1
    30    27    28    1
    31    25    29    1
    32     1     6   ar
    33    29    32    1
    34    31    28    1
    35     5     6   ar
    36     5     7    1
    37    28    32    1
    38    28    30    1
    39     6     9    1
