@<TRIPOS>MOLECULE
1ms0_DAN_A_1.pdb
 20 20 0 0 0
SMALL
GASTEIGER

@<TRIPOS>ATOM
      1  C1        34.6050  -15.8460    9.5840 C.2   700  DAN700      0.3914
      2  C2        33.7160  -16.1120   10.6570 C.3   700  DAN700      0.2203
      3  C3        34.2630  -16.3080   12.0560 C.3   700  DAN700      0.0760
      4  C4        33.2400  -16.9410   12.9940 C.3   700  DAN700      0.1773
      5  C5        32.3650  -17.8500   12.1730 C.3   700  DAN700      0.1552
      6  C6        31.6040  -16.9760   11.1970 C.3   700  DAN700      0.1710
      7  C7        30.6760  -17.8780   10.3660 C.3   700  DAN700      0.2134
      8  C8        29.6120  -17.0800    9.6470 C.3   700  DAN700      0.2173
      9  C9        28.7460  -18.0500    8.8490 C.3   700  DAN700      0.2175
     10  C10       31.2740  -19.9490   12.7040 C.2   700  DAN700      0.2420
     11  C11       32.3290  -20.5910   11.8400 C.3   700  DAN700      0.0964
     12  N5        31.4590  -18.6500   12.9840 N.am  700  DAN700     -0.2020
     13  O1A       34.8930  -16.8120    8.5800 O.co2 700  DAN700     -0.2430
     14  O1B       35.2100  -14.6830    9.4650 O.co2 700  DAN700     -0.2430
     15  O4        33.8740  -17.7210   13.9740 O.3   700  DAN700     -0.2211
     16  O6        32.4720  -16.1560   10.4120 O.3   700  DAN700     -0.3429
     17  O7        31.3590  -18.6980    9.4310 O.3   700  DAN700     -0.2176
     18  O8        28.8660  -16.3770   10.6120 O.3   700  DAN700     -0.2175
     19  O9        29.3810  -18.3560    7.6270 O.3   700  DAN700     -0.2175
     20  O10       30.1670  -20.6860   13.1810 O.2   700  DAN700     -0.2733
@<TRIPOS>BOND
     1    19     9    1
     2    13     1   ar
     3     9     8    1
     4    17     7    1
     5    14     1   ar
     6     1     2    1
     7     8     7    1
     8     8    18    1
     9     7     6    1
    10    16     2    1
    11    16     6    1
    12     2     3    1
    13     6     5    1
    14    11    10    1
    15     3     4    1
    16     5    12    1
    17     5     4    1
    18    10    12   am
    19    10    20    2
    20     4    15    1
