@<TRIPOS>MOLECULE
1ms0_LAT_A_1.pdb
 23 24 0 0 0
SMALL
GASTEIGER

@<TRIPOS>ATOM
      1  C1        38.5330  -19.7530    9.0190 C.3   702  LAT702      0.2695
      2  C2        37.1750  -19.4680    9.6560 C.3   702  LAT702      0.2406
      3  C3        37.1110  -18.1120   10.3510 C.3   702  LAT702      0.2198
      4  C4        38.3790  -17.7810   11.1240 C.3   702  LAT702      0.2144
      5  C5        39.6030  -18.1000   10.2770 C.3   702  LAT702      0.1835
      6  C6        40.9020  -17.8200   11.0230 C.3   702  LAT702      0.2142
      7  O1        38.5950  -21.1240    8.6830 O.3   702  LAT702     -0.3257
      8  O2        36.1620  -19.5150    8.6720 O.3   702  LAT702     -0.2149
      9  O3        36.0140  -18.1490   11.2360 O.3   702  LAT702     -0.2174
     10  O4        38.4120  -18.5500   12.3100 O.3   702  LAT702     -0.2176
     11  O5        39.5660  -19.4680    9.9340 O.3   702  LAT702     -0.3256
     12  O6        41.8800  -17.3730   10.1170 O.3   702  LAT702     -0.2176
     13  C1'       40.4500  -23.9000    6.2620 C.3   702  LAT702      0.3023
     14  C2'       41.4160  -22.9000    6.9040 C.3   702  LAT702      0.2433
     15  C3'       40.7150  -22.1500    8.0370 C.3   702  LAT702      0.2168
     16  C4'       39.3750  -21.5450    7.5760 C.3   702  LAT702      0.1804
     17  C5'       38.5290  -22.5580    6.7950 C.3   702  LAT702      0.1804
     18  C6'       37.2880  -21.8880    6.1790 C.3   702  LAT702      0.2141
     19  O1'       40.0790  -24.9170    7.1830 O.3   702  LAT702     -0.1869
     20  O2'       42.5800  -23.5520    7.3870 O.3   702  LAT702     -0.2148
     21  O3'       41.5960  -21.1710    8.5550 O.3   702  LAT702     -0.2175
     22  O5'       39.3000  -23.2070    5.7880 O.3   702  LAT702     -0.3237
     23  O6'       36.0960  -22.6030    6.4530 O.3   702  LAT702     -0.2176
@<TRIPOS>BOND
     1    22    13    1
     2    22    17    1
     3    18    23    1
     4    18    17    1
     5    13    14    1
     6    13    19    1
     7    17    16    1
     8    14    20    1
     9    14    15    1
    10    16    15    1
    11    16     7    1
    12    15    21    1
    13     8     2    1
    14     7     1    1
    15     1     2    1
    16     1    11    1
    17     2     3    1
    18    11     5    1
    19    12     6    1
    20     5     6    1
    21     5     4    1
    22     3     4    1
    23     3     9    1
    24     4    10    1
