@<TRIPOS>MOLECULE
1ms1_DAN_A_1.pdb
 20 20 0 0 0
SMALL
GASTEIGER

@<TRIPOS>ATOM
      1  C1        34.7240  -14.9060    9.7810 C.2   2700  DAN2700     0.3914
      2  C2        33.6300  -15.5100   10.4150 C.3   2700  DAN2700     0.2203
      3  C3        33.7070  -15.6960   11.9100 C.3   2700  DAN2700     0.0760
      4  C4        32.6360  -16.6180   12.4810 C.3   2700  DAN2700     0.1773
      5  C5        31.9590  -17.4400   11.3990 C.3   2700  DAN2700     0.1552
      6  C6        31.5430  -16.5110   10.2710 C.3   2700  DAN2700     0.1710
      7  C7        30.9030  -17.3680    9.1800 C.3   2700  DAN2700     0.2134
      8  C8        29.9670  -16.5840    8.2730 C.3   2700  DAN2700     0.2173
      9  C9        29.1560  -15.5660    9.0620 C.3   2700  DAN2700     0.2175
     10  C10       30.6900  -19.4460   11.9940 C.2   2700  DAN2700     0.2420
     11  C11       29.4140  -19.9850   12.5910 C.3   2700  DAN2700     0.0964
     12  N5        30.8050  -18.1220   11.9700 N.am  2700  DAN2700    -0.2020
     13  O1A       34.8090  -14.8040    8.3840 O.co2 2700  DAN2700    -0.2430
     14  O1B       35.7120  -14.4110   10.4820 O.co2 2700  DAN2700    -0.2430
     15  O4        33.2250  -17.5030   13.4030 O.3   2700  DAN2700    -0.2211
     16  O6        32.6640  -15.8590    9.6870 O.3   2700  DAN2700    -0.3429
     17  O7        31.9220  -17.9050    8.3650 O.3   2700  DAN2700    -0.2176
     18  O8        30.7430  -15.9570    7.2780 O.3   2700  DAN2700    -0.2175
     19  O9        28.8300  -16.0930   10.3260 O.3   2700  DAN2700    -0.2175
     20  O10       31.6960  -20.2890   11.4820 O.2   2700  DAN2700    -0.2733
@<TRIPOS>BOND
     1    18     8    1
     2     8     9    1
     3     8     7    1
     4    17     7    1
     5    13     1   ar
     6     9    19    1
     7     7     6    1
     8    16     6    1
     9    16     2    1
    10     1     2    1
    11     1    14   ar
    12     6     5    1
    13     2     3    1
    14     5    12    1
    15     5     4    1
    16    20    10    2
    17     3     4    1
    18    12    10   am
    19    10    11    1
    20     4    15    1
