@<TRIPOS>MOLECULE
1ms6_BLN_A_1.pdb
 29 30 0 0 0
SMALL
GASTEIGER

@<TRIPOS>ATOM
      1  C1        50.6790   28.9840   61.6690 C.2   281  BLN281      0.3238
      2  C2        51.5670   29.6310   63.8690 C.3   281  BLN281      0.1271
      3  C3        51.9100   28.8360   65.1330 C.3   281  BLN281      0.1637
      4  C5        53.0600   27.1730   63.9000 C.3   281  BLN281      0.1637
      5  C6        52.7050   27.8160   62.5460 C.3   281  BLN281      0.1271
      6  O1        49.7790   29.8170   61.7760 O.2   281  BLN281     -0.2508
      7  O2        53.1520   28.1550   64.9360 O.3   281  BLN281     -0.3501
      8  N1        51.6160   28.7890   62.6490 N.am  281  BLN281     -0.2577
      9  N         50.7880   28.2580   60.5550 N.am  281  BLN281     -0.1808
     10  CA        49.7920   28.4250   59.4840 C.3   281  BLN281      0.1743
     11  CB        50.1930   27.6390   58.2310 C.3   281  BLN281      0.0312
     12  CG        51.5050   28.0890   57.5760 C.3   281  BLN281      0.0022
     13  CD1       51.8320   27.1980   56.3670 C.3   281  BLN281      0.0001
     14  CD2       51.3720   29.5510   57.1330 C.3   281  BLN281      0.0001
     15  C         48.4770   27.8970   60.0640 C.2   281  BLN281      0.2616
     16  O         48.4680   26.8420   60.6850 O.2   281  BLN281     -0.2715
     17  CB'       45.3500   29.4450   60.9580 C.3   281  BLN281      0.1703
     18  N'        47.3700   28.6100   59.8570 N.am  281  BLN281     -0.1969
     19  OG        45.0790   30.2630   59.8400 O.3   281  BLN281     -0.3468
     20  CD        44.7860   31.6030   60.2230 C.3   281  BLN281      0.1687
     21  C1'       44.0390   32.2400   59.0900 C.ar  281  BLN281      0.0073
     22  C2'       42.6600   32.1650   59.0270 C.ar  281  BLN281     -0.0019
     23  C3'       41.9580   32.7470   57.9610 C.ar  281  BLN281     -0.0002
     24  C4'       42.6480   33.4100   56.9550 C.ar  281  BLN281     -0.0000
     25  C5'       44.0350   33.4920   57.0070 C.ar  281  BLN281     -0.0002
     26  C6'       44.7230   32.9080   58.0710 C.ar  281  BLN281     -0.0019
     27  C'        45.1930   27.3610   59.6000 C.2   281  BLN281      0.1197
     28  N40       43.8980   27.1820   59.8160 N.2   281  BLN281     -0.1495
     29  CA'       46.0970   28.2030   60.4770 C.3   281  BLN281      0.1676
@<TRIPOS>BOND
     1    13    12    1
     2    24    25   ar
     3    24    23   ar
     4    25    26   ar
     5    14    12    1
     6    12    11    1
     7    23    22   ar
     8    26    21   ar
     9    11    10    1
    10    22    21   ar
    11    21    20    1
    12    10    15    1
    13    10     9    1
    14    27    28    2
    15    27    29    1
    16    19    20    1
    17    19    17    1
    18    18    15   am
    19    18    29    1
    20    15    16    2
    21    29    17    1
    22     9     1   am
    23     1     6    2
    24     1     8   am
    25     5     8    1
    26     5     4    1
    27     8     2    1
    28     2     3    1
    29     4     7    1
    30     7     3    1
