@<TRIPOS>MOLECULE
1ms7_SHI_A_1.pdb
 12 12 0 0 0
SMALL
GASTEIGER

@<TRIPOS>ATOM
      1  O1        11.1980   24.9750    8.4310 O.2   2001  SHI2001    -0.3405
      2  N2        11.4760   26.3750    8.5270 N.2   2001  SHI2001    -0.0004
      3  C5        11.2160   24.6430    7.1180 C.2   2001  SHI2001     0.2204
      4  C4        11.4710   25.7030    6.3330 C.2   2001  SHI2001     0.1059
      5  C3        11.6730   26.7960    7.2770 C.1   2001  SHI2001     0.1884
      6  O31       11.9940   27.9860    7.0250 O.2   2001  SHI2001    -0.2193
      7  C41       11.5530   25.8350    4.8320 C.3   2001  SHI2001     0.0722
      8  C42       10.2310   26.2520    4.1260 C.3   2001  SHI2001     0.1995
      9  N1         9.1760   25.1970    4.3250 N.3   2001  SHI2001    -0.1204
     10  C43       10.5620   26.5230    2.6110 C.2   2001  SHI2001     0.3822
     11  O41        9.8850   25.8630    1.7630 O.co2 2001  SHI2001    -0.2440
     12  O42       11.4500   27.3790    2.3200 O.co2 2001  SHI2001    -0.2440
@<TRIPOS>BOND
     1    11    10   ar
     2    12    10   ar
     3    10     8    1
     4     8     9    1
     5     8     7    1
     6     7     4    1
     7     4     3    2
     8     4     5    1
     9     6     5    2
    10     3     1    1
    11     5     2    2
    12     1     2    1
