@<TRIPOS>MOLECULE
1ms8_DAN_A_1.pdb
 20 20 0 0 0
SMALL
GASTEIGER

@<TRIPOS>ATOM
      1  C1        39.9360   60.2330  -35.3850 C.2   700  DAN700      0.4208
      2  C2        40.2980   61.5020  -35.7900 C.2   700  DAN700      0.2163
      3  C3        39.3740   62.6760  -35.5960 C.2   700  DAN700      0.0518
      4  C4        39.6700   63.8940  -36.4460 C.3   700  DAN700      0.2007
      5  C5        40.8320   63.7620  -37.4180 C.3   700  DAN700      0.1722
      6  C6        41.9650   62.9780  -36.7750 C.3   700  DAN700      0.2215
      7  C7        43.2230   62.8950  -37.6520 C.3   700  DAN700      0.2261
      8  C8        44.4820   62.9410  -36.7650 C.3   700  DAN700      0.2185
      9  C9        45.6880   63.3360  -37.6230 C.3   700  DAN700      0.2175
     10  C10       41.4720   65.5420  -39.0970 C.2   700  DAN700      0.2420
     11  C11       42.1130   66.8750  -39.3050 C.3   700  DAN700      0.0964
     12  N5        41.4560   65.0320  -37.8180 N.am  700  DAN700     -0.2004
     13  O1A       40.6530   59.2200  -35.5750 O.co2 700  DAN700     -0.2371
     14  O1B       38.8460   60.0410  -34.8300 O.co2 700  DAN700     -0.2371
     15  O4        38.4870   64.2030  -37.1340 O.3   700  DAN700     -0.2162
     16  O6        41.5550   61.6520  -36.4850 O.2   700  DAN700     -0.4684
     17  O7        43.1810   61.6700  -38.3780 O.3   700  DAN700     -0.2164
     18  O8        44.3640   63.9300  -35.7190 O.3   700  DAN700     -0.2174
     19  O9        46.2820   62.2660  -38.2740 O.3   700  DAN700     -0.2175
     20  O10       40.9940   64.9100  -40.0730 O.2   700  DAN700     -0.2733
@<TRIPOS>BOND
     1    20    10    2
     2    11    10    1
     3    10    12   am
     4    17     7    1
     5    19     9    1
     6    12     5    1
     7     7     6    1
     8     7     8    1
     9     9     8    1
    10     5     6    1
    11     5     4    1
    12    15     4    1
    13     6    16    1
    14     8    18    1
    15    16     2    1
    16     4     3    1
    17     2     3    2
    18     2     1    1
    19    13     1   ar
    20     1    14   ar
