@<TRIPOS>MOLECULE
1ms9_LAT_A_1.pdb
 23 24 0 0 0
SMALL
GASTEIGER

@<TRIPOS>ATOM
      1  C1        37.3410   57.9440  -40.3030 C.3   2922  LAT2922     0.2695
      2  C2        38.0370   59.2100  -39.7640 C.3   2922  LAT2922     0.2406
      3  C3        37.6710   59.5670  -38.3400 C.3   2922  LAT2922     0.2198
      4  C4        36.1550   59.4870  -38.2140 C.3   2922  LAT2922     0.2144
      5  C5        35.6920   58.1270  -38.6970 C.3   2922  LAT2922     0.1835
      6  C6        34.2300   57.8520  -38.3840 C.3   2922  LAT2922     0.2142
      7  O1        37.5910   57.9660  -41.6840 O.3   2922  LAT2922    -0.3257
      8  O2        39.4460   59.0800  -39.8360 O.3   2922  LAT2922    -0.2149
      9  O3        38.1070   60.8890  -37.9760 O.3   2922  LAT2922    -0.2174
     10  O4        35.6010   60.6000  -38.9180 O.3   2922  LAT2922    -0.2176
     11  O5        35.9270   57.9810  -40.0960 O.3   2922  LAT2922    -0.3256
     12  O6        33.8520   56.6150  -38.9230 O.3   2922  LAT2922    -0.2176
     13  C1'       36.8590   55.6480  -45.0100 C.3   2922  LAT2922     0.3023
     14  C2'       36.0950   55.2290  -43.7550 C.3   2922  LAT2922     0.2433
     15  C3'       36.1190   56.3670  -42.7280 C.3   2922  LAT2922     0.2168
     16  C4'       37.5530   56.7610  -42.4550 C.3   2922  LAT2922     0.1804
     17  C5'       38.2850   57.0410  -43.7870 C.3   2922  LAT2922     0.1804
     18  C6'       39.7360   57.4230  -43.5570 C.3   2922  LAT2922     0.2141
     19  O1'       36.8850   54.6660  -46.0220 O.3   2922  LAT2922    -0.1869
     20  O2'       34.7400   54.9580  -44.1180 O.3   2922  LAT2922    -0.2148
     21  O3'       35.4780   56.0200  -41.4880 O.3   2922  LAT2922    -0.2175
     22  O5'       38.2040   55.9160  -44.6800 O.3   2922  LAT2922    -0.3237
     23  O6'       40.3990   57.6070  -44.8050 O.3   2922  LAT2922    -0.2176
@<TRIPOS>BOND
     1    19    13    1
     2    13    22    1
     3    13    14    1
     4    23    18    1
     5    22    17    1
     6    20    14    1
     7    17    18    1
     8    17    16    1
     9    14    15    1
    10    15    16    1
    11    15    21    1
    12    16     7    1
    13     7     1    1
    14     1    11    1
    15     1     2    1
    16    11     5    1
    17     8     2    1
    18     2     3    1
    19    12     6    1
    20    10     4    1
    21     5     6    1
    22     5     4    1
    23     3     4    1
    24     3     9    1
