@<TRIPOS>MOLECULE
1msa_MMA_A_1.pdb
 13 13 0 0 0
SMALL
GASTEIGER

@<TRIPOS>ATOM
      1  C1        69.2440   59.4690   46.9970 C.3   110  MMA110      0.2695
      2  C2        69.9340   58.4960   46.0370 C.3   110  MMA110      0.2406
      3  C3        68.9260   57.8710   45.0850 C.3   110  MMA110      0.2198
      4  C4        67.7920   57.2260   45.8670 C.3   110  MMA110      0.2144
      5  C5        67.1690   58.2190   46.8420 C.3   110  MMA110      0.1835
      6  C6        66.1840   57.5220   47.7830 C.3   110  MMA110      0.2142
      7  C7        68.2660   61.6680   47.0920 C.3   110  MMA110      0.1769
      8  O1        68.8120   60.5890   46.3040 O.3   110  MMA110     -0.3259
      9  O2        70.5770   57.4800   46.7930 O.3   110  MMA110     -0.2149
     10  O3        69.5560   56.8610   44.3050 O.3   110  MMA110     -0.2174
     11  O4        66.8030   56.7700   44.9510 O.3   110  MMA110     -0.2176
     12  O5        68.1480   58.8580   47.6640 O.3   110  MMA110     -0.3256
     13  O6        65.8710   58.3720   48.8750 O.3   110  MMA110     -0.2176
@<TRIPOS>BOND
     1    10     3    1
     2    11     4    1
     3     3     4    1
     4     3     2    1
     5     4     5    1
     6     2     9    1
     7     2     1    1
     8     8     1    1
     9     8     7    1
    10     5    12    1
    11     5     6    1
    12     1    12    1
    13     6    13    1
