@<TRIPOS>MOLECULE
1msk_SAM_A_1.pdb
 27 29 0 0 0
SMALL
GASTEIGER

@<TRIPOS>ATOM
      1  N         10.3280   21.1370   14.0020 N.3   1301  SAM1301    -0.1208
      2  CA         9.6530   19.9080   13.7450 C.3   1301  SAM1301     0.1952
      3  C          8.5250   20.1480   12.8000 C.2   1301  SAM1301     0.3819
      4  O          7.9850   21.2690   12.7990 O.co2 1301  SAM1301    -0.2441
      5  OXT        8.1380   19.2260   12.0450 O.co2 1301  SAM1301    -0.2441
      6  CB         9.0320   19.3040   15.0140 C.3   1301  SAM1301     0.0414
      7  CG         8.0740   18.1370   14.7390 C.3   1301  SAM1301     0.0503
      8  SD         8.9850   16.6500   14.2270 S.3   1301  SAM1301    -0.1761
      9  CE         7.6870   15.5760   13.6340 C.3   1301  SAM1301     0.0590
     10  C5'        9.5100   15.7820   15.7920 C.3   1301  SAM1301     0.0806
     11  C4'        8.3490   15.0600   16.5580 C.3   1301  SAM1301     0.1622
     12  O4'        8.0080   13.7450   16.0150 O.3   1301  SAM1301    -0.3153
     13  C3'        8.6590   14.8280   18.0390 C.3   1301  SAM1301     0.2168
     14  O3'        8.4400   16.0260   18.8090 O.3   1301  SAM1301    -0.2175
     15  C2'        7.7610   13.6230   18.3880 C.3   1301  SAM1301     0.2569
     16  O2'        6.4200   13.9850   18.6630 O.3   1301  SAM1301    -0.2130
     17  C1'        7.7580   12.7850   17.1030 C.3   1301  SAM1301     0.3185
     18  N9         8.8640   11.7820   17.0370 N.pl3 1301  SAM1301    -0.1439
     19  C8        10.0120   11.9170   16.3090 C.3   1301  SAM1301     0.3377
     20  N7        10.8350   10.9120   16.4110 N.2   1301  SAM1301    -0.2095
     21  C5        10.1800   10.0390   17.2650 C.2   1301  SAM1301     0.2526
     22  C6        10.5340    8.7140   17.7430 C.2   1301  SAM1301     0.4393
     23  N6        11.6390    8.0660   17.3670 N.pl3 1301  SAM1301     0.2180
     24  N1         9.6310    8.1470   18.5450 N.2   1301  SAM1301     0.0021
     25  C2         8.4890    8.7530   18.8620 C.3   1301  SAM1301     0.5254
     26  N3         8.0660    9.9590   18.4720 N.2   1301  SAM1301    -0.0055
     27  C4         8.9680   10.5540   17.6700 C.2   1301  SAM1301     0.3518
@<TRIPOS>BOND
     1     5     3   ar
     2     4     3   ar
     3     3     2    1
     4     9     8    1
     5     2     1    1
     6     2     6    1
     7     8     7    1
     8     8    10    1
     9     7     6    1
    10    10    11    1
    11    12    11    1
    12    12    17    1
    13    19    20    1
    14    19    18    1
    15    20    21    2
    16    11    13    1
    17    18    17    1
    18    18    27    1
    19    17    15    1
    20    21    27    1
    21    21    22    1
    22    23    22    1
    23    27    26    2
    24    22    24    2
    25    13    15    1
    26    13    14    1
    27    15    16    1
    28    26    25    1
    29    24    25    1
