@<TRIPOS>MOLECULE
1msm_JE2_B_1.pdb
 41 44 0 0 0
SMALL
GASTEIGER

@<TRIPOS>ATOM
      1  C3        11.0870   17.6810   19.1870 C.ar  1001  JE21001     0.0417
      2  C4        11.1600   18.3330   17.9470 C.ar  1001  JE21001     0.0034
      3  C5        12.2200   19.2280   17.6880 C.ar  1001  JE21001     0.0045
      4  C6        13.2250   19.4840   18.6690 C.ar  1001  JE21001     0.0542
      5  C7        13.1490   18.8170   19.9430 C.ar  1001  JE21001     0.0215
      6  C1        12.0660   17.9180   20.1730 C.ar  1001  JE21001     0.1919
      7  C8        14.1770   19.0330   21.0450 C.3   1001  JE21001     0.0345
      8  C9        14.3140   20.4260   18.3250 C.2   1001  JE21001     0.2646
      9  O2        11.9660   17.2650   21.3720 O.3   1001  JE21001    -0.2869
     10  O10       15.5100   20.1290   18.4130 O.2   1001  JE21001    -0.2684
     11  C22       16.3500   24.4590   18.5220 C.2   1001  JE21001     0.2589
     12  N11       13.9020   21.6620   17.8960 N.am  1001  JE21001    -0.2000
     13  O23       16.3110   25.6330   18.1470 O.2   1001  JE21001    -0.2720
     14  C20       15.0240   23.6720   18.6270 C.3   1001  JE21001     0.2475
     15  C14       13.9980   22.2990   15.0850 C.ar  1001  JE21001    -0.0204
     16  C13       14.2380   23.3430   16.1530 C.3   1001  JE21001     0.0511
     17  C17       13.4930   20.3240   13.1030 C.ar  1001  JE21001    -0.0000
     18  C12       14.8130   22.7050   17.4490 C.3   1001  JE21001     0.1392
     19  O21       13.9550   24.5840   18.6560 O.3   1001  JE21001    -0.2114
     20  C15       15.0720   21.7190   14.3640 C.ar  1001  JE21001    -0.0042
     21  C19       12.6680   21.8800   14.8060 C.ar  1001  JE21001    -0.0042
     22  C16       14.8240   20.7370   13.3770 C.ar  1001  JE21001    -0.0003
     23  C18       12.4140   20.8960   13.8190 C.ar  1001  JE21001    -0.0003
     24  C31       19.4050   24.2990   17.4800 C.2   1001  JE21001     0.2606
     25  N24       17.5050   23.8090   18.8830 N.am  1001  JE21001    -0.2602
     26  O32       19.1540   23.2590   16.8780 O.2   1001  JE21001    -0.2715
     27  C30       18.7820   24.5770   18.8680 C.3   1001  JE21001     0.1633
     28  C27       19.6690   24.1440   20.0950 C.3   1001  JE21001     0.0661
     29  C25       17.4790   22.9050   20.0740 C.3   1001  JE21001     0.1527
     30  C28       19.3770   24.9630   21.3740 C.3   1001  JE21001     0.0131
     31  C29       21.1890   24.1680   19.7940 C.3   1001  JE21001     0.0131
     32  S26       19.1840   22.4500   20.3600 S.3   1001  JE21001    -0.1182
     33  N33       20.2120   25.2820   17.0280 N.am  1001  JE21001    -0.1992
     34  C34       20.8690   25.1620   15.7380 C.3   1001  JE21001     0.1412
     35  C35       20.6350   26.3790   14.8860 C.ar  1001  JE21001    -0.0045
     36  C36       19.3680   26.6570   14.2570 C.ar  1001  JE21001    -0.0241
     37  C37       19.2350   27.8290   13.4680 C.ar  1001  JE21001    -0.0045
     38  C38       20.3250   28.7150   13.3010 C.ar  1001  JE21001    -0.0003
     39  C39       21.5650   28.4450   13.9180 C.ar  1001  JE21001    -0.0003
     40  C40       21.7170   27.2840   14.7060 C.ar  1001  JE21001    -0.0029
     41  C41       18.1610   25.7500   14.3960 C.3   1001  JE21001     0.0308
@<TRIPOS>BOND
     1    17    22   ar
     2    17    23   ar
     3    38    37   ar
     4    38    39   ar
     5    22    20   ar
     6    37    36   ar
     7    23    21   ar
     8    39    40   ar
     9    36    41    1
    10    36    35   ar
    11    20    15   ar
    12    40    35   ar
    13    21    15   ar
    14    35    34    1
    15    15    16    1
    16    34    33    1
    17    16    18    1
    18    26    24    2
    19    33    24   am
    20    18    12    1
    21    18    14    1
    22    24    27    1
    23     3     2   ar
    24     3     4   ar
    25    12     8   am
    26     2     1   ar
    27    13    11    2
    28     8    10    2
    29     8     4    1
    30    11    14    1
    31    11    25   am
    32    14    19    1
    33     4     5   ar
    34    27    25    1
    35    27    28    1
    36    25    29    1
    37     1     6   ar
    38    31    28    1
    39     5     6   ar
    40     5     7    1
    41    29    32    1
    42    28    32    1
    43    28    30    1
    44     6     9    1
