@<TRIPOS>MOLECULE
1msn_JE2_B_1.pdb
 41 44 0 0 0
SMALL
GASTEIGER

@<TRIPOS>ATOM
      1  C3        10.3500   18.0310   18.6630 C.ar  1001  JE21001     0.0417
      2  C4        10.3960   18.7610   17.4600 C.ar  1001  JE21001     0.0034
      3  C5        11.5060   19.5930   17.1860 C.ar  1001  JE21001     0.0045
      4  C6        12.5940   19.6940   18.1060 C.ar  1001  JE21001     0.0542
      5  C7        12.5390   18.9480   19.3440 C.ar  1001  JE21001     0.0215
      6  C1        11.4110   18.1140   19.5870 C.ar  1001  JE21001     0.1919
      7  C8        13.6480   18.9920   20.3890 C.3   1001  JE21001     0.0345
      8  C9        13.7390   20.5840   17.7660 C.2   1001  JE21001     0.2646
      9  O2        11.3410   17.3920   20.7560 O.3   1001  JE21001    -0.2869
     10  O10       14.9150   20.2110   17.7640 O.2   1001  JE21001    -0.2684
     11  C22       15.8930   24.5330   18.3050 C.2   1001  JE21001     0.2589
     12  N11       13.4000   21.8680   17.4450 N.am  1001  JE21001    -0.2000
     13  O23       15.9160   25.7360   18.0550 O.2   1001  JE21001    -0.2720
     14  C20       14.5290   23.7930   18.2960 C.3   1001  JE21001     0.2475
     15  C14       13.8110   22.5640   14.6120 C.ar  1001  JE21001    -0.0204
     16  C13       13.9120   23.5650   15.7410 C.3   1001  JE21001     0.0511
     17  C17       13.6370   20.6650   12.5020 C.ar  1001  JE21001    -0.0000
     18  C12       14.3870   22.8850   17.0580 C.3   1001  JE21001     0.1392
     19  O21       13.4910   24.7440   18.2910 O.3   1001  JE21001    -0.2114
     20  C15       14.9290   22.3090   13.7810 C.ar  1001  JE21001    -0.0042
     21  C19       12.6010   21.8560   14.3720 C.ar  1001  JE21001    -0.0042
     22  C16       14.8450   21.3630   12.7280 C.ar  1001  JE21001    -0.0003
     23  C18       12.5140   20.9110   13.3250 C.ar  1001  JE21001    -0.0003
     24  C31       18.9290   24.2670   17.2260 C.2   1001  JE21001     0.2606
     25  N24       17.0170   23.7990   18.5890 N.am  1001  JE21001    -0.2602
     26  O32       18.6740   23.2280   16.6140 O.2   1001  JE21001    -0.2715
     27  C30       18.3080   24.5330   18.6190 C.3   1001  JE21001     0.1633
     28  C27       19.1570   24.0320   19.8400 C.3   1001  JE21001     0.0661
     29  C25       16.9620   22.8240   19.7290 C.3   1001  JE21001     0.1527
     30  C28       18.8180   24.7880   21.1480 C.3   1001  JE21001     0.0131
     31  C29       20.6800   24.0820   19.6000 C.3   1001  JE21001     0.0131
     32  S26       18.6540   22.3260   19.9950 S.3   1001  JE21001    -0.1182
     33  N33       19.7400   25.2500   16.7910 N.am  1001  JE21001    -0.1992
     34  C34       20.4070   25.1510   15.5020 C.3   1001  JE21001     0.1412
     35  C35       20.7450   26.5100   14.9660 C.ar  1001  JE21001    -0.0045
     36  C36       19.8050   27.2920   14.2150 C.ar  1001  JE21001    -0.0241
     37  C37       20.1990   28.5730   13.7370 C.ar  1001  JE21001    -0.0045
     38  C38       21.4830   29.0850   14.0180 C.ar  1001  JE21001    -0.0003
     39  C39       22.4040   28.3180   14.7600 C.ar  1001  JE21001    -0.0003
     40  C40       22.0310   27.0430   15.2400 C.ar  1001  JE21001    -0.0029
     41  C41       18.4160   26.7930   13.8880 C.3   1001  JE21001     0.0308
@<TRIPOS>BOND
     1    17    22   ar
     2    17    23   ar
     3    22    20   ar
     4    23    21   ar
     5    37    38   ar
     6    37    36   ar
     7    20    15   ar
     8    41    36    1
     9    38    39   ar
    10    36    35   ar
    11    21    15   ar
    12    15    16    1
    13    39    40   ar
    14    35    40   ar
    15    35    34    1
    16    34    33    1
    17    16    18    1
    18    26    24    2
    19    33    24   am
    20    18    12    1
    21    18    14    1
    22     3     2   ar
    23     3     4   ar
    24    24    27    1
    25    12     8   am
    26     2     1   ar
    27    10     8    2
    28     8     4    1
    29    13    11    2
    30     4     5   ar
    31    19    14    1
    32    14    11    1
    33    11    25   am
    34    25    27    1
    35    25    29    1
    36    27    28    1
    37     1     6   ar
    38     5     6   ar
    39     5     7    1
    40     6     9    1
    41    31    28    1
    42    29    32    1
    43    28    32    1
    44    28    30    1
