@<TRIPOS>MOLECULE
1mt5_MAY_A_1.pdb
 24 23 0 0 0
SMALL
GASTEIGER

@<TRIPOS>ATOM
      1  O1        17.4910  -23.9280   22.0750 O.3   600  MAY600     -0.1774
      2  P1        18.4500  -23.9680   23.3290 P.3   600  MAY600      0.2201
      3  O2        17.6530  -23.4800   24.6210 O.3   600  MAY600     -0.3146
      4  CM        16.2170  -23.4870   24.6850 C.3   600  MAY600      0.1810
      5  C1        19.8360  -22.9240   22.8950 C.3   600  MAY600      0.0809
      6  C2        20.8740  -22.8070   23.9740 C.3   600  MAY600      0.0099
      7  C3        21.3820  -21.3710   23.9510 C.3   600  MAY600      0.0052
      8  C4        22.7120  -21.2410   23.2130 C.3   600  MAY600      0.0257
      9  C5        23.7680  -20.8490   24.2410 C.2   600  MAY600     -0.0304
     10  C6        24.2500  -19.6020   24.4140 C.2   600  MAY600     -0.0260
     11  C7        23.7980  -18.4360   23.5750 C.3   600  MAY600      0.0513
     12  C8        23.0170  -17.4700   24.4280 C.2   600  MAY600     -0.0257
     13  C9        22.8270  -16.1870   24.0860 C.2   600  MAY600     -0.0257
     14  C10       23.4110  -15.5880   22.8310 C.3   600  MAY600      0.0513
     15  C11       22.3040  -15.0530   21.9590 C.2   600  MAY600     -0.0257
     16  C12       22.4210  -14.9940   20.6280 C.2   600  MAY600     -0.0257
     17  C13       23.6450  -15.4720   19.8760 C.3   600  MAY600      0.0513
     18  C14       23.1650  -16.2720   18.6860 C.2   600  MAY600     -0.0260
     19  C15       23.7250  -16.2510   17.4680 C.2   600  MAY600     -0.0304
     20  C16       24.9010  -15.3930   17.1130 C.3   600  MAY600      0.0257
     21  C17       26.2280  -16.1700   17.1980 C.3   600  MAY600      0.0047
     22  C18       27.3280  -15.2900   17.7950 C.3   600  MAY600      0.0003
     23  C19       27.4750  -13.9790   17.0090 C.3   600  MAY600      0.0000
     24  C20       27.6080  -12.8120   17.9310 C.3   600  MAY600      0.0000
@<TRIPOS>BOND
     1    23    22    1
     2    23    24    1
     3    20    21    1
     4    20    19    1
     5    21    22    1
     6    19    18    2
     7    18    17    1
     8    17    16    1
     9    16    15    2
    10    15    14    1
    11     1     2    1
    12    14    13    1
    13     5     2    1
    14     5     6    1
    15     8     7    1
    16     8     9    1
    17     2     3    1
    18    11    10    1
    19    11    12    1
    20     7     6    1
    21    13    12    2
    22     9    10    2
    23     3     4    1
