@<TRIPOS>MOLECULE
1mt6_SAH_A_1.pdb
 26 28 0 0 0
SMALL
GASTEIGER

@<TRIPOS>ATOM
      1  N        -62.6230   -7.9540   30.6890 N.3     1  SAH1       -0.1208
      2  CA       -61.7380   -9.2540   30.9840 C.3     1  SAH1        0.1952
      3  CB       -61.4380   -9.7540   32.3360 C.3     1  SAH1        0.0422
      4  CG       -60.6300   -8.9880   33.3380 C.3     1  SAH1        0.0597
      5  SD       -58.8210   -9.1500   32.6430 S.3     1  SAH1       -0.1375
      6  C        -62.3240  -10.4410   30.1210 C.2     1  SAH1        0.3819
      7  O        -63.2650  -10.2440   29.3520 O.co2   1  SAH1       -0.2441
      8  OXT      -61.7500  -11.6240   30.2790 O.co2   1  SAH1       -0.2441
      9  C5'      -58.4330   -7.4670   32.5780 C.3     1  SAH1        0.0899
     10  C4'      -58.8250   -6.6350   31.3070 C.3     1  SAH1        0.1630
     11  O4'      -60.2130   -6.3100   31.3640 O.3     1  SAH1       -0.3153
     12  C3'      -58.0130   -5.6120   30.5610 C.3     1  SAH1        0.2168
     13  O3'      -57.3800   -6.2570   29.4350 O.3     1  SAH1       -0.2175
     14  C2'      -59.1160   -4.5390   30.0920 C.3     1  SAH1        0.2569
     15  O2'      -59.1220   -4.6910   28.7200 O.3     1  SAH1       -0.2130
     16  C1'      -60.3910   -5.2750   30.3300 C.3     1  SAH1        0.3185
     17  N9       -60.7930   -4.3730   31.3640 N.pl3   1  SAH1       -0.1439
     18  C8       -60.6520   -4.4360   32.8040 C.3     1  SAH1        0.3377
     19  N7       -61.0860   -3.4500   33.4920 N.2     1  SAH1       -0.2095
     20  C5       -61.6140   -2.6330   32.4570 C.2     1  SAH1        0.2526
     21  C6       -62.3150   -1.3960   32.5830 C.2     1  SAH1        0.4393
     22  N6       -62.6140   -0.6900   33.8330 N.pl3   1  SAH1        0.2180
     23  N1       -62.6650   -0.8960   31.4000 N.2     1  SAH1        0.0021
     24  C2       -62.4080   -1.4960   30.1450 C.3     1  SAH1        0.5254
     25  N3       -61.7690   -2.6700   30.0130 N.2     1  SAH1       -0.0055
     26  C4       -61.4180   -3.1660   31.1900 C.2     1  SAH1        0.3518
@<TRIPOS>BOND
     1    15    14    1
     2     7     6   ar
     3    13    12    1
     4    25    24    1
     5    25    26    2
     6    14    16    1
     7    14    12    1
     8     6     8   ar
     9     6     2    1
    10    24    23    1
    11    16    11    1
    12    16    17    1
    13    12    10    1
    14     1     2    1
    15     2     3    1
    16    26    17    1
    17    26    20    1
    18    10    11    1
    19    10     9    1
    20    17    18    1
    21    23    21    2
    22     3     4    1
    23    20    21    1
    24    20    19    2
    25     9     5    1
    26    21    22    1
    27     5     4    1
    28    18    19    1
