@<TRIPOS>MOLECULE
1mtb_QNC_A_1.pdb
 12 13 0 0 0
SMALL
GASTEIGER

@<TRIPOS>ATOM
      1  C          6.1180   -6.2020   17.8290 C.2   100  QNC100      0.2660
      2  O          6.2700   -5.4360   18.8020 O.2   100  QNC100     -0.2803
      3  N1         5.2870   -8.1540   16.7100 N.2   100  QNC100     -0.3986
      4  C2         5.3700   -7.3990   17.8750 C.2   100  QNC100      0.1734
      5  C3         4.6890   -7.8560   19.0530 C.2   100  QNC100      0.0355
      6  C4         3.9490   -9.0680   18.9970 C.2   100  QNC100      0.0050
      7  C5         3.1530  -11.0260   17.6930 C.2   100  QNC100     -0.0189
      8  C6         3.1250  -11.7310   16.4460 C.3   100  QNC100      0.0522
      9  C7         3.8210  -11.2340   15.3000 C.2   100  QNC100     -0.0188
     10  C8         4.5560  -10.0240   15.3780 C.2   100  QNC100      0.0278
     11  C4A        3.8890   -9.8100   17.7810 C.2   100  QNC100      0.0257
     12  C8A        4.5910   -9.3190   16.6090 C.2   100  QNC100      0.1309
@<TRIPOS>BOND
     1     9    10    2
     2     9     8    1
     3    10    12    1
     4     8     7    1
     5    12     3    2
     6    12    11    1
     7     3     4    2
     8     7    11    2
     9    11     6    1
    10     1     4    1
    11     1     2    2
    12     4     5    1
    13     6     5    2
