@<TRIPOS>MOLECULE
1mtb_HPH_A_1.pdb
 11 11 0 0 0
SMALL
GASTEIGER

@<TRIPOS>ATOM
      1  C          5.5230   -0.4590   15.9310 C.3   102  HPH102      0.2013
      2  O          5.1850   -0.1040   17.2640 O.3   102  HPH102     -0.2188
      3  CA         4.9740   -1.8870   15.6450 C.3   102  HPH102      0.1290
      4  N          5.8400   -2.8240   16.3410 N.3   102  HPH102     -0.1298
      5  CB         3.5190   -2.1030   16.1610 C.3   102  HPH102      0.0480
      6  CG         3.0600   -3.5520   16.1850 C.ar  102  HPH102     -0.0206
      7  CD1        2.9890   -4.2900   15.0080 C.ar  102  HPH102     -0.0042
      8  CD2        2.6780   -4.1070   17.4040 C.ar  102  HPH102     -0.0042
      9  CE1        2.5290   -5.5990   15.0600 C.ar  102  HPH102     -0.0003
     10  CE2        2.2220   -5.4070   17.4380 C.ar  102  HPH102     -0.0003
     11  CZ         2.1450   -6.1520   16.2690 C.ar  102  HPH102     -0.0000
@<TRIPOS>BOND
     1     7     9   ar
     2     7     6   ar
     3     9    11   ar
     4     3     1    1
     5     3     5    1
     6     3     4    1
     7     1     2    1
     8     5     6    1
     9     6     8   ar
    10    11    10   ar
    11     8    10   ar
