@<TRIPOS>MOLECULE
1mtb_DIQ_B_1.pdb
 13 14 0 0 0
SMALL
GASTEIGER

@<TRIPOS>ATOM
      1  N1         5.7790    0.6100   13.7110 N.3   100  DIQ100     -0.2664
      2  CM         5.0910    0.6610   14.9960 C.3   100  DIQ100      0.0899
      3  C2         4.9670    1.2120   12.5960 C.3   100  DIQ100      0.1231
      4  C          3.6310    0.5440   12.3180 C.2   100  DIQ100      0.2230
      5  O          3.5640   -0.6850   12.3770 O.2   100  DIQ100     -0.2868
      6  C3         5.7440    1.1800   11.2660 C.3   100  DIQ100      0.0240
      7  C3A        7.1040    1.8850   11.4350 C.3   100  DIQ100      0.0031
      8  C4         7.9120    1.8500   10.1470 C.3   100  DIQ100      0.0001
      9  C5         8.5110    0.4560    9.8660 C.3   100  DIQ100      0.0000
     10  C6         9.3800   -0.0600   11.0340 C.3   100  DIQ100      0.0000
     11  C7         8.5130   -0.1180   12.3060 C.3   100  DIQ100      0.0014
     12  C7A        7.9580    1.2810   12.6360 C.3   100  DIQ100      0.0161
     13  C8         7.0850    1.2880   13.9020 C.3   100  DIQ100      0.0724
@<TRIPOS>BOND
     1     9     8    1
     2     9    10    1
     3     8     7    1
     4    10    11    1
     5     6     7    1
     6     6     3    1
     7     7    12    1
     8    11    12    1
     9     4     5    2
    10     4     3    1
    11     3     1    1
    12    12    13    1
    13     1    13    1
    14     1     2    1
