@<TRIPOS>MOLECULE
1mtc_GPR_A_1.pdb
 35 37 0 0 0
SMALL
GASTEIGER

@<TRIPOS>ATOM
      1  N1        14.7140   14.6330   24.8280 N.3   5218  GPR5218    -0.1208
      2  CA1       14.3700   15.4060   26.1090 C.3   5218  GPR5218     0.1948
      3  C1        13.3900   16.5210   25.9510 C.2   5218  GPR5218     0.3819
      4  O11       12.5670   16.7820   26.8510 O.co2 5218  GPR5218    -0.2441
      5  O12       13.3410   17.1330   24.7270 O.co2 5218  GPR5218    -0.2441
      6  CB1       15.6300   16.0370   26.7430 C.3   5218  GPR5218     0.0402
      7  CG1       15.5450   15.7070   28.1800 C.3   5218  GPR5218     0.0889
      8  CD1       16.6200   16.0430   29.0850 C.2   5218  GPR5218     0.2418
      9  OE1       17.8030   15.7410   28.7570 O.2   5218  GPR5218    -0.2733
     10  N2        16.2060   16.3550   30.3400 N.am  5218  GPR5218    -0.1969
     11  CA2       17.3000   16.8680   31.2000 C.3   5218  GPR5218     0.1834
     12  C2        17.2890   16.1660   32.6180 C.2   5218  GPR5218     0.2626
     13  O2        17.6750   16.9010   33.5470 O.2   5218  GPR5218    -0.2714
     14  CB2       16.9960   18.3810   31.4070 C.3   5218  GPR5218     0.0890
     15  SG2       17.3270   19.1790   29.8370 S.3   5218  GPR5218    -0.1314
     16  N3        16.5530   15.0890   32.6910 N.am  5218  GPR5218    -0.1917
     17  CA3       16.0170   14.6450   34.0200 C.3   5218  GPR5218     0.2285
     18  C3        16.9140   13.6680   34.6310 C.2   5218  GPR5218     0.3865
     19  O31       17.8960   13.1100   34.0960 O.co2 5218  GPR5218    -0.2437
     20  O32       16.5630   12.9510   35.6710 O.co2 5218  GPR5218    -0.2437
     21  CA4       18.9470   18.7650   30.1900 C.3   5218  GPR5218     0.1044
     22  CB4       19.6670   20.0820   30.4570 C.ar  5218  GPR5218    -0.0097
     23  CG4       19.9510   20.5020   31.8010 C.ar  5218  GPR5218    -0.0034
     24  CD4       20.5210   21.7700   31.9730 C.ar  5218  GPR5218    -0.0003
     25  CE4       20.8030   22.5950   30.8700 C.ar  5218  GPR5218    -0.0000
     26  CZ4       20.5310   22.1900   29.5580 C.ar  5218  GPR5218    -0.0003
     27  CH4       19.9590   20.9300   29.3420 C.ar  5218  GPR5218    -0.0033
     28  CH5       19.7100   20.3120   27.9940 C.ar  5218  GPR5218    -0.0018
     29  CZ5       19.1340   21.1490   26.9720 C.ar  5218  GPR5218    -0.0002
     30  CE5       18.7770   20.4770   25.8240 C.ar  5218  GPR5218    -0.0000
     31  CD5       18.9280   19.1180   25.6100 C.ar  5218  GPR5218    -0.0002
     32  CG5       19.4870   18.3210   26.5990 C.ar  5218  GPR5218    -0.0018
     33  CB5       19.8620   18.9500   27.7880 C.ar  5218  GPR5218     0.0089
     34  CA5       19.3860   18.0400   28.9350 C.3   5218  GPR5218     0.1881
     35  O5        20.1700   16.8870   28.8510 O.3   5218  GPR5218    -0.2170
@<TRIPOS>BOND
     1     5     3   ar
     2     1     2    1
     3    31    30   ar
     4    31    32   ar
     5    30    29   ar
     6     3     2    1
     7     3     4   ar
     8     2     6    1
     9    32    33   ar
    10     6     7    1
    11    29    28   ar
    12    33    28   ar
    13    33    34    1
    14    28    27    1
    15     7     8    1
    16     9     8    2
    17    35    34    1
    18    34    21    1
    19     8    10   am
    20    27    26   ar
    21    27    22   ar
    22    26    25   ar
    23    15    21    1
    24    15    14    1
    25    21    22    1
    26    10    11    1
    27    22    23   ar
    28    25    24   ar
    29    11    14    1
    30    11    12    1
    31    23    24   ar
    32    12    16   am
    33    12    13    2
    34    16    17    1
    35    17    18    1
    36    19    18   ar
    37    18    20   ar
