@<TRIPOS>MOLECULE
1mti_HEM_A_1.pdb
 43 50 0 0 0
SMALL
GASTEIGER

@<TRIPOS>ATOM
      1 FE         35.1620    4.2060   10.1530 Fe    154  HEM154      0.0000
      2  CHA       37.8640    2.3060   11.2850 C.2   154  HEM154      0.0000
      3  CHB       37.0860    5.4170    7.6990 C.2   154  HEM154      0.0000
      4  CHC       32.5760    6.1790    9.0230 C.2   154  HEM154      0.0000
      5  CHD       33.3740    3.2290   12.9640 C.2   154  HEM154      0.0000
      6  NA        37.0260    3.9770    9.6560 N.ar  154  HEM154      0.0000
      7  C1A       37.9780    3.1320   10.1630 C.ar  154  HEM154      0.0000
      8  C2A       39.2350    3.1680    9.3370 C.ar  154  HEM154      0.0000
      9  C3A       38.9700    4.0350    8.3100 C.ar  154  HEM154      0.0000
     10  C4A       37.6030    4.5410    8.5310 C.ar  154  HEM154      0.0000
     11  CMA       39.9420    4.4080    7.1610 C.3   154  HEM154      0.0000
     12  CAA       40.5250    2.2370    9.6680 C.3   154  HEM154      0.0000
     13  CBA       40.5810    1.0850    8.6920 C.3   154  HEM154      0.0000
     14  CGA       39.3490    0.1850    8.7100 C.2   154  HEM154      0.0000
     15  O1A       38.9750   -0.3710    9.7580 O.co2 154  HEM154      0.0000
     16  O2A       38.6780    0.1200    7.6740 O.co2 154  HEM154      0.0000
     17  NB        34.8100    5.5580    8.7250 N.2   154  HEM154      0.0000
     18  C1B       35.7550    5.9190    7.7380 C.2   154  HEM154      0.0000
     19  C2B       35.2220    6.8690    6.7100 C.2   154  HEM154      0.0000
     20  C3B       33.9620    7.0370    7.1110 C.2   154  HEM154      0.0000
     21  C4B       33.7240    6.2710    8.3610 C.2   154  HEM154      0.0000
     22  CMB       35.7750    7.4830    5.3930 C.3   154  HEM154      0.0000
     23  CAB       33.0240    7.9090    6.4400 C.3   154  HEM154      0.0000
     24  CBB       33.1150    9.3150    6.0660 C.3   154  HEM154      0.0000
     25  NC        33.2630    4.4810   10.8130 N.ar  154  HEM154      0.0000
     26  C1C       32.3960    5.4430   10.3220 C.ar  154  HEM154      0.0000
     27  C2C       31.2410    5.6220   11.2220 C.ar  154  HEM154      0.0000
     28  C3C       31.3980    4.7480   12.3130 C.ar  154  HEM154      0.0000
     29  C4C       32.6660    4.0180   12.0160 C.ar  154  HEM154      0.0000
     30  CMC       30.1160    6.6200   10.8150 C.3   154  HEM154      0.0000
     31  CAC       30.6300    4.5080   13.5600 C.3   154  HEM154      0.0000
     32  CBC       29.5160    5.3560   13.8880 C.3   154  HEM154      0.0000
     33  ND        35.5390    2.9340   11.6850 N.2   154  HEM154      0.0000
     34  C1D       34.6770    2.7280   12.7920 C.2   154  HEM154      0.0000
     35  C2D       35.2940    1.8100   13.7380 C.2   154  HEM154      0.0000
     36  C3D       36.5160    1.5860   13.2800 C.2   154  HEM154      0.0000
     37  C4D       36.6640    2.2520   12.0470 C.2   154  HEM154      0.0000
     38  CMD       34.5530    1.2730   14.9770 C.3   154  HEM154      0.0000
     39  CAD       37.6060    0.9700   14.0710 C.3   154  HEM154      0.0000
     40  CBD       38.2930    1.9930   14.9900 C.3   154  HEM154      0.0000
     41  CGD       39.4120    1.3780   15.8460 C.2   154  HEM154      0.0000
     42  O1D       39.1340    0.6130   16.7800 O.co2 154  HEM154      0.0000
     43  O2D       40.5650    1.6730   15.6010 O.co2 154  HEM154      0.0000
@<TRIPOS>BOND
     1    22    19    1
     2    24    23    1
     3    23    20    1
     4    19    20    2
     5    19    18    1
     6    20    21    1
     7    11     9    1
     8    16    14   ar
     9     3    18    1
    10     3    10    2
    11    18    17    2
    12     9    10   ar
    13     9     8   ar
    14    21    17    1
    15    21     4    2
    16    10     6   ar
    17    13    14    1
    18    13    12    1
    19    14    15   ar
    20    17     1    1
    21     4    26    1
    22     8    12    1
    23     8     7   ar
    24     6     1    1
    25     6     7   ar
    26     1    25    1
    27     1    33    1
    28     7     2    2
    29    26    25   ar
    30    26    27   ar
    31    25    29   ar
    32    30    27    1
    33    27    28   ar
    34     2    37    1
    35    33    37    2
    36    33    34    1
    37    29    28   ar
    38    29     5    1
    39    37    36    1
    40    28    31    1
    41    34     5    2
    42    34    35    1
    43    36    35    2
    44    36    39    1
    45    31    32    1
    46    35    38    1
    47    39    40    1
    48    40    41    1
    49    43    41   ar
    50    41    42   ar
