@<TRIPOS>MOLECULE
1mtj_HEM_A_1.pdb
 43 50 0 0 0
SMALL
GASTEIGER

@<TRIPOS>ATOM
      1 FE         35.4290    4.3710    9.7630 Fe    154  HEM154      0.0000
      2  CHA       38.1260    2.6370   11.1150 C.2   154  HEM154      0.0000
      3  CHB       37.3490    5.5260    7.3530 C.2   154  HEM154      0.0000
      4  CHC       32.9720    6.5270    9.0450 C.2   154  HEM154      0.0000
      5  CHD       33.7290    3.6590   12.8450 C.2   154  HEM154      0.0000
      6  NA        37.3090    4.1400    9.3570 N.ar  154  HEM154      0.0000
      7  C1A       38.2810    3.3600    9.9500 C.ar  154  HEM154      0.0000
      8  C2A       39.5050    3.3250    9.1570 C.ar  154  HEM154      0.0000
      9  C3A       39.2980    4.1130    8.0550 C.ar  154  HEM154      0.0000
     10  C4A       37.9090    4.5970    8.2100 C.ar  154  HEM154      0.0000
     11  CMA       40.2300    4.4200    6.8900 C.3   154  HEM154      0.0000
     12  CAA       40.7480    2.4240    9.4710 C.3   154  HEM154      0.0000
     13  CBA       40.8600    1.2520    8.4970 C.3   154  HEM154      0.0000
     14  CGA       39.6870    0.3060    8.5790 C.2   154  HEM154      0.0000
     15  O1A       39.3840   -0.2060    9.6790 O.co2 154  HEM154      0.0000
     16  O2A       38.9820    0.1840    7.5660 O.co2 154  HEM154      0.0000
     17  NB        35.1820    5.7640    8.4370 N.2   154  HEM154      0.0000
     18  C1B       36.0450    6.1040    7.4390 C.2   154  HEM154      0.0000
     19  C2B       35.4630    7.0390    6.4920 C.2   154  HEM154      0.0000
     20  C3B       34.2550    7.3080    7.0170 C.2   154  HEM154      0.0000
     21  C4B       34.0940    6.5340    8.2110 C.2   154  HEM154      0.0000
     22  CMB       36.0080    7.5060    5.1040 C.3   154  HEM154      0.0000
     23  CAB       33.2890    8.2270    6.5320 C.3   154  HEM154      0.0000
     24  CBB       33.4900    9.5320    5.9780 C.3   154  HEM154      0.0000
     25  NC        33.6910    4.9070   10.6590 N.ar  154  HEM154      0.0000
     26  C1C       32.7960    5.8100   10.2130 C.ar  154  HEM154      0.0000
     27  C2C       31.6700    6.0310   11.1440 C.ar  154  HEM154      0.0000
     28  C3C       31.8930    5.2320   12.2010 C.ar  154  HEM154      0.0000
     29  C4C       33.1530    4.5340   11.9220 C.ar  154  HEM154      0.0000
     30  CMC       30.4820    6.9590   10.8380 C.3   154  HEM154      0.0000
     31  CAC       31.1500    4.9460   13.4390 C.3   154  HEM154      0.0000
     32  CBC       30.0710    5.5720   14.0310 C.3   154  HEM154      0.0000
     33  ND        35.8230    3.3760   11.5320 N.2   154  HEM154      0.0000
     34  C1D       35.0040    3.1910   12.6700 C.2   154  HEM154      0.0000
     35  C2D       35.6620    2.3680   13.6450 C.2   154  HEM154      0.0000
     36  C3D       36.9000    2.0940   13.1320 C.2   154  HEM154      0.0000
     37  C4D       36.9810    2.6800   11.8570 C.2   154  HEM154      0.0000
     38  CMD       34.9980    1.7910   14.9080 C.3   154  HEM154      0.0000
     39  CAD       38.0160    1.3610   13.8240 C.3   154  HEM154      0.0000
     40  CBD       38.6700    2.1950   14.9660 C.3   154  HEM154      0.0000
     41  CGD       39.8730    1.4840   15.6090 C.2   154  HEM154      0.0000
     42  O1D       39.7300    0.9330   16.7200 O.co2 154  HEM154      0.0000
     43  O2D       40.9810    1.5510   15.0520 O.co2 154  HEM154      0.0000
@<TRIPOS>BOND
     1    22    19    1
     2    24    23    1
     3    19    20    2
     4    19    18    1
     5    23    20    1
     6    11     9    1
     7    20    21    1
     8     3    18    1
     9     3    10    2
    10    18    17    2
    11    16    14   ar
    12     9    10   ar
    13     9     8   ar
    14    10     6   ar
    15    21    17    1
    16    21     4    2
    17    17     1    1
    18    13    14    1
    19    13    12    1
    20    14    15   ar
    21     4    26    1
    22     8    12    1
    23     8     7   ar
    24     6     1    1
    25     6     7   ar
    26     1    25    1
    27     1    33    1
    28     7     2    2
    29    26    25   ar
    30    26    27   ar
    31    25    29   ar
    32    30    27    1
    33     2    37    1
    34    27    28   ar
    35    33    37    2
    36    33    34    1
    37    37    36    1
    38    29    28   ar
    39    29     5    1
    40    28    31    1
    41    34     5    2
    42    34    35    1
    43    36    35    2
    44    36    39    1
    45    31    32    1
    46    35    38    1
    47    39    40    1
    48    40    41    1
    49    43    41   ar
    50    41    42   ar
