@<TRIPOS>MOLECULE
1mtk_HEM_A_1.pdb
 43 50 0 0 0
SMALL
GASTEIGER

@<TRIPOS>ATOM
      1 FE         35.2640    4.2490   10.0360 Fe    154  HEM154      0.0000
      2  CHA       37.9650    2.4200   11.2710 C.2   154  HEM154      0.0000
      3  CHB       37.2210    5.2930    7.4780 C.2   154  HEM154      0.0000
      4  CHC       32.7080    6.2050    8.9890 C.2   154  HEM154      0.0000
      5  CHD       33.4280    3.3290   12.8810 C.2   154  HEM154      0.0000
      6  NA        37.1030    3.9960    9.5370 N.ar  154  HEM154      0.0000
      7  C1A       38.0910    3.2120   10.1210 C.ar  154  HEM154      0.0000
      8  C2A       39.3150    3.2050    9.3240 C.ar  154  HEM154      0.0000
      9  C3A       39.1250    4.0180    8.2230 C.ar  154  HEM154      0.0000
     10  C4A       37.7550    4.4990    8.4170 C.ar  154  HEM154      0.0000
     11  CMA       40.0540    4.3300    7.0620 C.3   154  HEM154      0.0000
     12  CAA       40.5800    2.2910    9.5900 C.3   154  HEM154      0.0000
     13  CBA       40.6050    1.1230    8.6090 C.3   154  HEM154      0.0000
     14  CGA       39.3680    0.2250    8.6480 C.2   154  HEM154      0.0000
     15  O1A       39.0350   -0.3410    9.7040 O.co2 154  HEM154      0.0000
     16  O2A       38.6550    0.1940    7.6400 O.co2 154  HEM154      0.0000
     17  NB        34.9490    5.4750    8.5710 N.2   154  HEM154      0.0000
     18  C1B       35.8690    5.8640    7.6010 C.2   154  HEM154      0.0000
     19  C2B       35.2940    6.8400    6.6330 C.2   154  HEM154      0.0000
     20  C3B       34.0240    6.9910    7.0690 C.2   154  HEM154      0.0000
     21  C4B       33.8350    6.2070    8.2270 C.2   154  HEM154      0.0000
     22  CMB       35.9420    7.3730    5.3220 C.3   154  HEM154      0.0000
     23  CAB       33.0580    7.9310    6.5240 C.3   154  HEM154      0.0000
     24  CBB       33.2640    9.2990    6.1340 C.3   154  HEM154      0.0000
     25  NC        33.4450    4.5940   10.7590 N.ar  154  HEM154      0.0000
     26  C1C       32.5640    5.4850   10.2330 C.ar  154  HEM154      0.0000
     27  C2C       31.3810    5.6690   11.1200 C.ar  154  HEM154      0.0000
     28  C3C       31.5650    4.8710   12.2230 C.ar  154  HEM154      0.0000
     29  C4C       32.8500    4.2110   11.9670 C.ar  154  HEM154      0.0000
     30  CMC       30.1840    6.6100   10.8290 C.3   154  HEM154      0.0000
     31  CAC       30.7630    4.5890   13.4190 C.3   154  HEM154      0.0000
     32  CBC       29.6390    5.2790   13.9890 C.3   154  HEM154      0.0000
     33  ND        35.5950    3.1020   11.6460 N.2   154  HEM154      0.0000
     34  C1D       34.7290    2.8340   12.7040 C.2   154  HEM154      0.0000
     35  C2D       35.3510    1.9290   13.7430 C.2   154  HEM154      0.0000
     36  C3D       36.5900    1.7000   13.2820 C.2   154  HEM154      0.0000
     37  C4D       36.7440    2.4100   12.0020 C.2   154  HEM154      0.0000
     38  CMD       34.6490    1.3770   14.9940 C.3   154  HEM154      0.0000
     39  CAD       37.7230    1.0550   13.9900 C.3   154  HEM154      0.0000
     40  CBD       38.2760    1.9910   15.0830 C.3   154  HEM154      0.0000
     41  CGD       39.3820    1.3580   15.9300 C.2   154  HEM154      0.0000
     42  O1D       39.0880    0.8190   17.0040 O.co2 154  HEM154      0.0000
     43  O2D       40.4830    1.2320   15.4230 O.co2 154  HEM154      0.0000
@<TRIPOS>BOND
     1    22    19    1
     2    24    23    1
     3    23    20    1
     4    19    20    2
     5    19    18    1
     6    11     9    1
     7    20    21    1
     8     3    18    1
     9     3    10    2
    10    18    17    2
    11    16    14   ar
    12     9    10   ar
    13     9     8   ar
    14    21    17    1
    15    21     4    2
    16    10     6   ar
    17    17     1    1
    18    13    14    1
    19    13    12    1
    20    14    15   ar
    21     4    26    1
    22     8    12    1
    23     8     7   ar
    24     6     1    1
    25     6     7   ar
    26     1    25    1
    27     1    33    1
    28     7     2    2
    29    26    25   ar
    30    26    27   ar
    31    25    29   ar
    32    30    27    1
    33    27    28   ar
    34     2    37    1
    35    33    37    2
    36    33    34    1
    37    29    28   ar
    38    29     5    1
    39    37    36    1
    40    28    31    1
    41    34     5    2
    42    34    35    1
    43    36    35    2
    44    36    39    1
    45    31    32    1
    46    35    38    1
    47    39    40    1
    48    40    41    1
    49    43    41   ar
    50    41    42   ar
