@<TRIPOS>MOLECULE
1mto_F6P_A_1.pdb
 16 16 0 0 0
SMALL
GASTEIGER

@<TRIPOS>ATOM
      1  O1       -25.5440  -15.0390   94.6500 O.3   1002  F6P1002    -0.2148
      2  C1       -26.5300  -14.1100   94.2540 C.3   1002  F6P1002     0.2434
      3  C2       -26.4630  -12.8410   95.1420 C.3   1002  F6P1002     0.2807
      4  O2       -27.4570  -11.8740   94.7760 O.3   1002  F6P1002    -0.1896
      5  C3       -25.0280  -12.2700   95.0770 C.3   1002  F6P1002     0.2409
      6  O3       -24.7910  -11.4630   93.9560 O.3   1002  F6P1002    -0.2149
      7  C4       -24.8330  -11.5760   96.4400 C.3   1002  F6P1002     0.2167
      8  O4       -23.5160  -11.6130   96.9790 O.3   1002  F6P1002    -0.2175
      9  C5       -25.9040  -12.2130   97.3230 C.3   1002  F6P1002     0.1808
     10  O5       -26.6350  -13.1400   96.5020 O.3   1002  F6P1002    -0.3254
     11  C6       -26.8160  -11.2280   97.8790 C.3   1002  F6P1002     0.1859
     12  O6       -27.9770  -11.9920   98.3630 O.3   1002  F6P1002    -0.2675
     13  P        -28.2580  -12.2430   99.9030 P.3   1002  F6P1002     0.5327
     14  O1P      -27.0990  -12.9560  100.5390 O.3   1002  F6P1002    -0.1145
     15  O2P      -28.5330  -10.9470  100.6210 O.3   1002  F6P1002    -0.1145
     16  O3P      -29.5300  -13.0500  100.0170 O.2   1002  F6P1002    -0.2224
@<TRIPOS>BOND
     1     6     5    1
     2     2     1    1
     3     2     3    1
     4     4     3    1
     5     5     3    1
     6     5     7    1
     7     3    10    1
     8     7     8    1
     9     7     9    1
    10    10     9    1
    11     9    11    1
    12    11    12    1
    13    12    13    1
    14    13    16    2
    15    13    14    1
    16    13    15    1
