@<TRIPOS>MOLECULE
1mtr_PI6_B_1.pdb
 43 45 0 0 0
SMALL
GASTEIGER

@<TRIPOS>ATOM
      1  O1         3.8120   -0.1510   12.1280 O.2   101  PI6101     -0.2246
      2  C          3.8390    1.0700   12.4190 C.2   101  PI6101      0.4209
      3  O2         2.8460    1.9070   12.1390 O.3   101  PI6101     -0.4408
      4  CT         1.6090    1.3620   11.6690 C.3   101  PI6101      0.1379
      5  C1         1.8150    0.7460   10.2690 C.3   101  PI6101      0.0437
      6  C2         1.0660    0.3590   12.6570 C.3   101  PI6101      0.0437
      7  C3         0.6500    2.5150   11.5790 C.3   101  PI6101      0.0437
      8  N          4.8920    1.6410   12.9920 N.am  101  PI6101     -0.1675
      9  CA         6.0860    0.8980   13.3940 C.3   101  PI6101      0.1347
     10  C4         6.0250    0.5400   14.8670 C.3   101  PI6101      0.1895
     11  OXT        7.2140   -0.1580   15.2100 O.3   101  PI6101     -0.2197
     12  CB         7.3250    1.7310   13.1470 C.3   101  PI6101      0.0508
     13  CG         7.5170    2.0830   11.7380 C.ar  101  PI6101     -0.0204
     14  CD1        7.2770    3.3810   11.3000 C.ar  101  PI6101     -0.0042
     15  CD2        7.8520    1.1030   10.8180 C.ar  101  PI6101     -0.0042
     16  CE1        7.3590    3.6950    9.9590 C.ar  101  PI6101     -0.0003
     17  CE2        7.9340    1.4070    9.4770 C.ar  101  PI6101     -0.0003
     18  CZ         7.6860    2.7010    9.0420 C.ar  101  PI6101     -0.0000
     19  CM         4.8260   -0.3500   15.1620 C.3   101  PI6101      0.1245
     20  N1         4.9800   -0.7490   16.5650 N.3   101  PI6101     -0.2001
     21  CA1        4.7330   -2.1850   16.8660 C.3   101  PI6101      0.1827
     22  C5         5.7270   -3.1840   16.2610 C.1   101  PI6101      0.1429
     23  O          5.9380   -3.2130   15.0430 O.2   101  PI6101     -0.2256
     24  CB1        3.3070   -2.6010   16.4850 C.3   101  PI6101      0.0607
     25  CG1        3.0880   -4.0880   16.5880 C.ar  101  PI6101     -0.0194
     26 CD11        3.0690   -4.8820   15.4370 C.ar  101  PI6101     -0.0011
     27 CD21        3.0430   -4.7290   17.8400 C.ar  101  PI6101     -0.0011
     28 CE11        3.0270   -6.2650   15.5160 C.ar  101  PI6101      0.0366
     29 CE21        3.0070   -6.1030   17.9280 C.ar  101  PI6101      0.0366
     30  CZ1        3.0060   -6.8700   16.7570 C.ar  101  PI6101      0.1385
     31  N2         6.3020   -4.0050   17.1410 N.2   101  PI6101     -0.1901
     32  CA2        7.2390   -5.1000   16.8040 C.3   101  PI6101      0.2189
     33  C6         6.8690   -6.1580   17.8470 C.1   101  PI6101      0.1491
     34  O3         6.8500   -5.8730   19.0590 O.2   101  PI6101     -0.2251
     35  CB2        8.7390   -4.7770   17.0390 C.3   101  PI6101      0.0393
     36 CG11        9.2220   -3.6210   16.1610 C.3   101  PI6101      0.0031
     37  CG2        9.5760   -6.0270   16.7730 C.3   101  PI6101      0.0032
     38 CD12        9.7030   -4.0590   14.8430 C.3   101  PI6101      0.0001
     39  OH         3.0180   -8.2490   16.7780 O.3   101  PI6101     -0.4754
     40  N3         6.5430   -7.3550   17.3700 N.2   101  PI6101     -0.2046
     41  CA3        6.1610   -8.4480   18.2470 C.3   101  PI6101      0.1414
     42  C7         5.0770   -9.2840   17.5770 C.3   101  PI6101      0.0745
     43  C8         3.6870   -8.7600   17.9160 C.3   101  PI6101      0.2075
@<TRIPOS>BOND
     1    18    17   ar
     2    18    16   ar
     3    17    15   ar
     4    16    14   ar
     5     5     4    1
     6    15    13   ar
     7    14    13   ar
     8     7     4    1
     9     4     3    1
    10     4     6    1
    11    13    12    1
    12     1     2    2
    13     3     2    1
    14     2     8   am
    15     8     9    1
    16    12     9    1
    17     9    10    1
    18    38    36    1
    19    10    19    1
    20    10    11    1
    21    23    22    2
    22    19    20    1
    23    26    28   ar
    24    26    25   ar
    25    28    30   ar
    26    36    35    1
    27    22    21    1
    28    22    31    2
    29    24    25    1
    30    24    21    1
    31    20    21    1
    32    25    27   ar
    33    30    39    1
    34    30    29   ar
    35    37    35    1
    36    39    43    1
    37    32    35    1
    38    32    31    1
    39    32    33    1
    40    40    33    2
    41    40    41    1
    42    42    43    1
    43    42    41    1
    44    27    29   ar
    45    33    34    2
