@<TRIPOS>MOLECULE
1mts_BX3_A_1.pdb
 34 37 0 0 0
SMALL
GASTEIGER

@<TRIPOS>ATOM
      1  N1        -5.1880    9.9610   19.8880 N.pl3 999  BX3999      0.2047
      2  C2        -3.7550    9.8640   19.6430 C.2   999  BX3999      0.4766
      3  N3        -3.0270   10.8440   19.2620 N.pl3 999  BX3999      0.2047
      4  C4        -3.0880    8.5380   19.8600 C.ar  999  BX3999      0.0975
      5  C5        -1.7840    8.2620   19.3640 C.ar  999  BX3999      0.0080
      6  C6        -1.1970    7.0190   19.5920 C.ar  999  BX3999      0.0003
      7  C7        -1.9010    6.0310   20.3120 C.ar  999  BX3999     -0.0000
      8  C8        -3.2350    6.2770   20.8330 C.ar  999  BX3999     -0.0001
      9  C9        -3.8020    7.5630   20.5790 C.ar  999  BX3999      0.0080
     10  C10       -1.3110    4.8030   20.5280 C.ar  999  BX3999     -0.0003
     11  C11       -2.0710    3.8490   21.2660 C.ar  999  BX3999     -0.0042
     12  C12       -4.0900    5.2030   21.6680 C.ar  999  BX3999     -0.0042
     13  C13       -3.4290    4.0210   21.8140 C.ar  999  BX3999     -0.0213
     14  C14       -4.1630    2.8870   22.6250 C.3   999  BX3999      0.0420
     15  C15       -3.5700    2.3870   23.9460 C.3   999  BX3999      0.1299
     16  C16       -3.1640    3.4260   24.9990 C.ar  999  BX3999     -0.0113
     17  C17       -4.0290    4.4830   25.3620 C.ar  999  BX3999     -0.0006
     18  C18       -3.6270    5.4140   26.3340 C.ar  999  BX3999      0.0366
     19  C19       -2.3610    5.2760   26.9230 C.ar  999  BX3999      0.1384
     20  C20       -1.4900    4.2240   26.5680 C.ar  999  BX3999      0.0366
     21  C21       -1.8970    3.2900   25.5930 C.ar  999  BX3999     -0.0006
     22  C22       -4.3500    1.2100   24.4570 C.2   999  BX3999      0.3687
     23  O23       -3.6990    0.1020   24.3930 O.co2 999  BX3999     -0.2453
     24  O24       -5.5360    1.4380   24.8630 O.co2 999  BX3999     -0.2453
     25  O25       -2.0140    6.2270   27.8580 O.3   999  BX3999     -0.4789
     26  C26       -1.6330    5.8800   29.1690 C.3   999  BX3999      0.1742
     27  C27       -2.8760    5.6810   30.0800 C.3   999  BX3999      0.0944
     28  N28       -2.2610    7.6740   31.2900 N.pl3 999  BX3999     -0.1903
     29  C29       -1.2620    8.1800   30.3630 C.3   999  BX3999      0.2059
     30  C30       -0.6290    6.9620   29.6610 C.3   999  BX3999      0.0944
     31  C31       -2.1170    7.7750   32.6020 C.2   999  BX3999      0.3531
     32  N32       -1.2650    8.5190   33.1860 N.2   999  BX3999      0.1879
     33  C33       -2.9770    6.9470   33.5190 C.3   999  BX3999      0.1349
     34  C34       -3.3890    7.0160   30.6450 C.3   999  BX3999      0.2059
@<TRIPOS>BOND
     1     3     2    2
     2     5     6   ar
     3     5     4   ar
     4     6     7   ar
     5     2     4    1
     6     2     1    1
     7     4     9   ar
     8     7    10   ar
     9     7     8   ar
    10    10    11   ar
    11     9     8   ar
    12     8    12   ar
    13    11    13   ar
    14    12    13   ar
    15    13    14    1
    16    14    15    1
    17    15    22    1
    18    15    16    1
    19    23    22   ar
    20    22    24   ar
    21    16    17   ar
    22    16    21   ar
    23    17    18   ar
    24    21    20   ar
    25    18    19   ar
    26    20    19   ar
    27    19    25    1
    28    25    26    1
    29    26    30    1
    30    26    27    1
    31    30    29    1
    32    27    34    1
    33    29    28    1
    34    34    28    1
    35    28    31    1
    36    31    32    2
    37    31    33    1
