@<TRIPOS>MOLECULE
1mtu_BX3_A_1.pdb
 35 38 0 0 0
SMALL
GASTEIGER

@<TRIPOS>ATOM
      1  N1        -5.2280    9.9360   19.8730 N.pl3 998  BX3998      0.2047
      2  C2        -3.7970    9.8330   19.6350 C.2   998  BX3998      0.4766
      3  N3        -3.0540   10.8080   19.2480 N.pl3 998  BX3998      0.2047
      4  C4        -3.1590    8.4920   19.8720 C.ar  998  BX3998      0.0975
      5  C5        -1.8750    8.2350   19.3210 C.ar  998  BX3998      0.0080
      6  C6        -1.2500    7.0080   19.5300 C.ar  998  BX3998      0.0003
      7  C7        -1.9110    6.0210   20.2810 C.ar  998  BX3998     -0.0000
      8  C8        -3.2200    6.2210   20.8600 C.ar  998  BX3998     -0.0001
      9  C9        -3.8210    7.4870   20.6270 C.ar  998  BX3998      0.0080
     10  C10       -1.2500    4.8330   20.4510 C.ar  998  BX3998     -0.0003
     11  C11       -1.9240    3.8480   21.2070 C.ar  998  BX3998     -0.0042
     12  C12       -3.9710    5.0880   21.7210 C.ar  998  BX3998     -0.0042
     13  C13       -3.2310    3.9520   21.8080 C.ar  998  BX3998     -0.0213
     14  C14       -3.7650    2.7150   22.6210 C.3   998  BX3998      0.0420
     15  C15       -4.4800    3.1540   23.9420 C.3   998  BX3998      0.1299
     16  C16       -3.5680    3.7580   25.0270 C.ar  998  BX3998     -0.0113
     17  C17       -2.3080    3.2470   25.4120 C.ar  998  BX3998     -0.0006
     18  C18       -1.5810    3.9030   26.4230 C.ar  998  BX3998      0.0366
     19  C19       -2.1050    5.0580   27.0460 C.ar  998  BX3998      0.1384
     20  C20       -3.3550    5.5690   26.6620 C.ar  998  BX3998      0.0366
     21  C21       -4.0720    4.9130   25.6600 C.ar  998  BX3998     -0.0006
     22  C22       -5.4030    2.1160   24.5260 C.2   998  BX3998      0.3687
     23  O23       -6.6170    2.4870   24.7450 O.co2 998  BX3998     -0.2453
     24  O24       -4.9110    0.9570   24.7720 O.co2 998  BX3998     -0.2453
     25  O25       -1.3600    5.6710   28.0480 O.3   998  BX3998     -0.4791
     26  C26       -1.9390    6.6190   28.9480 C.3   998  BX3998      0.1687
     27  C27       -2.9090    5.9600   29.9520 C.3   998  BX3998      0.0609
     28  N28       -2.2550    7.7280   31.5290 N.3   998  BX3998     -0.2603
     29  C29       -1.3280    8.3780   30.6150 C.3   998  BX3998      0.0770
     30  C30       -0.7620    7.2950   29.6870 C.3   998  BX3998      0.0609
     31  C31       -2.0320    7.7710   32.8210 C.3   998  BX3998      0.1282
     32  N32       -1.2480    8.5900   33.3860 N.3   998  BX3998     -0.2313
     33  C33       -2.7120    6.8000   33.7450 C.3   998  BX3998      0.0367
     34  C34       -3.4010    7.0370   30.9390 C.3   998  BX3998      0.0770
     35  HN3       -0.5390    9.0760   32.8490 H     998  BX3998      0.1428
@<TRIPOS>BOND
     1     3     2    2
     2     5     6   ar
     3     5     4   ar
     4     6     7   ar
     5     2     4    1
     6     2     1    1
     7     4     9   ar
     8     7    10   ar
     9     7     8   ar
    10    10    11   ar
    11     9     8   ar
    12     8    12   ar
    13    11    13   ar
    14    12    13   ar
    15    13    14    1
    16    14    15    1
    17    15    22    1
    18    15    16    1
    19    22    23   ar
    20    22    24   ar
    21    16    17   ar
    22    16    21   ar
    23    17    18   ar
    24    21    20   ar
    25    18    19   ar
    26    20    19   ar
    27    19    25    1
    28    25    26    1
    29    26    30    1
    30    26    27    1
    31    30    29    1
    32    27    34    1
    33    29    28    1
    34    34    28    1
    35    28    31    1
    36    31    32    1
    37    31    33    1
    38    35    32    1
