@<TRIPOS>MOLECULE
1mtv_BX3_A_1.pdb
 34 37 0 0 0
SMALL
GASTEIGER

@<TRIPOS>ATOM
      1  N1        46.3820   18.2300   54.9740 N.pl3 999  BX3999      0.2047
      2  C2        45.5870   17.9370   54.0010 C.2   999  BX3999      0.4766
      3  N3        45.1200   16.7710   53.7550 N.pl3 999  BX3999      0.2047
      4  C4        45.1940   19.0700   53.0820 C.ar  999  BX3999      0.0975
      5  C5        44.6570   18.8310   51.7960 C.ar  999  BX3999      0.0080
      6  C6        44.2570   19.8940   50.9750 C.ar  999  BX3999      0.0003
      7  C7        44.4060   21.2220   51.4300 C.ar  999  BX3999     -0.0000
      8  C8        44.9480   21.4800   52.7150 C.ar  999  BX3999     -0.0001
      9  C9        45.3460   20.4010   53.5380 C.ar  999  BX3999      0.0080
     10  C10       44.0200   22.3090   50.6270 C.ar  999  BX3999     -0.0003
     11  C11       44.1840   23.6240   51.0890 C.ar  999  BX3999     -0.0042
     12  C12       45.0870   22.7990   53.1590 C.ar  999  BX3999     -0.0042
     13  C13       44.7290   23.8720   52.3530 C.ar  999  BX3999     -0.0213
     14  C14       44.9250   25.2750   52.9480 C.3   999  BX3999      0.0420
     15  C15       43.7640   26.2810   52.6300 C.3   999  BX3999      0.1299
     16  C16       42.4400   25.8950   53.2800 C.ar  999  BX3999     -0.0113
     17  C17       42.3220   25.4770   54.6140 C.ar  999  BX3999     -0.0006
     18  C18       41.0570   25.0960   55.1140 C.ar  999  BX3999      0.0366
     19  C19       39.9070   25.1630   54.2620 C.ar  999  BX3999      0.1384
     20  C20       40.0470   25.5880   52.9190 C.ar  999  BX3999      0.0366
     21  C21       41.3110   25.9390   52.4500 C.ar  999  BX3999     -0.0006
     22  C22       44.0870   27.7260   52.9560 C.2   999  BX3999      0.3687
     23  O23       43.4230   28.6030   52.3380 O.co2 999  BX3999     -0.2453
     24  O24       45.0010   27.9970   53.7710 O.co2 999  BX3999     -0.2453
     25  O25       38.6060   24.8010   54.6670 O.3   999  BX3999     -0.4789
     26  C26       38.2080   24.8730   56.0220 C.3   999  BX3999      0.1742
     27  C27       37.8540   26.3540   56.2790 C.3   999  BX3999      0.0944
     28  N28       36.4000   25.5590   58.1470 N.pl3 999  BX3999     -0.1903
     29  C29       36.6380   24.1380   57.7760 C.3   999  BX3999      0.2059
     30  C30       36.9170   24.0450   56.2490 C.3   999  BX3999      0.0944
     31  C31       35.2870   25.9290   58.7640 C.2   999  BX3999      0.3531
     32  N32       34.2200   25.2090   58.9070 N.2   999  BX3999      0.1879
     33  C33       35.1100   27.3130   59.3940 C.3   999  BX3999      0.1349
     34  C34       37.4860   26.5110   57.7840 C.3   999  BX3999      0.2059
@<TRIPOS>BOND
     1    10    11   ar
     2    10     7   ar
     3     6     7   ar
     4     6     5   ar
     5    11    13   ar
     6     7     8   ar
     7     5     4   ar
     8    23    22   ar
     9    13    14    1
    10    13    12   ar
    11    21    20   ar
    12    21    16   ar
    13    15    14    1
    14    15    22    1
    15    15    16    1
    16     8    12   ar
    17     8     9   ar
    18    20    19   ar
    19    22    24   ar
    20     4     9   ar
    21     4     2    1
    22    16    17   ar
    23     3     2    2
    24     2     1    1
    25    19    25    1
    26    19    18   ar
    27    17    18   ar
    28    25    26    1
    29    26    30    1
    30    26    27    1
    31    30    29    1
    32    27    34    1
    33    29    28    1
    34    34    28    1
    35    28    31    1
    36    31    32    2
    37    31    33    1
