@<TRIPOS>MOLECULE
1mtw_DX9_A_1.pdb
 33 36 0 0 0
SMALL
GASTEIGER

@<TRIPOS>ATOM
      1  C12       29.1290   11.4250   15.9630 C.ar  999  DX9999     -0.0042
      2  C13       28.8110   10.6450   17.0780 C.ar  999  DX9999     -0.0213
      3  C11       28.3350   11.2370   18.2700 C.ar  999  DX9999     -0.0042
      4  C10       28.1740   12.6380   18.3360 C.ar  999  DX9999     -0.0003
      5  C7        28.4890   13.4200   17.2120 C.ar  999  DX9999     -0.0000
      6  C6        28.3420   14.8070   17.2320 C.ar  999  DX9999      0.0003
      7  C5        28.6700   15.5540   16.0850 C.ar  999  DX9999      0.0080
      8  C4        29.1590   14.9250   14.9110 C.ar  999  DX9999      0.0975
      9  C9        29.2930   13.5430   14.8900 C.ar  999  DX9999      0.0080
     10  C8        28.9740   12.8030   16.0210 C.ar  999  DX9999     -0.0001
     11  C2        29.5010   15.7310   13.6910 C.2   999  DX9999      0.4766
     12  N2        28.9960   17.0900   13.6140 N.pl3 999  DX9999      0.2047
     13  N1        30.1770   15.1780   12.7650 N.pl3 999  DX9999      0.2047
     14  C14       29.0130    9.1480   16.9340 C.3   999  DX9999      0.0420
     15  C22       28.0140    6.8790   17.4520 C.2   999  DX9999      0.3687
     16  O23       27.6190    6.2270   18.4150 O.co2 999  DX9999     -0.2453
     17  O24       28.6210    6.2620   16.5880 O.co2 999  DX9999     -0.2453
     18  C15       27.7540    8.3360   17.3380 C.3   999  DX9999      0.1299
     19  N28       21.9360    7.1010   11.9800 N.pl3 999  DX9999     -0.1871
     20  C27       21.9280    6.9890   13.4310 C.3   999  DX9999      0.2459
     21  C26       21.9820    8.4810   13.8330 C.3   999  DX9999      0.2164
     22  C30       21.0260    9.0990   12.7970 C.3   999  DX9999      0.0986
     23  C29       21.5120    8.4190   11.4890 C.3   999  DX9999      0.2061
     24  C31       22.2830    6.0930   11.2050 C.2   999  DX9999      0.3532
     25  N32       22.2530    6.1890    9.9300 N.2   999  DX9999      0.1879
     26  C33       22.7350    4.7550   11.8050 C.3   999  DX9999      0.1349
     27  C21       25.0330    8.2720   17.0890 C.ar  999  DX9999     -0.0006
     28  C20       24.0060    8.4440   16.2600 C.ar  999  DX9999      0.0366
     29  C17       26.6970    8.8470   15.0930 C.ar  999  DX9999     -0.0006
     30  C18       25.5950    9.0090   14.2620 C.ar  999  DX9999      0.0366
     31  C19       24.2920    8.8250   14.7840 C.ar  999  DX9999      0.1386
     32  O25       23.3160    9.0370   13.8050 O.3   999  DX9999     -0.4748
     33  C16       26.4880    8.4970   16.4490 C.ar  999  DX9999     -0.0113
@<TRIPOS>BOND
     1    25    24    2
     2    24    26    1
     3    24    19    1
     4    23    19    1
     5    23    22    1
     6    19    20    1
     7    13    11    2
     8    22    21    1
     9    20    21    1
    10    12    11    1
    11    11     8    1
    12    32    21    1
    13    32    31    1
    14    30    31   ar
    15    30    29   ar
    16    31    28   ar
    17     9     8   ar
    18     9    10   ar
    19     8     7   ar
    20    29    33   ar
    21     1    10   ar
    22     1     2   ar
    23    10     5   ar
    24     7     6   ar
    25    28    27   ar
    26    33    27   ar
    27    33    18    1
    28    17    15   ar
    29    14     2    1
    30    14    18    1
    31     2     3   ar
    32     5     6   ar
    33     5     4   ar
    34    18    15    1
    35    15    16   ar
    36     3     4   ar
