@<TRIPOS>MOLECULE
1mu0_PHK_A_1.pdb
 13 13 0 0 0
SMALL
GASTEIGER

@<TRIPOS>ATOM
      1  CB        17.4830    7.5550    8.2380 C.3   300  PHK300      0.0480
      2  CG        18.3670    8.5960    7.6230 C.ar  300  PHK300     -0.0206
      3  CD1       17.8580    9.4840    6.6750 C.ar  300  PHK300     -0.0042
      4  CD2       19.7150    8.6800    7.9710 C.ar  300  PHK300     -0.0042
      5  CE1       18.6830   10.4430    6.0760 C.ar  300  PHK300     -0.0003
      6  CE2       20.5510    9.6330    7.3790 C.ar  300  PHK300     -0.0003
      7  CZ        20.0310   10.5170    6.4300 C.ar  300  PHK300     -0.0000
      8  O         16.0420    6.1480   10.2950 O.3   300  PHK300     -0.2202
      9  C1        14.1940    7.6910   10.0930 C.3   300  PHK300      0.1291
     10 CL         12.9640    6.6140   10.7890 Cl    300  PHK300     -0.1109
     11  C         15.3470    6.9860    9.3920 C.3   300  PHK300      0.1859
     12  N         16.6020    9.0100   10.0320 N.3   300  PHK300     -0.1298
     13  CA        16.2280    8.1250    8.8950 C.3   300  PHK300      0.1277
@<TRIPOS>BOND
     1     5     7   ar
     2     5     3   ar
     3     7     6   ar
     4     3     2   ar
     5     6     4   ar
     6     2     4   ar
     7     2     1    1
     8     1    13    1
     9    13    11    1
    10    13    12    1
    11    11     9    1
    12    11     8    1
    13     9    10    1
