@<TRIPOS>MOLECULE
1mu6_CDA_B_1.pdb
 31 33 0 0 0
SMALL
GASTEIGER

@<TRIPOS>ATOM
      1  N1        21.0030  -16.5290   25.1660 N.ar  248  CDA248     -0.2428
      2  C2        19.9150  -15.9270   25.8320 C.ar  248  CDA248      0.1208
      3  C3        20.0020  -14.5590   26.3240 C.ar  248  CDA248      0.0202
      4  C4        21.2530  -13.8830   26.0790 C.ar  248  CDA248      0.0030
      5  C5        22.3420  -14.5410   25.3720 C.ar  248  CDA248      0.0207
      6  C6        22.2100  -15.9040   24.9070 C.ar  248  CDA248      0.0986
      7  C11       18.6310  -16.7480   25.9420 C.3   248  CDA248      0.3180
      8  C12       18.0830  -17.1760   24.5920 C.3   248  CDA248      0.1862
      9  F13       17.6280  -16.1140   26.5880 F     248  CDA248     -0.1960
     10  F1        18.9320  -17.8750   26.6020 F     248  CDA248     -0.1960
     11  N18       17.4760  -16.0450   23.8730 N.pl3 248  CDA248     -0.2101
     12  C21       18.0880  -15.3250   22.8760 C.ar  248  CDA248      0.2050
     13  C22       17.4500  -14.0430   22.4650 C.ar  248  CDA248      0.2942
     14  N23       18.0980  -13.3440   21.4690 N.ar  248  CDA248     -0.2865
     15  C24       19.3180  -13.8330   20.8740 C.ar  248  CDA248      0.0599
     16  C25       19.8710  -15.0400   21.3370 C.ar  248  CDA248      0.1133
     17  N26       19.2510  -15.7300   22.2940 N.ar  248  CDA248     -0.2223
     18  O28       16.4120  -13.6170   22.9680 O.2   248  CDA248     -0.2638
     19  C29       20.0270  -13.1170   19.7930 C.3   248  CDA248      0.0518
     20  C33       17.4940  -12.0810   21.0030 C.3   248  CDA248      0.1957
     21  C34       16.0640  -12.2970   20.5380 C.2   248  CDA248      0.2649
     22  N37       15.1990  -11.3330   20.9400 N.am  248  CDA248     -0.1972
     23  O38       15.7760  -13.2640   19.8350 O.2   248  CDA248     -0.2712
     24  C39       13.7930  -11.3680   20.5230 C.3   248  CDA248      0.1629
     25  C40       12.8490  -11.3470   21.7030 C.ar  248  CDA248      0.1082
     26  C43       11.8640  -12.3760   21.8290 C.ar  248  CDA248      0.1553
     27  C44       10.9730  -12.3960   22.9570 C.ar  248  CDA248      0.0325
     28  C45       11.0960  -11.3520   23.9430 C.ar  248  CDA248      0.0230
     29  N46       12.9510  -10.3500   22.6580 N.ar  248  CDA248     -0.2441
     30  F47       11.8270  -13.2730   20.8440 F     248  CDA248     -0.2029
     31  C50       12.1070  -10.3310   23.7580 C.ar  248  CDA248      0.0987
@<TRIPOS>BOND
     1    19    15    1
     2    23    21    2
     3    24    22    1
     4    24    25    1
     5    21    22   am
     6    21    20    1
     7    30    26    1
     8    15    16   ar
     9    15    14   ar
    10    20    14    1
    11    16    17   ar
    12    14    13   ar
    13    25    26   ar
    14    25    29   ar
    15    26    27   ar
    16    17    12   ar
    17    13    12   ar
    18    13    18    2
    19    29    31   ar
    20    12    11    1
    21    27    28   ar
    22    31    28   ar
    23    11     8    1
    24     8     7    1
    25     6     1   ar
    26     6     5   ar
    27     1     2   ar
    28     5     4   ar
    29     2     7    1
    30     2     3   ar
    31     7     9    1
    32     7    10    1
    33     4     3   ar
