@<TRIPOS>MOLECULE
1mu8_CDB_B_1.pdb
 32 34 0 0 0
SMALL
GASTEIGER

@<TRIPOS>ATOM
      1  N1        21.1780  -16.7010   25.4070 N.ar  248  CDB248     -0.2428
      2  C2        20.0330  -16.0520   25.9220 C.ar  248  CDB248      0.1208
      3  C3        20.0650  -14.6260   26.2280 C.ar  248  CDB248      0.0202
      4  C4        21.3150  -13.9430   25.9570 C.ar  248  CDB248      0.0030
      5  C5        22.4530  -14.6530   25.3870 C.ar  248  CDB248      0.0207
      6  C6        22.3790  -16.0760   25.1120 C.ar  248  CDB248      0.0986
      7  C11       18.7470  -16.8750   26.0440 C.3   248  CDB248      0.3180
      8  C12       18.1550  -17.2280   24.6820 C.3   248  CDB248      0.1862
      9  F13       17.7800  -16.2900   26.7950 F     248  CDB248     -0.1960
     10  F1        19.0610  -18.0500   26.6110 F     248  CDB248     -0.1960
     11  N18       17.5530  -16.0680   23.9960 N.pl3 248  CDB248     -0.2101
     12  C21       18.1460  -15.3600   22.9720 C.ar  248  CDB248      0.2050
     13  C22       17.4540  -14.1250   22.4830 C.ar  248  CDB248      0.2942
     14  N23       18.1050  -13.4120   21.4820 N.ar  248  CDB248     -0.2865
     15  C24       19.3510  -13.8850   20.9220 C.ar  248  CDB248      0.0599
     16  C25       19.9300  -15.0650   21.4330 C.ar  248  CDB248      0.1133
     17  N26       19.3360  -15.7330   22.4270 N.ar  248  CDB248     -0.2223
     18  O28       16.3690  -13.7490   22.9310 O.2   248  CDB248     -0.2638
     19  C29       20.0650  -13.1800   19.8330 C.3   248  CDB248      0.0518
     20  C33       17.4600  -12.1780   20.9700 C.3   248  CDB248      0.1957
     21  C34       16.0350  -12.4860   20.5320 C.2   248  CDB248      0.2649
     22  N37       15.0910  -11.5730   20.9010 N.am  248  CDB248     -0.1972
     23  O38       15.7950  -13.4930   19.8760 O.2   248  CDB248     -0.2712
     24  C39       13.6630  -11.7940   20.5840 C.3   248  CDB248      0.1629
     25  C40       12.7380  -11.6840   21.7980 C.ar  248  CDB248      0.1079
     26  C43       12.8360  -10.5670   22.6690 C.ar  248  CDB248      0.1513
     27  C44       11.9870  -10.4830   23.8270 C.ar  248  CDB248      0.0084
     28  C45       11.0360  -11.5280   24.1130 C.ar  248  CDB248      0.0186
     29  N46       11.8020  -12.6630   22.0970 N.ar  248  CDB248     -0.2441
     30  F47       13.7300   -9.6110   22.3840 F     248  CDB248     -0.2032
     31  C50       10.9610  -12.6350   23.1990 C.ar  248  CDB248      0.0983
     32  C1        12.0660   -9.3140   24.7450 C.3   248  CDB248      0.0335
@<TRIPOS>BOND
     1    19    15    1
     2    23    21    2
     3    21    22   am
     4    21    20    1
     5    24    22    1
     6    24    25    1
     7    15    16   ar
     8    15    14   ar
     9    20    14    1
    10    16    17   ar
    11    14    13   ar
    12    25    29   ar
    13    25    26   ar
    14    29    31   ar
    15    30    26    1
    16    17    12   ar
    17    13    18    2
    18    13    12   ar
    19    26    27   ar
    20    12    11    1
    21    31    28   ar
    22    27    28   ar
    23    27    32    1
    24    11     8    1
    25     8     7    1
    26     6     5   ar
    27     6     1   ar
    28     5     4   ar
    29     1     2   ar
    30     2     7    1
    31     2     3   ar
    32     4     3   ar
    33     7    10    1
    34     7     9    1
