@<TRIPOS>MOLECULE
1mud_ADE_A_1.pdb
 10 11 0 0 0
SMALL
GASTEIGER

@<TRIPOS>ATOM
      1  N9       -26.1860   -7.8920   18.4120 N.2   301  ADE301     -0.1914
      2  C8       -26.9810   -8.8390   17.8200 C.3   301  ADE301      0.2618
      3  N7       -26.4830  -10.0580   17.8760 N.2   301  ADE301     -0.2267
      4  C5       -25.3110   -9.9040   18.6120 C.2   301  ADE301      0.2303
      5  C6       -24.3340  -10.8190   19.0250 C.2   301  ADE301      0.4393
      6  N6       -24.3790  -12.1330   18.7800 N.pl3 301  ADE301      0.2185
      7  N1       -23.2770  -10.3360   19.7320 N.2   301  ADE301     -0.0265
      8  C2       -23.2180   -9.0230   19.9710 C.3   301  ADE301      0.4008
      9  N3       -24.0870   -8.0610   19.6330 N.2   301  ADE301     -0.1640
     10  C4       -25.1160   -8.5700   18.9430 C.1   301  ADE301      0.0579
@<TRIPOS>BOND
     1     2     3    1
     2     2     1    1
     3     3     4    2
     4     1    10    2
     5     4    10    1
     6     4     5    1
     7     6     5    1
     8    10     9    2
     9     5     7    2
    10     9     8    1
    11     7     8    1
