@<TRIPOS>MOLECULE
1mue_CDD_B_1.pdb
 32 34 0 0 0
SMALL
GASTEIGER

@<TRIPOS>ATOM
      1  C1        22.0800  -15.7580   25.0900 C.3   248  CDD248      0.1612
      2  N2        20.9530  -16.4530   25.2050 N.4   248  CDD248     -0.2011
      3  C3        19.8510  -15.8890   25.7250 C.2   248  CDD248      0.1248
      4  C4        19.8360  -14.5630   26.1210 C.2   248  CDD248      0.0200
      5  C5        20.9710  -13.8180   25.9770 C.2   248  CDD248     -0.0012
      6  C6        22.1230  -14.4260   25.4800 C.2   248  CDD248      0.0006
      7  C11       18.6030  -16.7060   25.9480 C.3   248  CDD248      0.3181
      8  C12       17.9180  -17.0720   24.6620 C.3   248  CDD248      0.1862
      9  F13       18.9660  -17.8240   26.5990 F     248  CDD248     -0.1960
     10  F14       17.7360  -16.0050   26.7280 F     248  CDD248     -0.1960
     11  N15       17.1580  -15.9350   24.1360 N.pl3 248  CDD248     -0.2101
     12  C18       17.9180  -15.2540   23.1780 C.ar  248  CDD248      0.2051
     13  C19       17.2740  -14.0320   22.4940 C.ar  248  CDD248      0.2951
     14  N20       18.0090  -13.4450   21.5160 N.ar  248  CDD248     -0.2737
     15  C21       19.3550  -13.9470   21.1720 C.ar  248  CDD248      0.1410
     16  C22       19.9300  -15.0380   21.9380 C.ar  248  CDD248      0.1295
     17  N23       19.1980  -15.6190   22.9100 N.ar  248  CDD248     -0.2210
     18  C24       17.5460  -12.2610   20.7780 C.3   248  CDD248      0.1966
     19  C25       16.0670  -12.3310   20.4100 C.2   248  CDD248      0.2649
     20  N28       15.2870  -11.4840   21.1270 N.am  248  CDD248     -0.1988
     21  C29       13.8690  -11.4110   20.7680 C.3   248  CDD248      0.1438
     22  C30       12.9150  -11.4250   21.9620 C.ar  248  CDD248      0.0269
     23  C33       12.9000  -10.3750   22.8950 C.ar  248  CDD248     -0.0003
     24  C34       12.0190  -10.4350   24.0000 C.ar  248  CDD248     -0.0001
     25  C35       11.1120  -11.4930   24.1370 C.ar  248  CDD248      0.0023
     26  C2        11.1250  -12.5320   23.2100 C.ar  248  CDD248      0.0294
     27  C37       12.0370  -12.4940   22.1420 C.ar  248  CDD248      0.1378
     28  O42       16.1420  -13.6640   22.8260 O.2   248  CDD248     -0.2638
     29 CL43       20.2420  -13.2370   19.8930 Cl    248  CDD248     -0.0614
     30  O44       15.6570  -13.1090   19.5420 O.2   248  CDD248     -0.2712
     31  F1        12.1890  -13.5200   21.2880 F     248  CDD248     -0.2044
     32  O1        20.9520  -17.7700   24.8070 O.3   248  CDD248     -0.0840
@<TRIPOS>BOND
     1    30    19    2
     2    29    15    1
     3    19    18    1
     4    19    20   am
     5    21    20    1
     6    21    22    1
     7    18    14    1
     8    15    14   ar
     9    15    16   ar
    10    31    27    1
    11    14    13   ar
    12    16    17   ar
    13    22    27   ar
    14    22    23   ar
    15    27    26   ar
    16    13    28    2
    17    13    12   ar
    18    23    24   ar
    19    17    12   ar
    20    12    11    1
    21    26    25   ar
    22    24    25   ar
    23    11     8    1
    24     8     7    1
    25    32     2    1
    26     1     2    1
    27     1     6    1
    28     2     3    1
    29     6     5    2
    30     3     7    1
    31     3     4    2
    32     7     9    1
    33     7    10    1
    34     5     4    1
