@<TRIPOS>MOLECULE
1mui_AB1_B_1.pdb
 46 49 0 0 0
SMALL
GASTEIGER

@<TRIPOS>ATOM
      1  C1       -12.8260   12.8350   34.8630 C.3   100  AB1100      0.1409
      2  C2       -10.6950   13.4560   33.6930 C.3   100  AB1100      0.1053
      3  N1       -11.3120   14.7950   33.3690 N.am  100  AB1100     -0.2295
      4  C3       -12.6020   15.1110   33.7730 C.1   100  AB1100      0.2113
      5  N2       -13.3030   14.1780   34.4780 N.2   100  AB1100     -0.1900
      6  C4        -6.2280   18.1490   27.5220 C.ar  100  AB1100     -0.0204
      7  C5        -5.5330   18.8920   26.5370 C.ar  100  AB1100     -0.0042
      8  C6        -4.2180   18.5350   26.1490 C.ar  100  AB1100     -0.0003
      9  C7        -3.5830   17.4290   26.7450 C.ar  100  AB1100     -0.0000
     10  C8        -4.2660   16.6810   27.7290 C.ar  100  AB1100     -0.0003
     11  C9        -5.5790   17.0370   28.1160 C.ar  100  AB1100     -0.0042
     12  O1       -13.1160   16.1860   33.5160 O.2   100  AB1100     -0.2063
     13  C10      -10.5260   15.8120   32.5870 C.3   100  AB1100      0.1614
     14  C11      -10.3560   15.3130   31.1260 C.2   100  AB1100      0.2600
     15  N3       -11.2180   15.9240   30.2550 N.am  100  AB1100     -0.2054
     16  C12      -11.2830   15.6520   28.8020 C.3   100  AB1100      0.1023
     17  C13       -9.1410   16.1410   33.2720 C.3   100  AB1100      0.0278
     18  C14       -8.3090   17.1860   32.5040 C.3   100  AB1100      0.0022
     19  C15       -9.3490   16.6480   34.7180 C.3   100  AB1100      0.0022
     20  O2        -9.5230   14.4560   30.8260 O.2   100  AB1100     -0.2715
     21  C16      -12.7040   11.1390   29.1350 C.ar  100  AB1100     -0.0003
     22  C17      -13.3650   11.1000   30.3860 C.ar  100  AB1100     -0.0000
     23  C18      -13.7730   12.3060   31.0020 C.ar  100  AB1100     -0.0003
     24  C19      -13.5190   13.5420   30.3650 C.ar  100  AB1100     -0.0042
     25  C20      -12.8550   13.5900   29.1090 C.ar  100  AB1100     -0.0205
     26  C21      -12.4510   12.3790   28.5010 C.ar  100  AB1100     -0.0042
     27  C22      -12.5910   14.9100   28.4420 C.3   100  AB1100      0.0481
     28  C23      -11.2870   16.9600   27.9810 C.3   100  AB1100      0.0567
     29  C24      -10.1160   17.9510   28.1120 C.3   100  AB1100      0.1738
     30  C25       -8.7120   17.4430   27.6950 C.3   100  AB1100      0.1300
     31  N4        -8.7530   17.0970   26.2550 N.am  100  AB1100     -0.2011
     32  C26       -8.2660   15.9270   25.7320 C.2   100  AB1100      0.2859
     33  C27       -8.3990   15.8070   24.2010 C.3   100  AB1100      0.2911
     34  O3        -8.7210   17.0700   23.5900 O.3   100  AB1100     -0.4662
     35  C28       -8.2970   17.1830   22.2520 C.ar  100  AB1100      0.1312
     36  O4       -10.4330   19.0340   27.2710 O.3   100  AB1100     -0.2212
     37  C29       -7.6370   18.5480   27.9160 C.3   100  AB1100      0.0506
     38  O5        -7.7420   15.0210   26.3890 O.2   100  AB1100     -0.2693
     39  C30       -9.0670   16.6400   21.1650 C.ar  100  AB1100      0.0118
     40  C31       -8.5870   16.7880   19.8360 C.ar  100  AB1100     -0.0013
     41  C32       -7.3740   17.4590   19.5740 C.ar  100  AB1100     -0.0004
     42  C33       -6.6140   17.9970   20.6320 C.ar  100  AB1100     -0.0013
     43  C34       -7.0610   17.8680   21.9690 C.ar  100  AB1100      0.0118
     44  C35       -6.2340   18.4510   23.0640 C.3   100  AB1100      0.0342
     45  C36      -10.3740   15.9150   21.3830 C.3   100  AB1100      0.0342
     46  C37      -11.2960   12.7740   34.9400 C.3   100  AB1100      0.0495
@<TRIPOS>BOND
     1    41    40   ar
     2    41    42   ar
     3    40    39   ar
     4    42    43   ar
     5    39    45    1
     6    39    35   ar
     7    43    35   ar
     8    43    44    1
     9    35    34    1
    10    34    33    1
    11    33    32    1
    12    32    31   am
    13    32    38    2
    14     8     7   ar
    15     8     9   ar
    16    31    30    1
    17     7     6   ar
    18     9    10   ar
    19    36    29    1
    20     6    37    1
    21     6    11   ar
    22    30    37    1
    23    30    29    1
    24    10    11   ar
    25    28    29    1
    26    28    16    1
    27    27    16    1
    28    27    25    1
    29    26    25   ar
    30    26    21   ar
    31    16    15    1
    32    25    24   ar
    33    21    22   ar
    34    15    14   am
    35    24    23   ar
    36    22    23   ar
    37    20    14    2
    38    14    13    1
    39    18    17    1
    40    13    17    1
    41    13     3    1
    42    17    19    1
    43     3     2    1
    44     3     4   am
    45    12     4    2
    46     2    46    1
    47     4     5    2
    48     5     1    1
    49     1    46    1
