@<TRIPOS>MOLECULE
1muo_ADN_A_1.pdb
 19 21 0 0 0
SMALL
GASTEIGER

@<TRIPOS>ATOM
      1  O5'       37.1660   43.3850   20.6320 O.3     1  ADN1       -0.2176
      2  C5'       36.4960   42.1520   20.8930 C.3     1  ADN1        0.2143
      3  C4'       36.0340   41.5120   19.5990 C.3     1  ADN1        0.1851
      4  O4'       35.0080   42.3320   18.9850 O.3     1  ADN1       -0.3134
      5  C3'       37.1030   41.3550   18.5310 C.3     1  ADN1        0.2186
      6  O3'       37.8440   40.1530   18.7500 O.3     1  ADN1       -0.2174
      7  C2'       36.2890   41.3230   17.2350 C.3     1  ADN1        0.2570
      8  O2'       35.8160   40.0320   16.8960 O.3     1  ADN1       -0.2130
      9  C1'       35.1100   42.2460   17.5730 C.3     1  ADN1        0.3186
     10  N9        35.1510   43.6110   17.0300 N.pl3   1  ADN1       -0.1439
     11  C8        35.4880   44.7710   17.6900 C.3     1  ADN1        0.3377
     12  N7        35.3730   45.8500   16.9540 N.2     1  ADN1       -0.2095
     13  C5        34.9420   45.3730   15.7270 C.2     1  ADN1        0.2526
     14  C6        34.6200   46.0180   14.5300 C.2     1  ADN1        0.4393
     15  N6        34.6610   47.3370   14.3700 N.pl3   1  ADN1        0.2180
     16  N1        34.2360   45.2510   13.4880 N.2     1  ADN1        0.0021
     17  C2        34.1710   43.9260   13.6550 C.3     1  ADN1        0.5254
     18  N3        34.4340   43.2020   14.7330 N.2     1  ADN1       -0.0055
     19  C4        34.8190   43.9950   15.7500 C.2     1  ADN1        0.3518
@<TRIPOS>BOND
     1    16    17    1
     2    16    14    2
     3    17    18    1
     4    15    14    1
     5    14    13    1
     6    18    19    2
     7    13    19    1
     8    13    12    2
     9    19    10    1
    10     8     7    1
    11    12    11    1
    12    10     9    1
    13    10    11    1
    14     7     9    1
    15     7     5    1
    16     9     4    1
    17     5     6    1
    18     5     3    1
    19     4     3    1
    20     3     2    1
    21     1     2    1
