@<TRIPOS>MOLECULE
1muq_TDG_B_1.pdb
 23 24 0 0 0
SMALL
GASTEIGER

@<TRIPOS>ATOM
      1  C1        25.2940   45.9030   54.8190 C.3   302  TDG302      0.1976
      2  S1        26.0580   47.4430   54.3410 S.3   302  TDG302     -0.0782
      3  C2        25.6340   44.8440   53.7730 C.3   302  TDG302      0.2220
      4  O2        25.0030   45.1800   52.5470 O.3   302  TDG302     -0.2167
      5  C3        25.1590   43.4640   54.2460 C.3   302  TDG302      0.2181
      6  O3        25.5950   42.4660   53.3370 O.3   302  TDG302     -0.2175
      7  C4        25.7190   43.1680   55.6380 C.3   302  TDG302      0.2143
      8  O4        27.1320   43.0470   55.5610 O.3   302  TDG302     -0.2176
      9  C5        25.3500   44.3060   56.5950 C.3   302  TDG302      0.1820
     10  O5        25.8640   45.5570   56.0890 O.3   302  TDG302     -0.3397
     11  C6        25.9200   44.1150   57.9910 C.3   302  TDG302      0.2142
     12  O6        25.7390   45.2780   58.7910 O.3   302  TDG302     -0.2176
     13  C1'       25.4610   48.6380   55.5410 C.3   302  TDG302      0.1976
     14  C2'       26.1290   49.9920   55.2520 C.3   302  TDG302      0.2220
     15  O2'       27.5010   49.9250   55.6080 O.3   302  TDG302     -0.2167
     16  C3'       25.4580   51.1180   56.0430 C.3   302  TDG302      0.2181
     17  O3'       25.9860   52.3700   55.6330 O.3   302  TDG302     -0.2175
     18  C4'       23.9510   51.0970   55.8090 C.3   302  TDG302      0.2143
     19  O4'       23.6790   51.3810   54.4440 O.3   302  TDG302     -0.2176
     20  C5'       23.4030   49.7180   56.1590 C.3   302  TDG302      0.1820
     21  O5'       24.0390   48.7160   55.3370 O.3   302  TDG302     -0.3397
     22  C6'       21.9110   49.6340   55.8970 C.3   302  TDG302      0.2142
     23  O6'       21.4330   48.3090   56.0670 O.3   302  TDG302     -0.2176
@<TRIPOS>BOND
     1     4     3    1
     2     6     5    1
     3     3     5    1
     4     3     1    1
     5     5     7    1
     6     2     1    1
     7     2    13    1
     8    19    18    1
     9     1    10    1
    10    14    13    1
    11    14    15    1
    12    14    16    1
    13    21    13    1
    14    21    20    1
    15     8     7    1
    16    17    16    1
    17     7     9    1
    18    18    16    1
    19    18    20    1
    20    22    23    1
    21    22    20    1
    22    10     9    1
    23     9    11    1
    24    11    12    1
