@<TRIPOS>MOLECULE
1muq_GAL_A_1.pdb
 12 12 0 0 0
SMALL
GASTEIGER

@<TRIPOS>ATOM
      1  C1        38.3920   82.9710   22.7240 C.3   301  GAL301      0.3024
      2  C2        37.9220   81.6730   23.3990 C.3   301  GAL301      0.2434
      3  C3        37.0620   81.9670   24.6380 C.3   301  GAL301      0.2199
      4  C4        37.7030   83.0180   25.5450 C.3   301  GAL301      0.2144
      5  C5        38.1590   84.2300   24.7270 C.3   301  GAL301      0.1836
      6  C6        38.8850   85.2730   25.5410 C.3   301  GAL301      0.2142
      7  O1        39.2890   82.6840   21.7010 O.3   301  GAL301     -0.1869
      8  O2        37.1630   80.9070   22.4760 O.3   301  GAL301     -0.2148
      9  O3        36.9080   80.7750   25.3800 O.3   301  GAL301     -0.2174
     10  O4        38.8110   82.4390   26.2170 O.3   301  GAL301     -0.2176
     11  O5        39.0510   83.8120   23.6790 O.3   301  GAL301     -0.3236
     12  O6        38.4500   86.5780   25.1840 O.3   301  GAL301     -0.2176
@<TRIPOS>BOND
     1     7     1    1
     2     8     2    1
     3     1     2    1
     4     1    11    1
     5     2     3    1
     6    11     5    1
     7     3     9    1
     8     3     4    1
     9     5     6    1
    10     5     4    1
    11    12     6    1
    12     4    10    1
