@<TRIPOS>MOLECULE
1muu_NAD_A_1.pdb
 35 38 0 0 0
SMALL
GASTEIGER

@<TRIPOS>ATOM
      1  PA       -50.0710    3.4540  -35.6950 P.3   1001  NAD1001     0.2189
      2  O1A      -50.4190    2.0280  -35.7290 O.2   1001  NAD1001    -0.5170
      3  O2A      -50.7590    4.2990  -34.6100 O.3   1001  NAD1001    -0.4371
      4  O5B      -50.3260    4.1170  -37.1480 O.3   1001  NAD1001    -0.3112
      5  C5B      -49.7200    3.5790  -38.3060 C.3   1001  NAD1001     0.1813
      6  C4B      -50.6360    3.7800  -39.5070 C.3   1001  NAD1001     0.1821
      7  O4B      -50.0710    3.2360  -40.6900 O.3   1001  NAD1001    -0.3135
      8  C3B      -51.9910    3.0930  -39.3230 C.3   1001  NAD1001     0.2184
      9  O3B      -53.0120    4.0580  -39.4220 O.3   1001  NAD1001    -0.2174
     10  C2B      -52.0730    2.0800  -40.4480 C.3   1001  NAD1001     0.2570
     11  O2B      -53.3930    1.9060  -40.9040 O.3   1001  NAD1001    -0.2130
     12  C1B      -51.1390    2.7210  -41.4680 C.3   1001  NAD1001     0.3186
     13  N9A      -50.6520    1.8240  -42.5370 N.pl3 1001  NAD1001    -0.1439
     14  C8A      -50.2170    0.5340  -42.4350 C.3   1001  NAD1001     0.3377
     15  N7A      -49.8600    0.1110  -43.6700 N.2   1001  NAD1001    -0.2095
     16  C5A      -50.0530    1.1120  -44.5560 C.2   1001  NAD1001     0.2526
     17  C6A      -49.8580    1.2170  -45.9330 C.2   1001  NAD1001     0.4393
     18  N6A      -49.6240    0.1450  -46.6830 N.pl3 1001  NAD1001     0.2180
     19  N1A      -50.1600    2.4000  -46.5630 N.2   1001  NAD1001     0.0021
     20  C2A      -50.6500    3.4710  -45.8430 C.3   1001  NAD1001     0.5254
     21  N3A      -50.8480    3.3550  -44.4850 N.2   1001  NAD1001    -0.0055
     22  C4A      -50.5530    2.1940  -43.8510 C.2   1001  NAD1001     0.3518
     23  O3       -48.4740    3.5540  -35.5320 O.3   1001  NAD1001    -0.2703
     24  PN       -47.8230    4.7820  -34.7290 P.3   1001  NAD1001     0.2189
     25  O1N      -47.9040    4.4900  -33.2740 O.3   1001  NAD1001    -0.4371
     26  O2N      -48.3000    6.0930  -35.2470 O.2   1001  NAD1001    -0.5170
     27  O5D      -46.2680    4.5610  -35.1420 O.3   1001  NAD1001    -0.3112
     28  C5D      -45.8230    4.7700  -36.4740 C.3   1001  NAD1001     0.1812
     29  C4D      -44.2980    4.8290  -36.5170 C.3   1001  NAD1001     0.1780
     30  O4D      -43.7870    5.9170  -35.7550 O.3   1001  NAD1001    -0.3482
     31  C3D      -43.7350    3.5630  -35.9090 C.3   1001  NAD1001     0.2140
     32  O3D      -42.6360    3.1090  -36.6600 O.3   1001  NAD1001    -0.2176
     33  C2D      -43.3390    3.9720  -34.5060 C.3   1001  NAD1001     0.2140
     34  O2D      -42.2120    3.2450  -34.0880 O.3   1001  NAD1001    -0.2176
     35  C1D      -43.0710    5.4720  -34.6090 C.3   1001  NAD1001     0.1777
@<TRIPOS>BOND
     1    18    17    1
     2    19    17    2
     3    19    20    1
     4    17    16    1
     5    20    21    1
     6    16    22    1
     7    16    15    2
     8    21    22    2
     9    22    13    1
    10    15    14    1
    11    13    14    1
    12    13    12    1
    13    12     7    1
    14    12    10    1
    15    11    10    1
    16     7     6    1
    17    10     8    1
    18     6     8    1
    19     6     5    1
    20     9     8    1
    21     5     4    1
    22     4     1    1
    23    32    31    1
    24    29    28    1
    25    29    31    1
    26    29    30    1
    27    28    27    1
    28    31    33    1
    29    30    35    1
    30     2     1    2
    31     1    23    1
    32     1     3    1
    33    23    24    1
    34    26    24    2
    35    27    24    1
    36    24    25    1
    37    35    33    1
    38    33    34    1
