@<TRIPOS>MOLECULE
1muu_GDX_B_1.pdb
 40 43 0 0 0
SMALL
GASTEIGER

@<TRIPOS>ATOM
      1  N2       -41.9150    4.0630  -13.6280 N.pl3 1005  GDX1005    -0.0226
      2  C2       -41.8460    5.1340  -14.4730 C.1   1005  GDX1005     0.2531
      3  N1       -41.2480    6.2690  -14.0460 N.2   1005  GDX1005    -0.2485
      4  N3       -42.4120    5.0190  -15.6890 N.2   1005  GDX1005    -0.3074
      5  C4       -42.3870    6.0310  -16.5630 C.2   1005  GDX1005     0.2300
      6  C5       -41.7520    7.3040  -16.1770 C.2   1005  GDX1005     0.2182
      7  C6       -41.1550    7.3600  -14.8260 C.1   1005  GDX1005     0.2372
      8  O6       -40.5920    8.3950  -14.4370 O.2   1005  GDX1005    -0.2069
      9  N7       -41.8800    8.1560  -17.2080 N.2   1005  GDX1005    -0.2322
     10  C8       -42.5230    7.5190  -18.2110 C.3   1005  GDX1005     0.2246
     11  N9       -42.8250    6.2850  -17.7950 N.pl3 1005  GDX1005    -0.2354
     12  C1D      -43.3770    5.3650  -18.6520 C.3   1005  GDX1005     0.2293
     13  C2D      -44.6550    5.4990  -19.0970 C.3   1005  GDX1005     0.2310
     14  O2D      -45.5330    5.2630  -18.2520 O.3   1005  GDX1005    -0.2158
     15  C3D      -44.8190    4.7890  -20.2330 C.3   1005  GDX1005     0.2158
     16  O3D      -45.3060    3.4560  -19.9470 O.3   1005  GDX1005    -0.2175
     17  C4D      -43.6310    4.6390  -20.8440 C.3   1005  GDX1005     0.1799
     18  O4D      -42.6560    5.0730  -19.8630 O.3   1005  GDX1005    -0.3326
     19  C5D      -43.5190    5.4610  -22.1200 C.3   1005  GDX1005     0.1813
     20  O5D      -43.8590    6.8280  -21.8770 O.3   1005  GDX1005    -0.3112
     21  PA       -43.4070    8.0440  -22.7990 P.3   1005  GDX1005     0.2189
     22  O1A      -41.9980    7.7970  -23.2800 O.2   1005  GDX1005    -0.5170
     23  O2A      -43.7850    9.3140  -22.1300 O.3   1005  GDX1005    -0.4371
     24  O3A      -44.4270    7.8950  -24.0460 O.3   1005  GDX1005    -0.2703
     25  PB       -44.1710    7.2560  -25.4900 P.3   1005  GDX1005     0.2208
     26  O2B      -45.3380    7.7700  -26.2990 O.2   1005  GDX1005    -0.5170
     27  O3B      -44.1460    5.7680  -25.5330 O.3   1005  GDX1005    -0.4371
     28  O1B      -42.8720    7.9690  -26.1840 O.3   1005  GDX1005    -0.2857
     29  C1'      -41.6400    7.2150  -26.3050 C.3   1005  GDX1005     0.2746
     30  O5'      -41.6690    6.5750  -27.5990 O.3   1005  GDX1005    -0.3167
     31  C5'      -41.6310    7.5500  -28.6770 C.3   1005  GDX1005     0.2529
     32  C6'      -41.6000    6.9290  -29.8760 C.2   1005  GDX1005     0.3941
     33  O6A      -40.7830    6.0630  -30.1600 O.co2 1005  GDX1005    -0.2429
     34  O6B      -42.4040    7.2250  -30.7440 O.co2 1005  GDX1005    -0.2429
     35  C2'      -40.6220    8.1170  -26.2680 C.3   1005  GDX1005     0.2409
     36  O2'      -39.5040    7.5970  -26.0680 O.3   1005  GDX1005    -0.2149
     37  C3'      -40.6460    8.9870  -27.3270 C.3   1005  GDX1005     0.2203
     38  O3'      -39.7630    9.8470  -27.1980 O.3   1005  GDX1005    -0.2174
     39  C4'      -40.5780    8.3790  -28.5330 C.3   1005  GDX1005     0.2229
     40  O4'      -40.5600    9.2030  -29.4880 O.3   1005  GDX1005    -0.2171
@<TRIPOS>BOND
     1    34    32   ar
     2    33    32   ar
     3    32    31    1
     4    40    39    1
     5    31    39    1
     6    31    30    1
     7    39    37    1
     8    30    29    1
     9    37    38    1
    10    37    35    1
    11    29    35    1
    12    29    28    1
    13    26    25    2
    14    35    36    1
    15    28    25    1
    16    27    25    1
    17    25    24    1
    18    24    21    1
    19    22    21    2
    20    21    23    1
    21    21    20    1
    22    19    20    1
    23    19    17    1
    24    17    15    1
    25    17    18    1
    26    15    16    1
    27    15    13    1
    28    18    12    1
    29    13    12    1
    30    13    14    1
    31    12    11    1
    32    10    11    1
    33    10     9    1
    34    11     5    1
    35     9     6    2
    36     5     6    1
    37     5     4    2
    38     6     7    1
    39     4     2    2
    40     7     8    2
    41     7     3    2
    42     2     3    2
    43     2     1    1
