@<TRIPOS>MOLECULE
1muu_SUC_C_1.pdb
 23 24 0 0 0
SMALL
GASTEIGER

@<TRIPOS>ATOM
      1  C1         9.2460  -27.6410    2.7430 C.3   1009  SUC1009     0.2713
      2  C2         8.2020  -27.9800    3.8060 C.3   1009  SUC1009     0.2406
      3  C3         6.9820  -28.6130    3.1590 C.3   1009  SUC1009     0.2198
      4  C4         6.4060  -27.6910    2.0910 C.3   1009  SUC1009     0.2144
      5  C5         7.4850  -27.1270    1.1540 C.3   1009  SUC1009     0.1835
      6  C6         6.9550  -25.8820    0.4640 C.3   1009  SUC1009     0.2142
      7  O1         9.6960  -28.8230    2.1000 O.3   1009  SUC1009    -0.3033
      8  O2         8.7200  -28.8660    4.7770 O.3   1009  SUC1009    -0.2149
      9  O3         6.0220  -28.8680    4.1570 O.3   1009  SUC1009    -0.2174
     10  O4         5.4350  -28.3980    1.3440 O.3   1009  SUC1009    -0.2176
     11  O5         8.6750  -26.7340    1.8150 O.3   1009  SUC1009    -0.3256
     12  O6         7.7640  -25.5710   -0.6340 O.3   1009  SUC1009    -0.2176
     13  C1'       11.7820  -29.0540    3.3420 C.3   1009  SUC1009     0.2406
     14  C2'       11.1020  -29.0220    1.9700 C.3   1009  SUC1009     0.2516
     15  C3'       11.3040  -30.3380    1.2270 C.3   1009  SUC1009     0.2381
     16  C4'       11.2630  -29.9130   -0.2220 C.3   1009  SUC1009     0.2167
     17  C5'       11.9800  -28.5670   -0.1550 C.3   1009  SUC1009     0.1835
     18  C6'       11.6120  -27.5530   -1.2410 C.3   1009  SUC1009     0.2142
     19  O1'       13.0330  -29.7050    3.2730 O.3   1009  SUC1009    -0.2149
     20  O2'       11.6940  -28.0390    1.1290 O.3   1009  SUC1009    -0.3272
     21  O3'       10.3270  -31.3070    1.5240 O.3   1009  SUC1009    -0.2150
     22  O4'       11.8980  -30.8700   -1.0430 O.3   1009  SUC1009    -0.2175
     23  O6'       10.2240  -27.3170   -1.2940 O.3   1009  SUC1009    -0.2176
@<TRIPOS>BOND
     1    23    18    1
     2    18    17    1
     3    22    16    1
     4    12     6    1
     5    16    17    1
     6    16    15    1
     7    17    20    1
     8     6     5    1
     9    20    14    1
    10     5    11    1
    11     5     4    1
    12    15    21    1
    13    15    14    1
    14    10     4    1
    15    11     1    1
    16    14     7    1
    17    14    13    1
    18     4     3    1
    19     7     1    1
    20     1     2    1
    21     3     2    1
    22     3     9    1
    23    19    13    1
    24     2     8    1
