@<TRIPOS>MOLECULE
1mux_WW7_A_1.pdb
 43 44 0 0 0
SMALL
GASTEIGER

@<TRIPOS>ATOM
      1  S1        -9.4020    7.6090  -25.3780 S.O2  153  WW7153      0.0590
      2  O1        -9.5240    6.7330  -26.5030 O.2   153  WW7153     -0.1530
      3  O2       -10.5500    8.3250  -24.9050 O.2   153  WW7153     -0.1530
      4  N1        -8.9370    6.5650  -24.0680 N.3   153  WW7153     -0.1899
      5  C4        -5.7450   10.5270  -26.0010 C.ar  153  WW7153     -0.0525
      6  C3        -6.0520    9.9620  -24.6970 C.ar  153  WW7153     -0.0593
      7  C2        -7.1940    9.0660  -24.5180 C.ar  153  WW7153     -0.0347
      8  C1        -8.0470    8.7130  -25.6450 C.ar  153  WW7153      0.1129
      9  C9        -7.7700    9.2660  -26.9640 C.ar  153  WW7153      0.0098
     10  C10       -6.5870   10.1960  -27.1450 C.ar  153  WW7153      0.0023
     11 CL1        -4.9670   11.7830  -28.7730 Cl    153  WW7153     -0.0829
     12  C5        -6.3040   10.7350  -28.4690 C.ar  153  WW7153      0.0487
     13  C6        -7.1510   10.3830  -29.6000 C.ar  153  WW7153     -0.0428
     14  C7        -8.2930    9.4850  -29.4190 C.ar  153  WW7153     -0.0597
     15  C8        -8.6050    8.9270  -28.1110 C.ar  153  WW7153     -0.0521
     16  C11       -7.5880    6.0040  -24.1010 C.3   153  WW7153      0.0174
     17  C12       -7.4600    4.6660  -23.3740 C.3   153  WW7153     -0.0388
     18  C14       -7.8690    3.4350  -25.5110 C.3   153  WW7153     -0.0519
     19  C13       -8.3360    3.6190  -24.0660 C.3   153  WW7153     -0.0518
     20  C15       -8.6830    2.3160  -26.1700 C.3   153  WW7153     -0.0406
     21  C16      -10.1640    2.7040  -26.1940 C.3   153  WW7153     -0.0069
     22  N2       -10.4190    3.8820  -27.0090 N.3   153  WW7153     -0.3300
     23  HN1       -9.6340    5.8400  -23.9650 H     153  WW7153      0.1480
     24  H4        -4.8900   11.1730  -26.1330 H     153  WW7153      0.0624
     25  H3        -5.4250   10.1940  -23.8510 H     153  WW7153      0.0618
     26  H2        -7.3950    8.6500  -23.5430 H     153  WW7153      0.0637
     27  H6        -6.9320   10.7790  -30.5790 H     153  WW7153      0.0632
     28  H7        -8.9090    9.2260  -30.2690 H     153  WW7153      0.0618
     29  H8        -9.4510    8.2710  -27.9950 H     153  WW7153      0.0624
     30 H111       -7.3040    5.8810  -25.1360 H     153  WW7153      0.0441
     31 H112       -6.9360    6.7270  -23.6340 H     153  WW7153      0.0441
     32 H121       -6.4290    4.3420  -23.3980 H     153  WW7153      0.0278
     33 H122       -7.7780    4.7820  -22.3490 H     153  WW7153      0.0278
     34 H141       -6.8240    3.1680  -25.5190 H     153  WW7153      0.0266
     35 H142       -8.0090    4.3550  -26.0570 H     153  WW7153      0.0266
     36 H131       -8.2520    2.6800  -23.5400 H     153  WW7153      0.0266
     37 H132       -9.3650    3.9450  -24.0570 H     153  WW7153      0.0266
     38 H151       -8.3350    2.1640  -27.1810 H     153  WW7153      0.0277
     39 H152       -8.5600    1.4040  -25.6070 H     153  WW7153      0.0277
     40 H161      -10.5000    2.9020  -25.1880 H     153  WW7153      0.0422
     41 H162      -10.7410    1.8940  -26.6150 H     153  WW7153      0.0422
     42 HN21      -10.2590    3.6720  -27.9860 H     153  WW7153      0.1182
     43 HN22       -9.7740    4.6190  -26.7630 H     153  WW7153      0.1182
@<TRIPOS>BOND
     1    27    13    1
     2    28    14    1
     3    13    14   ar
     4    13    12   ar
     5    14    15   ar
     6    11    12    1
     7    12    10   ar
     8    15    29    1
     9    15     9   ar
    10    42    22    1
    11    38    20    1
    12    10     9   ar
    13    10     5   ar
    14    22    43    1
    15    22    21    1
    16     9     8   ar
    17    41    21    1
    18     2     1    2
    19    21    20    1
    20    21    40    1
    21    20    39    1
    22    20    18    1
    23    24     5    1
    24    35    18    1
    25     5     6   ar
    26     8     1    1
    27     8     7   ar
    28    34    18    1
    29    18    19    1
    30     1     3    2
    31     1     4    1
    32    30    16    1
    33     6     7   ar
    34     6    25    1
    35     7    26    1
    36    16     4    1
    37    16    31    1
    38    16    17    1
    39     4    23    1
    40    19    37    1
    41    19    36    1
    42    19    17    1
    43    32    17    1
    44    17    33    1
