@<TRIPOS>MOLECULE
1mv5_ATP_A_1.pdb
 31 33 0 0 0
SMALL
GASTEIGER

@<TRIPOS>ATOM
      1  PG        30.8650   36.9860   73.9670 P.3   601  ATP601      0.5373
      2  O1G       30.6380   38.5080   73.7470 O.2   601  ATP601     -0.2221
      3  O2G       31.6140   36.5660   75.2760 O.3   601  ATP601     -0.1143
      4  O3G       29.5260   36.2500   73.8090 O.3   601  ATP601     -0.1143
      5  PB        32.9640   37.0330   72.0320 P.3   601  ATP601      0.2277
      6  O1B       33.4600   36.3260   70.9000 O.2   601  ATP601     -0.5168
      7  O2B       33.3760   38.3530   72.3700 O.3   601  ATP601     -0.4368
      8  O3B       31.8090   36.4000   72.7910 O.3   601  ATP601     -0.2258
      9  PA        35.0700   36.9920   73.8420 P.3   601  ATP601      0.2189
     10  O1A       34.7100   37.0680   75.2310 O.3   601  ATP601     -0.4371
     11  O2A       36.1690   37.7060   73.2870 O.2   601  ATP601     -0.5170
     12  O3A       34.0900   36.2620   72.9420 O.3   601  ATP601     -0.2700
     13  O5'       35.7820   35.7640   74.2220 O.3   601  ATP601     -0.3112
     14  C5'       36.4980   34.7100   74.0600 C.3   601  ATP601      0.1813
     15  C4'       37.7020   34.0590   73.5890 C.3   601  ATP601      0.1821
     16  O4'       38.6890   34.6720   74.3910 O.3   601  ATP601     -0.3135
     17  C3'       37.2730   32.7420   74.0470 C.3   601  ATP601      0.2184
     18  O3'       36.8910   31.7920   73.0840 O.3   601  ATP601     -0.2174
     19  C2'       38.4430   32.3350   74.9670 C.3   601  ATP601      0.2570
     20  O2'       39.2930   31.3970   74.3000 O.3   601  ATP601     -0.2130
     21  C1'       39.2320   33.6270   75.2850 C.3   601  ATP601      0.3186
     22  N9        39.1260   34.1300   76.6790 N.pl3 601  ATP601     -0.1439
     23  C8        38.1010   34.8600   77.2980 C.3   601  ATP601      0.3377
     24  N7        38.3310   35.1580   78.5290 N.2   601  ATP601     -0.2095
     25  C5        39.5330   34.6050   78.7390 C.2   601  ATP601      0.2526
     26  C6        40.3310   34.5880   79.8710 C.2   601  ATP601      0.4393
     27  N6        39.9040   35.1860   80.9650 N.pl3 601  ATP601      0.2180
     28  N1        41.5560   33.9310   79.8380 N.2   601  ATP601      0.0021
     29  C2        41.9690   33.3250   78.7130 C.3   601  ATP601      0.5254
     30  N3        41.2970   33.2800   77.5470 N.2   601  ATP601     -0.0055
     31  C4        40.0520   33.9590   77.6480 C.2   601  ATP601      0.3518
@<TRIPOS>BOND
     1     6     5    2
     2     5     7    1
     3     5     8    1
     4     5    12    1
     5     8     1    1
     6    12     9    1
     7    18    17    1
     8    11     9    2
     9    15    17    1
    10    15    14    1
    11    15    16    1
    12     2     1    2
    13     4     1    1
    14     9    13    1
    15     9    10    1
    16     1     3    1
    17    17    19    1
    18    14    13    1
    19    20    19    1
    20    16    21    1
    21    19    21    1
    22    21    22    1
    23    22    23    1
    24    22    31    1
    25    23    24    1
    26    30    31    2
    27    30    29    1
    28    31    25    1
    29    24    25    2
    30    29    28    1
    31    25    26    1
    32    28    26    2
    33    26    27    1
