@<TRIPOS>MOLECULE
1mv5_ADP_B_1.pdb
 27 29 0 0 0
SMALL
GASTEIGER

@<TRIPOS>ATOM
      1  PB        -1.6060   54.7650  105.4210 P.3   1600  ADP1600     0.5373
      2  O1B       -1.5150   54.7480  103.9960 O.2   1600  ADP1600    -0.2221
      3  O2B       -1.2680   56.0930  105.9520 O.3   1600  ADP1600    -0.1143
      4  O3B       -2.9110   54.3060  105.8130 O.3   1600  ADP1600    -0.1143
      5  PA         0.5780   53.0070  105.3660 P.3   1600  ADP1600     0.2231
      6  O1A        1.6960   53.9400  105.1000 O.3   1600  ADP1600    -0.4370
      7  O2A        0.0360   52.2270  104.3190 O.2   1600  ADP1600    -0.5169
      8  O3A       -0.5390   53.8340  105.9600 O.3   1600  ADP1600    -0.2261
      9  O5'        0.8870   52.0210  106.5600 O.3   1600  ADP1600    -0.3111
     10  C5'        1.4360   52.5270  107.7830 C.3   1600  ADP1600     0.1813
     11  C4'        2.0260   51.3810  108.5900 C.3   1600  ADP1600     0.1821
     12  O4'        3.0100   50.7680  107.7790 O.3   1600  ADP1600    -0.3135
     13  C3'        2.7630   51.8970  109.8220 C.3   1600  ADP1600     0.2184
     14  O3'        2.6740   50.9930  110.9920 O.3   1600  ADP1600    -0.2174
     15  C2'        4.1840   52.0890  109.3170 C.3   1600  ADP1600     0.2570
     16  O2'        5.1920   52.2040  110.3770 O.3   1600  ADP1600    -0.2130
     17  C1'        4.3070   50.9180  108.4190 C.3   1600  ADP1600     0.3186
     18  N9         5.3490   51.0970  107.3700 N.pl3 1600  ADP1600    -0.1439
     19  C8         5.2300   51.9000  106.3220 C.3   1600  ADP1600     0.3377
     20  N7         6.3320   51.8460  105.5790 N.2   1600  ADP1600    -0.2095
     21  C5         7.1610   51.0450  106.1630 C.2   1600  ADP1600     0.2526
     22  C6         8.4440   50.5870  105.8710 C.2   1600  ADP1600     0.4393
     23  N6         9.0940   50.9950  104.7410 N.pl3 1600  ADP1600     0.2180
     24  N1         9.0350   49.7190  106.7450 N.2   1600  ADP1600     0.0021
     25  C2         8.4160   49.3010  107.8670 C.3   1600  ADP1600     0.5254
     26  N3         7.1740   49.7160  108.1280 N.2   1600  ADP1600    -0.0055
     27  C4         6.5530   50.5970  107.3520 C.2   1600  ADP1600     0.3518
@<TRIPOS>BOND
     1     2     1    2
     2     7     5    2
     3    23    22    1
     4     6     5    1
     5     5     8    1
     6     5     9    1
     7     1     4    1
     8     1     3    1
     9     1     8    1
    10    20    21    2
    11    20    19    1
    12    22    21    1
    13    22    24    2
    14    21    27    1
    15    19    18    1
    16     9    10    1
    17    24    25    1
    18    27    18    1
    19    27    26    2
    20    18    17    1
    21    12    17    1
    22    12    11    1
    23    10    11    1
    24    25    26    1
    25    17    15    1
    26    11    13    1
    27    15    13    1
    28    15    16    1
    29    13    14    1
