@<TRIPOS>MOLECULE
1mv8_NAD_A_1.pdb
 35 38 0 0 0
SMALL
GASTEIGER

@<TRIPOS>ATOM
      1  PA       -50.3180    3.2720  -35.4880 P.3   2001  NAD2001     0.2189
      2  O1A      -50.5810    1.8340  -35.5800 O.2   2001  NAD2001    -0.5170
      3  O2A      -51.1420    4.0720  -34.5050 O.3   2001  NAD2001    -0.4371
      4  O5B      -50.4930    3.9490  -36.9420 O.3   2001  NAD2001    -0.3112
      5  C5B      -49.9310    3.3710  -38.0940 C.3   2001  NAD2001     0.1813
      6  C4B      -50.8360    3.6770  -39.2740 C.3   2001  NAD2001     0.1821
      7  O4B      -50.2390    3.2350  -40.4760 O.3   2001  NAD2001    -0.3135
      8  C3B      -52.1760    2.9590  -39.1440 C.3   2001  NAD2001     0.2184
      9  O3B      -53.2270    3.8950  -39.0820 O.3   2001  NAD2001    -0.2174
     10  C2B      -52.2510    2.0820  -40.3700 C.3   2001  NAD2001     0.2570
     11  O2B      -53.5750    1.9580  -40.8540 O.3   2001  NAD2001    -0.2130
     12  C1B      -51.2910    2.7980  -41.3180 C.3   2001  NAD2001     0.3186
     13  N9A      -50.8300    1.9840  -42.4550 N.pl3 2001  NAD2001    -0.1439
     14  C8A      -50.4550    0.6610  -42.4970 C.3   2001  NAD2001     0.3377
     15  N7A      -50.1280    0.3450  -43.7630 N.2   2001  NAD2001    -0.2095
     16  C5A      -50.2910    1.4460  -44.5420 C.2   2001  NAD2001     0.2526
     17  C6A      -50.1130    1.6890  -45.9030 C.2   2001  NAD2001     0.4393
     18  N6A      -49.8660    0.7070  -46.7640 N.pl3 2001  NAD2001     0.2180
     19  N1A      -50.3760    2.9430  -46.3900 N.2   2001  NAD2001     0.0021
     20  C2A      -50.8120    3.9420  -45.5610 C.3   2001  NAD2001     0.5254
     21  N3A      -50.9950    3.7060  -44.2190 N.2   2001  NAD2001    -0.0055
     22  C4A      -50.7380    2.4680  -43.7280 C.2   2001  NAD2001     0.3518
     23  O3       -48.7170    3.3720  -35.2390 O.3   2001  NAD2001    -0.2703
     24  PN       -48.0110    4.5800  -34.4790 P.3   2001  NAD2001     0.2189
     25  O1N      -48.0600    4.3250  -33.0210 O.3   2001  NAD2001    -0.4371
     26  O2N      -48.4830    5.8930  -34.9890 O.2   2001  NAD2001    -0.5170
     27  O5D      -46.4910    4.2990  -34.9500 O.3   2001  NAD2001    -0.3112
     28  C5D      -46.0570    4.5150  -36.2900 C.3   2001  NAD2001     0.1812
     29  C4D      -44.5360    4.6020  -36.3000 C.3   2001  NAD2001     0.1780
     30  O4D      -44.1240    5.6710  -35.4630 O.3   2001  NAD2001    -0.3482
     31  C3D      -43.8710    3.3510  -35.7440 C.3   2001  NAD2001     0.2140
     32  O3D      -42.7700    3.0130  -36.5540 O.3   2001  NAD2001    -0.2176
     33  C2D      -43.4750    3.7330  -34.3290 C.3   2001  NAD2001     0.2140
     34  O2D      -42.3240    3.0420  -33.8530 O.3   2001  NAD2001    -0.2176
     35  C1D      -43.2740    5.2330  -34.4200 C.3   2001  NAD2001     0.1777
@<TRIPOS>BOND
     1    18    17    1
     2    19    17    2
     3    19    20    1
     4    17    16    1
     5    20    21    1
     6    16    15    2
     7    16    22    1
     8    21    22    2
     9    15    14    1
    10    22    13    1
    11    14    13    1
    12    13    12    1
    13    12     7    1
    14    12    10    1
    15    11    10    1
    16     7     6    1
    17    10     8    1
    18     6     8    1
    19     6     5    1
    20     8     9    1
    21     5     4    1
    22     4     1    1
    23    32    31    1
    24    29    28    1
    25    29    31    1
    26    29    30    1
    27    28    27    1
    28    31    33    1
    29     2     1    2
    30     1    23    1
    31     1     3    1
    32    30    35    1
    33    23    24    1
    34    26    24    2
    35    27    24    1
    36    24    25    1
    37    35    33    1
    38    33    34    1
