@<TRIPOS>MOLECULE
1mv8_GDX_A_1.pdb
 40 43 0 0 0
SMALL
GASTEIGER

@<TRIPOS>ATOM
      1  N2       -42.0430    3.9770  -13.4520 N.pl3 2005  GDX2005    -0.0226
      2  C2       -42.0130    5.0420  -14.2830 C.1   2005  GDX2005     0.2531
      3  N1       -41.4150    6.1700  -13.8300 N.2   2005  GDX2005    -0.2485
      4  N3       -42.5850    4.9330  -15.5020 N.2   2005  GDX2005    -0.3074
      5  C4       -42.5710    5.9940  -16.3290 C.2   2005  GDX2005     0.2300
      6  C5       -41.9490    7.2620  -15.9050 C.2   2005  GDX2005     0.2182
      7  C6       -41.3360    7.2930  -14.5610 C.1   2005  GDX2005     0.2372
      8  O6       -40.7710    8.3300  -14.1270 O.2   2005  GDX2005    -0.2069
      9  N7       -42.0780    8.1470  -16.9080 N.2   2005  GDX2005    -0.2322
     10  C8       -42.7290    7.5480  -17.9270 C.3   2005  GDX2005     0.2246
     11  N9       -43.0120    6.2900  -17.5380 N.pl3 2005  GDX2005    -0.2354
     12  C1D      -43.5930    5.3860  -18.3940 C.3   2005  GDX2005     0.2293
     13  C2D      -44.8850    5.5010  -18.8160 C.3   2005  GDX2005     0.2310
     14  O2D      -45.7280    5.3660  -17.8740 O.3   2005  GDX2005    -0.2158
     15  C3D      -45.0270    4.7060  -19.9170 C.3   2005  GDX2005     0.2158
     16  O3D      -45.3510    3.3290  -19.5610 O.3   2005  GDX2005    -0.2175
     17  C4D      -43.8280    4.6140  -20.5510 C.3   2005  GDX2005     0.1799
     18  O4D      -42.8480    5.0800  -19.5810 O.3   2005  GDX2005    -0.3326
     19  C5D      -43.7040    5.3760  -21.8590 C.3   2005  GDX2005     0.1813
     20  O5D      -44.1360    6.7090  -21.6800 O.3   2005  GDX2005    -0.3112
     21  PA       -43.6210    7.9820  -22.5320 P.3   2005  GDX2005     0.2189
     22  O1A      -42.2080    7.7350  -22.9870 O.2   2005  GDX2005    -0.5170
     23  O2A      -43.9860    9.2150  -21.7650 O.3   2005  GDX2005    -0.4371
     24  O3A      -44.6110    7.9810  -23.7890 O.3   2005  GDX2005    -0.2703
     25  PB       -44.4440    7.1970  -25.1400 P.3   2005  GDX2005     0.2208
     26  O2B      -45.6500    7.5530  -25.9890 O.2   2005  GDX2005    -0.5170
     27  O3B      -44.2890    5.7180  -24.9160 O.3   2005  GDX2005    -0.4371
     28  O1B      -43.1520    7.8700  -25.8930 O.3   2005  GDX2005    -0.2857
     29  C1'      -41.8780    7.1530  -26.0330 C.3   2005  GDX2005     0.2746
     30  O5'      -41.8580    6.4630  -27.3150 O.3   2005  GDX2005    -0.3167
     31  C5'      -41.8650    7.4380  -28.4110 C.3   2005  GDX2005     0.2529
     32  C6'      -41.9100    6.8110  -29.6150 C.2   2005  GDX2005     0.3941
     33  O6A      -41.0770    5.9730  -29.9460 O.co2 2005  GDX2005    -0.2429
     34  O6B      -42.7750    7.0630  -30.4550 O.co2 2005  GDX2005    -0.2429
     35  C2'      -40.8370    8.0520  -25.9970 C.3   2005  GDX2005     0.2409
     36  O2'      -39.7450    7.4560  -25.7680 O.3   2005  GDX2005    -0.2149
     37  C3'      -40.7790    8.9010  -27.0760 C.3   2005  GDX2005     0.2203
     38  O3'      -39.8140    9.7080  -26.9470 O.3   2005  GDX2005    -0.2174
     39  C4'      -40.8070    8.2910  -28.3050 C.3   2005  GDX2005     0.2229
     40  O4'      -40.8100    9.0840  -29.3020 O.3   2005  GDX2005    -0.2171
@<TRIPOS>BOND
     1    34    32   ar
     2    33    32   ar
     3    32    31    1
     4    40    39    1
     5    31    39    1
     6    31    30    1
     7    39    37    1
     8    30    29    1
     9    37    38    1
    10    37    35    1
    11    29    35    1
    12    29    28    1
    13    35    36    1
    14    26    25    2
    15    28    25    1
    16    25    27    1
    17    25    24    1
    18    24    21    1
    19    22    21    2
    20    21    23    1
    21    21    20    1
    22    19    20    1
    23    19    17    1
    24    17    15    1
    25    17    18    1
    26    15    16    1
    27    15    13    1
    28    18    12    1
    29    13    12    1
    30    13    14    1
    31    12    11    1
    32    10    11    1
    33    10     9    1
    34    11     5    1
    35     9     6    2
    36     5     6    1
    37     5     4    2
    38     6     7    1
    39     4     2    2
    40     7     8    2
    41     7     3    2
    42     2     3    2
    43     2     1    1
