@<TRIPOS>MOLECULE
1mv9_HXA_A_1.pdb
 24 23 0 0 0
SMALL
GASTEIGER

@<TRIPOS>ATOM
      1  C1        54.7120   45.0300   30.2150 C.2   200  HXA200      0.3649
      2  O1        53.9310   46.1170   30.1250 O.co2 200  HXA200     -0.2457
      3  O2        54.5350   44.1360   30.9850 O.co2 200  HXA200     -0.2457
      4  C2        55.8630   45.1280   29.2340 C.3   200  HXA200      0.1141
      5  C3        57.1100   44.4800   29.8230 C.3   200  HXA200      0.0118
      6  C4        57.6140   45.1940   31.0340 C.3   200  HXA200      0.0006
      7  C5        58.7650   45.8920   31.0420 C.3   200  HXA200      0.0004
      8  C6        60.0090   45.6980   30.2290 C.3   200  HXA200      0.0047
      9  C7        59.8450   46.1690   28.8210 C.3   200  HXA200      0.0257
     10  C8        59.9320   47.4490   28.4450 C.2   200  HXA200     -0.0307
     11  C9        61.1580   48.3010   28.3330 C.2   200  HXA200     -0.0307
     12  C10       62.4160   47.7360   28.9100 C.3   200  HXA200      0.0260
     13  C11       63.4130   47.3860   28.0820 C.3   200  HXA200      0.0093
     14  C12       63.9270   45.9790   28.1220 C.3   200  HXA200      0.0260
     15  C13       64.8130   45.7780   29.3180 C.2   200  HXA200     -0.0307
     16  C14       64.6100   44.9040   30.3190 C.2   200  HXA200     -0.0307
     17  C15       65.3440   45.1020   31.6150 C.3   200  HXA200      0.0257
     18  C16       64.4960   44.6940   32.7780 C.3   200  HXA200      0.0047
     19  C17       65.0040   44.3630   33.9720 C.3   200  HXA200      0.0003
     20  C18       65.3960   45.4470   34.9200 C.3   200  HXA200      0.0000
     21  C19       64.1890   46.1840   35.3970 C.3   200  HXA200      0.0000
     22  C20       63.8630   47.3820   34.8860 C.3   200  HXA200      0.0000
     23  C21       62.8640   47.4980   33.7760 C.3   200  HXA200      0.0000
     24  C22       61.4530   47.1060   34.2110 C.3   200  HXA200      0.0000
@<TRIPOS>BOND
     1    13    14    1
     2    13    12    1
     3    14    15    1
     4    11    10    2
     5    11    12    1
     6    10     9    1
     7     9     8    1
     8     4     5    1
     9     4     1    1
    10    15    16    2
    11     5     6    1
    12     2     1   ar
    13     1     3   ar
    14     8     7    1
    15    16    17    1
    16     6     7    1
    17    17    18    1
    18    18    19    1
    19    23    24    1
    20    23    22    1
    21    19    20    1
    22    22    21    1
    23    20    21    1
