@<TRIPOS>MOLECULE
1mvc_BM6_A_1.pdb
 28 31 0 0 0
SMALL
GASTEIGER

@<TRIPOS>ATOM
      1  O1        52.1990   42.0000   24.6470 O.co2 200  BM6200     -0.2406
      2  O2        50.7520   42.5090   26.2300 O.co2 200  BM6200     -0.2406
      3  O3        50.5450   35.7470   27.9210 O.3   200  BM6200     -0.3250
      4  O4        48.7110   36.1880   26.7710 O.3   200  BM6200     -0.3250
      5  C1        51.4550   41.6610   25.5190 C.2   200  BM6200      0.3878
      6  C2        51.2110   40.2510   25.8590 C.ar  200  BM6200      0.0798
      7  C3        51.5610   39.2950   24.9130 C.ar  200  BM6200      0.0064
      8  C4        51.3030   37.9400   25.1960 C.ar  200  BM6200      0.0009
      9  C5        50.6410   37.5380   26.3730 C.ar  200  BM6200      0.0326
     10  C6        50.3950   38.5080   27.3700 C.ar  200  BM6200      0.0009
     11  C7        50.6450   39.8690   27.0920 C.ar  200  BM6200      0.0064
     12  C8        50.1300   36.1390   26.6510 C.3   200  BM6200      0.2278
     13  C9        50.5740   35.0890   25.6530 C.ar  200  BM6200      0.0323
     14  C10       51.6240   34.1930   25.9790 C.ar  200  BM6200      0.0004
     15  C11       51.9530   33.1500   25.0860 C.ar  200  BM6200     -0.0048
     16  C12       51.3050   33.0200   23.8460 C.ar  200  BM6200     -0.0268
     17  C13       50.3430   34.0060   23.4540 C.ar  200  BM6200     -0.0269
     18  C14       49.9580   34.9810   24.4010 C.ar  200  BM6200     -0.0039
     19  C15       49.6620   34.0180   22.0930 C.3   200  BM6200      0.0186
     20  C16       50.2850   33.0280   21.0900 C.3   200  BM6200      0.0044
     21  C17       50.8460   31.7360   21.6700 C.3   200  BM6200      0.0044
     22  C18       51.6600   31.8380   22.9510 C.3   200  BM6200      0.0186
     23  C19       49.5310   35.0890   28.6300 C.3   200  BM6200      0.1773
     24  C20       48.2750   35.2890   27.7780 C.3   200  BM6200      0.1773
     25  C21       49.7980   35.3710   21.3880 C.3   200  BM6200      0.0044
     26  C22       48.1480   33.7520   22.3020 C.3   200  BM6200      0.0044
     27  C23       51.3570   30.5120   23.6730 C.3   200  BM6200      0.0044
     28  C24       53.1690   31.9130   22.6000 C.3   200  BM6200      0.0044
@<TRIPOS>BOND
     1    20    21    1
     2    20    19    1
     3    25    19    1
     4    21    22    1
     5    19    26    1
     6    19    17    1
     7    28    22    1
     8    22    27    1
     9    22    16    1
    10    17    16   ar
    11    17    18   ar
    12    16    15   ar
    13    18    13   ar
    14     1     5   ar
    15     7     8   ar
    16     7     6   ar
    17    15    14   ar
    18     8     9   ar
    19     5     6    1
    20     5     2   ar
    21    13    14   ar
    22    13    12    1
    23     6    11   ar
    24     9    12    1
    25     9    10   ar
    26    12     4    1
    27    12     3    1
    28     4    24    1
    29    11    10   ar
    30    24    23    1
    31     3    23    1
