@<TRIPOS>MOLECULE
1mvl_FMN_A_1.pdb
 31 33 0 0 0
SMALL
GASTEIGER

@<TRIPOS>ATOM
      1  N1        64.0400   20.0010  -16.5520 N.2   1001  FMN1001    -0.2890
      2  C2        63.7310   19.0660  -15.6020 C.1   1001  FMN1001     0.3669
      3  O2        63.0970   19.3080  -14.6230 O.2   1001  FMN1001    -0.1744
      4  N3        64.2000   17.7230  -15.7780 N.2   1001  FMN1001    -0.2300
      5  C4        64.9580   17.2920  -16.8310 C.1   1001  FMN1001     0.2513
      6  O4        65.3510   16.1240  -16.9000 O.2   1001  FMN1001    -0.2057
      7  C4A       65.3110   18.2880  -17.8130 C.2   1001  FMN1001     0.2700
      8  N5        66.0380   17.9560  -18.8760 N.2   1001  FMN1001    -0.3878
      9  C5A       66.2350   18.8820  -19.8690 C.2   1001  FMN1001     0.1320
     10  C6        66.9560   18.5110  -21.0840 C.2   1001  FMN1001     0.0250
     11  C7        67.3300   19.4280  -22.0310 C.2   1001  FMN1001    -0.0238
     12  C7M       68.0650   19.0130  -23.3020 C.3   1001  FMN1001     0.0308
     13  C8        66.8180   20.8010  -21.9530 C.2   1001  FMN1001    -0.0280
     14  C8M       67.1070   21.8120  -23.0340 C.3   1001  FMN1001     0.0304
     15  C9        66.1520   21.1720  -20.7910 C.2   1001  FMN1001    -0.0041
     16  C9A       65.8560   20.2690  -19.7410 C.3   1001  FMN1001     0.1497
     17  N10       65.1400   20.6080  -18.5450 N.pl3 1001  FMN1001    -0.2691
     18  C10       64.7970   19.6660  -17.5950 C.2   1001  FMN1001     0.2416
     19  C1'       64.6690   21.9980  -18.3860 C.3   1001  FMN1001     0.1294
     20  C2'       63.1720   22.0210  -18.8410 C.3   1001  FMN1001     0.2044
     21  O2'       62.9320   21.4470  -20.1370 O.3   1001  FMN1001    -0.2185
     22  C3'       62.6040   23.4790  -18.7970 C.3   1001  FMN1001     0.2164
     23  O3'       62.6170   23.9920  -17.4320 O.3   1001  FMN1001    -0.2175
     24  C4'       61.1830   23.6540  -19.3860 C.3   1001  FMN1001     0.2147
     25  O4'       60.8340   25.0500  -19.4420 O.3   1001  FMN1001    -0.2176
     26  C5'       60.0790   22.9360  -18.6380 C.3   1001  FMN1001     0.1892
     27  O5'       58.8360   23.0170  -19.3670 O.3   1001  FMN1001    -0.2674
     28  P         57.4930   22.4410  -18.7200 P.3   1001  FMN1001     0.5327
     29  O1P       57.7090   22.3620  -17.2300 O.3   1001  FMN1001    -0.1145
     30  O2P       57.2640   21.1390  -19.3450 O.2   1001  FMN1001    -0.2224
     31  O3P       56.3850   23.4850  -19.0570 O.3   1001  FMN1001    -0.1145
@<TRIPOS>BOND
     1    12    11    1
     2    14    13    1
     3    11    13    1
     4    11    10    2
     5    13    15    2
     6    10     9    1
     7    15    16    1
     8    21    20    1
     9     9    16    1
    10     9     8    2
    11    16    17    1
    12    25    24    1
    13    24    22    1
    14    24    26    1
    15    27    28    1
    16    27    26    1
    17    30    28    2
    18    31    28    1
    19     8     7    2
    20    20    22    1
    21    20    19    1
    22    22    23    1
    23    28    29    1
    24    17    19    1
    25    17    18    1
    26     7    18    1
    27     7     5    1
    28    18     1    2
    29     6     5    2
    30     5     4    2
    31     1     2    2
    32     4     2    2
    33     2     3    2
