@<TRIPOS>MOLECULE
1mvn_PCO_A_1.pdb
 18 17 0 0 0
SMALL
GASTEIGER

@<TRIPOS>ATOM
      1  C23       68.7950   15.7150  -16.6040 C.2   1001  PCO1001     0.0748
      2  N19       67.6500   15.1980  -16.1110 N.am  1001  PCO1001    -0.1816
      3  C17       67.3510   13.8830  -16.0310 C.2   1001  PCO1001     0.2471
      4  C16       65.9730   13.5440  -15.4450 C.3   1001  PCO1001     0.1105
      5  C15       65.8380   12.1900  -14.7170 C.3   1001  PCO1001     0.1249
      6  N14       66.4150   11.0850  -15.4690 N.am  1001  PCO1001    -0.2028
      7  C12       65.6990   10.0220  -15.8860 C.2   1001  PCO1001     0.2719
      8  C10       66.4580    8.9440  -16.6780 C.3   1001  PCO1001     0.2313
      9  C7        66.0610    8.8790  -18.2240 C.3   1001  PCO1001     0.0674
     10  C6        66.8970    7.7710  -18.9930 C.3   1001  PCO1001     0.1849
     11  O5        66.7490    6.4550  -18.4220 O.3   1001  PCO1001    -0.2203
     12  C8        64.5350    8.5510  -18.3720 C.3   1001  PCO1001     0.0057
     13  C9        66.3200   10.2500  -18.9410 C.3   1001  PCO1001     0.0057
     14  O11       67.8780    9.2200  -16.5470 O.3   1001  PCO1001    -0.2131
     15  O13       64.4990    9.9010  -15.6630 O.2   1001  PCO1001    -0.2706
     16  O18       68.1230   12.9720  -16.4010 O.2   1001  PCO1001    -0.2729
     17  C24       69.0570   17.0320  -16.6250 C.3   1001  PCO1001     0.1127
     18  S25       67.9650   18.3160  -15.9780 S.3   1001  PCO1001    -0.0755
@<TRIPOS>BOND
     1    10    11    1
     2    10     9    1
     3    13     9    1
     4    12     9    1
     5     9     8    1
     6     8    14    1
     7     8     7    1
     8    17     1    1
     9    17    18    1
    10     1     2    2
    11    16     3    2
    12     2     3    1
    13     3     4    1
    14     7    15    2
    15     7     6   am
    16     6     5    1
    17     4     5    1
