@<TRIPOS>MOLECULE
1mvn_FMN_A_1.pdb
 31 33 0 0 0
SMALL
GASTEIGER

@<TRIPOS>ATOM
      1  N1        63.6620   20.0130  -16.6560 N.2   1002  FMN1002    -0.2890
      2  C2        63.2880   19.2110  -15.6050 C.1   1002  FMN1002     0.3669
      3  O2        62.6120   19.5830  -14.7010 O.2   1002  FMN1002    -0.1744
      4  N3        63.7270   17.8510  -15.5800 N.2   1002  FMN1002    -0.2300
      5  C4        64.5090   17.2650  -16.5260 C.1   1002  FMN1002     0.2513
      6  O4        64.8590   16.0930  -16.3960 O.2   1002  FMN1002    -0.2057
      7  C4A       64.9380   18.1310  -17.6460 C.2   1002  FMN1002     0.2700
      8  N5        65.6740   17.6570  -18.6480 N.2   1002  FMN1002    -0.3878
      9  C5A       65.9140   18.4630  -19.7490 C.2   1002  FMN1002     0.1320
     10  C6        66.6410   17.9250  -20.8800 C.2   1002  FMN1002     0.0250
     11  C7        67.0550   18.6790  -21.9480 C.2   1002  FMN1002    -0.0238
     12  C7M       67.8090   18.0400  -23.1090 C.3   1002  FMN1002     0.0308
     13  C8        66.5480   20.0570  -22.1030 C.2   1002  FMN1002    -0.0280
     14  C8M       66.8710   20.8730  -23.3330 C.3   1002  FMN1002     0.0304
     15  C9        65.8710   20.6130  -21.0120 C.2   1002  FMN1002    -0.0041
     16  C9A       65.5350   19.8690  -19.8320 C.3   1002  FMN1002     0.1497
     17  N10       64.8330   20.3790  -18.6900 N.pl3 1002  FMN1002    -0.2691
     18  C10       64.4330   19.5450  -17.6340 C.2   1002  FMN1002     0.2416
     19  C1'       64.3770   21.8050  -18.6680 C.3   1002  FMN1002     0.1294
     20  C2'       62.9030   21.9030  -19.1250 C.3   1002  FMN1002     0.2044
     21  O2'       62.6640   21.3740  -20.4320 O.3   1002  FMN1002    -0.2185
     22  C3'       62.4040   23.3830  -19.0810 C.3   1002  FMN1002     0.2164
     23  O3'       62.4600   23.9150  -17.7160 O.3   1002  FMN1002    -0.2175
     24  C4'       60.9940   23.5970  -19.6070 C.3   1002  FMN1002     0.2147
     25  O4'       60.6420   24.9960  -19.6850 O.3   1002  FMN1002    -0.2176
     26  C5'       59.9130   22.8360  -18.8610 C.3   1002  FMN1002     0.1892
     27  O5'       58.6530   23.0040  -19.5160 O.3   1002  FMN1002    -0.2674
     28  P         57.3380   22.5000  -18.8300 P.3   1002  FMN1002     0.5327
     29  O1P       57.2870   23.1770  -17.4920 O.3   1002  FMN1002    -0.1145
     30  O2P       57.3980   21.0530  -18.7060 O.3   1002  FMN1002    -0.1145
     31  O3P       56.1910   22.9560  -19.7360 O.2   1002  FMN1002    -0.2224
@<TRIPOS>BOND
     1    14    13    1
     2    12    11    1
     3    13    11    1
     4    13    15    2
     5    11    10    2
     6    15    16    1
     7    10     9    1
     8    21    20    1
     9    16     9    1
    10    16    17    1
    11     9     8    2
    12    31    28    2
    13    25    24    1
    14    24    22    1
    15    24    26    1
    16    27    26    1
    17    27    28    1
    18    20    22    1
    19    20    19    1
    20    22    23    1
    21    28    30    1
    22    28    29    1
    23    17    19    1
    24    17    18    1
    25     8     7    2
    26     7    18    1
    27     7     5    1
    28    18     1    2
    29     1     2    2
    30     5     6    2
    31     5     4    2
    32     2     4    2
    33     2     3    2
