@<TRIPOS>MOLECULE
1mvq_MMA_A_1.pdb
 13 13 0 0 0
SMALL
GASTEIGER

@<TRIPOS>ATOM
      1  C1        25.3410   13.6070   28.8460 C.3   237  MMA237      0.2695
      2  C2        23.8470   13.2720   29.0390 C.3   237  MMA237      0.2406
      3  C3        22.9560   14.4540   28.6710 C.3   237  MMA237      0.2198
      4  C4        23.3750   15.7340   29.4410 C.3   237  MMA237      0.2144
      5  C5        24.8780   15.9840   29.1950 C.3   237  MMA237      0.1835
      6  C6        25.4250   17.1780   29.9660 C.3   237  MMA237      0.2142
      7  C7        26.8920   13.9310   27.0610 C.3   237  MMA237      0.1769
      8  O1        25.5060   13.8010   27.4450 O.3   237  MMA237     -0.3259
      9  O2        23.6730   12.9060   30.4120 O.3   237  MMA237     -0.2149
     10  O3        21.5660   14.1400   29.0140 O.3   237  MMA237     -0.2174
     11  O4        22.5620   16.8380   28.9580 O.3   237  MMA237     -0.2176
     12  O5        25.6670   14.8210   29.5510 O.3   237  MMA237     -0.3256
     13  O6        25.3320   16.8970   31.3550 O.3   237  MMA237     -0.2176
@<TRIPOS>BOND
     1     7     8    1
     2     8     1    1
     3     3    10    1
     4     3     2    1
     5     3     4    1
     6     1     2    1
     7     1    12    1
     8    11     4    1
     9     2     9    1
    10     5     4    1
    11     5    12    1
    12     5     6    1
    13     6    13    1
