@<TRIPOS>MOLECULE
1mvt_DTM_A_1.pdb
 27 29 0 0 0
SMALL
GASTEIGER

@<TRIPOS>ATOM
      1  C2B       -0.0760   31.9810    0.4230 C.1   187  DTM187      0.2517
      2  C4B       -1.1450   32.5250    2.4250 C.2   187  DTM187      0.2431
      3  C4A       -1.7800   31.3000    2.4540 C.2   187  DTM187      0.1240
      4  C5B       -2.6320   30.8480    3.5130 C.2   187  DTM187      0.0312
      5  C6B       -3.2800   29.6080    3.4180 C.2   187  DTM187      0.0692
      6  C7'       -3.0200   28.7780    2.2800 C.2   187  DTM187      0.1250
      7  C8A       -1.5640   30.4340    1.4140 C.1   187  DTM187      0.1050
      8  C9'       -5.2030   28.1460    4.0860 C.3   187  DTM187      0.1180
      9  C1'       -4.5540   26.7570    4.2790 C.ar  187  DTM187      0.0038
     10  C2'       -3.2980   26.5240    4.9100 C.ar  187  DTM187      0.0376
     11  C3'       -2.8610   25.2090    4.9840 C.ar  187  DTM187      0.1752
     12  C4'       -3.6510   24.1390    4.4900 C.ar  187  DTM187      0.2060
     13  C5'       -4.8400   24.3970    3.8680 C.ar  187  DTM187      0.1752
     14  C6'       -5.2970   25.6890    3.7440 C.ar  187  DTM187      0.0376
     15  C31       -0.7800   25.7460    6.0130 C.3   187  DTM187      0.2526
     16  C41       -1.7970   22.6870    4.1340 C.3   187  DTM187      0.2528
     17  C51       -6.9550   23.7600    3.0600 C.3   187  DTM187      0.2526
     18  CN'       -4.3140   29.8730    5.6860 C.3   187  DTM187      0.1125
     19  N1'       -0.6650   30.7650    0.4390 N.2   187  DTM187     -0.2706
     20  N2'        0.7920   32.3040   -0.5450 N.pl3 187  DTM187     -0.0226
     21  N3'       -0.2720   32.8210    1.4220 N.2   187  DTM187     -0.3061
     22  N4'       -1.2420   33.5190    3.3160 N.pl3 187  DTM187     -0.0914
     23  N8'       -2.1610   29.2460    1.3390 N.2   187  DTM187     -0.1802
     24  N9'       -4.1530   29.1990    4.3960 N.pl3 187  DTM187     -0.3006
     25  O3'       -1.7130   24.7090    5.5520 O.3   187  DTM187     -0.4683
     26  O4'       -3.1140   22.8580    4.5980 O.3   187  DTM187     -0.4654
     27  O5'       -5.5950   23.3650    3.3270 O.3   187  DTM187     -0.4683
@<TRIPOS>BOND
     1    20     1    1
     2     1    19    2
     3     1    21    2
     4    19     7    2
     5    23     7    2
     6    23     6    1
     7     7     3    1
     8    21     2    2
     9     6     5    2
    10     2     3    1
    11     2    22    1
    12     3     4    2
    13    17    27    1
    14    27    13    1
    15     5     4    1
    16     5    24    1
    17    14    13   ar
    18    14     9   ar
    19    13    12   ar
    20     8     9    1
    21     8    24    1
    22    16    26    1
    23     9    10   ar
    24    24    18    1
    25    12    26    1
    26    12    11   ar
    27    10    11   ar
    28    11    25    1
    29    25    15    1
