@<TRIPOS>MOLECULE
1mvy_GLC_A_1.pdb
 11 11 0 0 0
SMALL
GASTEIGER

@<TRIPOS>ATOM
      1  C1        56.7930   -7.0100   14.0340 C.3   724  GLC724      0.1777
      2  C2        55.8470   -8.2070   14.1980 C.3   724  GLC724      0.2141
      3  C3        54.8930   -7.9540   15.3670 C.3   724  GLC724      0.2173
      4  C4        55.6910   -7.6520   16.6420 C.3   724  GLC724      0.2142
      5  C5        56.6680   -6.4910   16.3930 C.3   724  GLC724      0.1810
      6  C6        57.5900   -6.2380   17.5700 C.3   724  GLC724      0.2141
      7  O2        55.1030   -8.4030   13.0030 O.3   724  GLC724     -0.2176
      8  O3        54.0700   -9.0940   15.5650 O.3   724  GLC724     -0.2175
      9  O4        54.8010   -7.3080   17.6960 O.3   724  GLC724     -0.2176
     10  O5        57.5060   -6.7820   15.2520 O.3   724  GLC724     -0.3481
     11  O6        58.5280   -7.2970   17.7270 O.3   724  GLC724     -0.2176
@<TRIPOS>BOND
     1     7     2    1
     2     1     2    1
     3     1    10    1
     4     2     3    1
     5    10     5    1
     6     3     8    1
     7     3     4    1
     8     5     4    1
     9     5     6    1
    10     4     9    1
    11     6    11    1
