@<TRIPOS>MOLECULE
1mw0_GLC_A_10.pdb
 11 11 0 0 0
SMALL
GASTEIGER

@<TRIPOS>ATOM
      1  C1        53.8430    0.7660    9.0260 C.3   726  GLC726      0.1777
      2  C2        55.3720    0.8830    8.9940 C.3   726  GLC726      0.2141
      3  C3        56.0140   -0.4630    9.3140 C.3   726  GLC726      0.2173
      4  C4        55.4790   -1.0160   10.6400 C.3   726  GLC726      0.2142
      5  C5        53.9470   -1.0610   10.6160 C.3   726  GLC726      0.1810
      6  C6        53.3750   -1.4450   11.9730 C.3   726  GLC726      0.2141
      7  O2        55.7890    1.3020    7.7070 O.3   726  GLC726     -0.2176
      8  O3        57.4200   -0.3130    9.3910 O.3   726  GLC726     -0.2175
      9  O4        55.9900   -2.3470   10.8420 O.3   726  GLC726     -0.2176
     10  O5        53.4100    0.2410   10.2810 O.3   726  GLC726     -0.3481
     11  O6        51.9680   -1.6150   11.9110 O.3   726  GLC726     -0.2176
@<TRIPOS>BOND
     1     7     2    1
     2     2     1    1
     3     2     3    1
     4     1    10    1
     5     3     8    1
     6     3     4    1
     7    10     5    1
     8     5     4    1
     9     5     6    1
    10     4     9    1
    11    11     6    1
