@<TRIPOS>MOLECULE
1mw1_SUC_A_1.pdb
 23 24 0 0 0
SMALL
GASTEIGER

@<TRIPOS>ATOM
      1  C1        52.4060   19.1960   21.4220 C.3   750  SUC750      0.2713
      2  C2        52.5550   19.4920   19.9060 C.3   750  SUC750      0.2406
      3  C3        51.1900   19.8900   19.2960 C.3   750  SUC750      0.2198
      4  C4        50.2130   18.7710   19.5040 C.3   750  SUC750      0.2144
      5  C5        50.0430   18.5070   21.0130 C.3   750  SUC750      0.1835
      6  C6        49.0610   17.3630   21.2680 C.3   750  SUC750      0.2142
      7  O1        52.0560   20.4150   22.1360 O.3   750  SUC750     -0.3033
      8  O2        53.5500   20.5170   19.7490 O.3   750  SUC750     -0.2149
      9  O3        51.3660   20.1450   17.9130 O.3   750  SUC750     -0.2174
     10  O4        48.9270   19.1360   18.9140 O.3   750  SUC750     -0.2176
     11  O5        51.3690   18.1610   21.5870 O.3   750  SUC750     -0.3256
     12  O6        49.6900   16.0950   21.0300 O.3   750  SUC750     -0.2176
     13  C1'       53.7180   21.4490   23.6770 C.3   750  SUC750      0.2406
     14  C2'       52.4590   20.5870   23.5530 C.3   750  SUC750      0.2516
     15  C3'       51.2260   21.1610   24.3180 C.3   750  SUC750      0.2381
     16  C4'       50.5260   19.9070   24.7830 C.3   750  SUC750      0.2167
     17  C5'       51.7460   19.0820   25.1950 C.3   750  SUC750      0.1835
     18  C6'       51.5500   17.6030   25.3910 C.3   750  SUC750      0.2142
     19  O1'       54.6500   21.0840   22.6540 O.3   750  SUC750     -0.2149
     20  O2'       52.7040   19.3350   24.1590 O.3   750  SUC750     -0.3272
     21  O3'       50.4030   21.9750   23.5030 O.3   750  SUC750     -0.2150
     22  O4'       49.6750   20.2140   25.8900 O.3   750  SUC750     -0.2175
     23  O6'       51.2740   16.9420   24.1840 O.3   750  SUC750     -0.2176
@<TRIPOS>BOND
     1     9     3    1
     2    10     4    1
     3     3     4    1
     4     3     2    1
     5     4     5    1
     6     8     2    1
     7     2     1    1
     8     5     6    1
     9     5    11    1
    10    12     6    1
    11     1    11    1
    12     1     7    1
    13     7    14    1
    14    19    13    1
    15    21    15    1
    16    14    13    1
    17    14    20    1
    18    14    15    1
    19    20    17    1
    20    23    18    1
    21    15    16    1
    22    16    17    1
    23    16    22    1
    24    17    18    1
