@<TRIPOS>MOLECULE
1mw2_GLC_A_1.pdb
 11 11 0 0 0
SMALL
GASTEIGER

@<TRIPOS>ATOM
      1  C1        56.5770   -7.0230   14.1040 C.3   724  GLC724      0.1777
      2  C2        55.6100   -8.1870   14.3740 C.3   724  GLC724      0.2141
      3  C3        54.7960   -7.9080   15.6350 C.3   724  GLC724      0.2173
      4  C4        55.7480   -7.6760   16.8060 C.3   724  GLC724      0.2142
      5  C5        56.6840   -6.5090   16.4820 C.3   724  GLC724      0.1810
      6  C6        57.7240   -6.2980   17.5690 C.3   724  GLC724      0.2141
      7  O2        54.7330   -8.3600   13.2720 O.3   724  GLC724     -0.2176
      8  O3        53.9520   -9.0140   15.9090 O.3   724  GLC724     -0.2175
      9  O4        55.0070   -7.3940   17.9840 O.3   724  GLC724     -0.2176
     10  O5        57.4000   -6.7720   15.2530 O.3   724  GLC724     -0.3481
     11  O6        58.5710   -7.4340   17.7000 O.3   724  GLC724     -0.2176
@<TRIPOS>BOND
     1     7     2    1
     2     1     2    1
     3     1    10    1
     4     2     3    1
     5    10     5    1
     6     3     8    1
     7     3     4    1
     8     5     4    1
     9     5     6    1
    10     4     9    1
    11     6    11    1
