@<TRIPOS>MOLECULE
1mw2_SUC_A_1.pdb
 23 24 0 0 0
SMALL
GASTEIGER

@<TRIPOS>ATOM
      1  C1        52.3220   19.3880   21.4070 C.3   750  SUC750      0.2713
      2  C2        52.5370   19.7310   19.9140 C.3   750  SUC750      0.2406
      3  C3        51.2040   20.1330   19.2540 C.3   750  SUC750      0.2198
      4  C4        50.2360   19.0140   19.3790 C.3   750  SUC750      0.2144
      5  C5        50.0000   18.7020   20.8710 C.3   750  SUC750      0.1835
      6  C6        49.0190   17.5450   21.0360 C.3   750  SUC750      0.2142
      7  O1        51.9170   20.5680   22.1470 O.3   750  SUC750     -0.3033
      8  O2        53.5080   20.7700   19.8320 O.3   750  SUC750     -0.2149
      9  O3        51.4360   20.4220   17.8880 O.3   750  SUC750     -0.2174
     10  O4        48.9800   19.4070   18.7360 O.3   750  SUC750     -0.2176
     11  O5        51.3000   18.3370   21.4900 O.3   750  SUC750     -0.3256
     12  O6        49.6590   16.3100   20.6920 O.3   750  SUC750     -0.2176
     13  C1'       53.6890   21.6190   23.5570 C.3   750  SUC750      0.2406
     14  C2'       52.4170   20.7630   23.5290 C.3   750  SUC750      0.2516
     15  C3'       51.2390   21.3450   24.3670 C.3   750  SUC750      0.2381
     16  C4'       50.5450   20.0820   24.8220 C.3   750  SUC750      0.2167
     17  C5'       51.7840   19.2930   25.2270 C.3   750  SUC750      0.1835
     18  C6'       51.6150   17.8290   25.5090 C.3   750  SUC750      0.2142
     19  O1'       54.5580   21.2260   22.4880 O.3   750  SUC750     -0.2149
     20  O2'       52.6870   19.5130   24.1400 O.3   750  SUC750     -0.3272
     21  O3'       50.3950   22.2020   23.6170 O.3   750  SUC750     -0.2150
     22  O4'       49.6910   20.3640   25.9310 O.3   750  SUC750     -0.2175
     23  O6'       51.3030   17.0940   24.3570 O.3   750  SUC750     -0.2176
@<TRIPOS>BOND
     1     9     3    1
     2    10     4    1
     3     3     4    1
     4     3     2    1
     5     4     5    1
     6     8     2    1
     7     2     1    1
     8    12     6    1
     9     5     6    1
    10     5    11    1
    11     1    11    1
    12     1     7    1
    13     7    14    1
    14    19    13    1
    15    14    13    1
    16    14    20    1
    17    14    15    1
    18    21    15    1
    19    20    17    1
    20    23    18    1
    21    15    16    1
    22    16    17    1
    23    16    22    1
    24    17    18    1
