@<TRIPOS>MOLECULE
1mw3_SUC_A_1.pdb
 23 24 0 0 0
SMALL
GASTEIGER

@<TRIPOS>ATOM
      1  C1        53.2070   19.4190   21.2080 C.3   750  SUC750      0.2713
      2  C2        53.4560   19.7040   19.7100 C.3   750  SUC750      0.2406
      3  C3        52.1490   20.1610   19.0240 C.3   750  SUC750      0.2198
      4  C4        51.1120   19.0870   19.1750 C.3   750  SUC750      0.2144
      5  C5        50.8410   18.8380   20.6770 C.3   750  SUC750      0.1835
      6  C6        49.7870   17.7410   20.8890 C.3   750  SUC750      0.2142
      7  O1        52.8600   20.6590   21.8770 O.3   750  SUC750     -0.3033
      8  O2        54.4990   20.6850   19.6190 O.3   750  SUC750     -0.2149
      9  O3        52.4190   20.4040   17.6510 O.3   750  SUC750     -0.2174
     10  O4        49.8870   19.5150   18.5090 O.3   750  SUC750     -0.2176
     11  O5        52.1170   18.4280   21.3180 O.3   750  SUC750     -0.3256
     12  O6        50.3300   16.4570   20.5700 O.3   750  SUC750     -0.2176
     13  C1'       54.6390   21.7360   23.2400 C.3   750  SUC750      0.2406
     14  C2'       53.3460   20.9110   23.2430 C.3   750  SUC750      0.2516
     15  C3'       52.1730   21.5730   24.0330 C.3   750  SUC750      0.2381
     16  C4'       51.4510   20.3730   24.5870 C.3   750  SUC750      0.2167
     17  C5'       52.6710   19.5440   25.0080 C.3   750  SUC750      0.1835
     18  C6'       52.4630   18.0910   25.3410 C.3   750  SUC750      0.2142
     19  O1'       55.5710   21.1660   22.3120 O.3   750  SUC750     -0.2149
     20  O2'       53.5840   19.6930   23.9100 O.3   750  SUC750     -0.3272
     21  O3'       51.3420   22.3710   23.2150 O.3   750  SUC750     -0.2150
     22  O4'       50.6450   20.7770   25.6960 O.3   750  SUC750     -0.2175
     23  O6'       51.9370   17.3760   24.2580 O.3   750  SUC750     -0.2176
@<TRIPOS>BOND
     1     9     3    1
     2    10     4    1
     3     3     4    1
     4     3     2    1
     5     4     5    1
     6     8     2    1
     7     2     1    1
     8    12     6    1
     9     5     6    1
    10     5    11    1
    11     1    11    1
    12     1     7    1
    13     7    14    1
    14    19    13    1
    15    21    15    1
    16    13    14    1
    17    14    20    1
    18    14    15    1
    19    20    17    1
    20    15    16    1
    21    23    18    1
    22    16    17    1
    23    16    22    1
    24    17    18    1
