@<TRIPOS>MOLECULE
1mw8_TMP_X_1.pdb
 21 22 0 0 0
SMALL
GASTEIGER

@<TRIPOS>ATOM
      1  P         37.7280   16.8940   43.5640 P.3   600  TMP600      0.5327
      2  O1P       36.4330   16.2710   43.9180 O.3   600  TMP600     -0.1145
      3  O2P       38.3260   16.1420   42.2820 O.2   600  TMP600     -0.2224
      4  O3P       38.7810   16.9680   44.5970 O.3   600  TMP600     -0.1145
      5  O5'       37.4560   18.3980   43.1370 O.3   600  TMP600     -0.2675
      6  C5'       38.6120   19.1640   42.8740 C.3   600  TMP600      0.1858
      7  C4'       38.2790   20.6140   42.6330 C.3   600  TMP600      0.1774
      8  O4'       39.4430   21.3850   42.9630 O.3   600  TMP600     -0.3339
      9  C3'       37.9430   20.9650   41.1980 C.3   600  TMP600      0.1857
     10  O3'       37.0020   22.0450   41.1890 O.3   600  TMP600     -0.2203
     11  C2'       39.3100   21.2920   40.6060 C.3   600  TMP600      0.0874
     12  C1'       40.1080   21.8060   41.8010 C.3   600  TMP600      0.2090
     13  N1        41.5050   21.3480   42.0350 N.am  600  TMP600     -0.1794
     14  C2        42.0130   20.1740   41.5320 C.1   600  TMP600      0.2844
     15  O2        41.3850   19.4050   40.8270 O.2   600  TMP600     -0.1918
     16  N3        43.3170   19.9340   41.8860 N.2   600  TMP600     -0.2455
     17  C4        44.1340   20.7210   42.6790 C.1   600  TMP600      0.2134
     18  O4        45.2910   20.4090   42.9420 O.2   600  TMP600     -0.2088
     19  C5        43.5200   21.9300   43.1680 C.2   600  TMP600      0.0891
     20  C5M       44.3160   23.0200   43.8020 C.3   600  TMP600      0.0462
     21  C6        42.2620   22.1650   42.8330 C.2   600  TMP600      0.0877
@<TRIPOS>BOND
     1    11     9    1
     2    11    12    1
     3    15    14    2
     4    10     9    1
     5     9     7    1
     6    14    16    2
     7    14    13   am
     8    12    13    1
     9    12     8    1
    10    16    17    2
    11    13    21    1
    12     3     1    2
    13     7     6    1
    14     7     8    1
    15    17    18    2
    16    17    19    1
    17    21    19    2
    18     6     5    1
    19     5     1    1
    20    19    20    1
    21     1     2    1
    22     1     4    1
