@<TRIPOS>MOLECULE
1mwc_HEM_A_1.pdb
 43 50 0 0 0
SMALL
GASTEIGER

@<TRIPOS>ATOM
      1 FE         42.2030   26.0770   49.6680 Fe    154  HEM154      0.0000
      2  CHA       40.8090   23.4000   51.3630 C.2   154  HEM154      0.0000
      3  CHB       43.7790   23.9200   47.5550 C.2   154  HEM154      0.0000
      4  CHC       43.5020   28.7650   47.8820 C.2   154  HEM154      0.0000
      5  CHD       40.7470   28.2240   51.8440 C.2   154  HEM154      0.0000
      6  NA        42.2860   24.1120   49.5030 N.ar  154  HEM154      0.0000
      7  C1A       41.6310   23.1300   50.2650 C.ar  154  HEM154      0.0000
      8  C2A       41.9550   21.8020   49.7890 C.ar  154  HEM154      0.0000
      9  C3A       42.7550   21.9460   48.7360 C.ar  154  HEM154      0.0000
     10  C4A       42.9690   23.3670   48.5560 C.ar  154  HEM154      0.0000
     11  CMA       43.3850   20.8850   47.8250 C.3   154  HEM154      0.0000
     12  CAA       41.3770   20.4740   50.3320 C.3   154  HEM154      0.0000
     13  CBA       40.3310   19.9690   49.2890 C.3   154  HEM154      0.0000
     14  CGA       39.2280   20.9250   48.9620 C.2   154  HEM154      0.0000
     15  O1A       38.4410   21.1980   49.9060 O.co2 154  HEM154      0.0000
     16  O2A       39.1060   21.5100   47.8690 O.co2 154  HEM154      0.0000
     17  NB        43.4100   26.3140   48.0630 N.2   154  HEM154      0.0000
     18  C1B       43.9500   25.2550   47.3530 C.2   154  HEM154      0.0000
     19  C2B       44.7600   25.8300   46.2860 C.2   154  HEM154      0.0000
     20  C3B       44.6750   27.1610   46.3630 C.2   154  HEM154      0.0000
     21  C4B       43.8120   27.4770   47.5070 C.2   154  HEM154      0.0000
     22  CMB       45.5790   24.9950   45.2660 C.3   154  HEM154      0.0000
     23  CAB       45.3900   28.2450   45.5250 C.2   154  HEM154      0.0000
     24  CBB       46.5970   28.0780   44.9740 C.2   154  HEM154      0.0000
     25  NC        42.0800   28.0720   49.7860 N.ar  154  HEM154      0.0000
     26  C1C       42.7580   29.0290   49.0160 C.ar  154  HEM154      0.0000
     27  C2C       42.6470   30.3350   49.6500 C.ar  154  HEM154      0.0000
     28  C3C       41.9050   30.1760   50.7430 C.ar  154  HEM154      0.0000
     29  C4C       41.5520   28.8070   50.8370 C.ar  154  HEM154      0.0000
     30  CMC       43.3090   31.6130   49.0930 C.3   154  HEM154      0.0000
     31  CAC       41.4480   31.2120   51.8030 C.2   154  HEM154      0.0000
     32  CBC       41.8470   32.4840   51.7310 C.2   154  HEM154      0.0000
     33  ND        40.9370   25.8510   51.2450 N.2   154  HEM154      0.0000
     34  C1D       40.5390   26.9060   52.0730 C.2   154  HEM154      0.0000
     35  C2D       39.8010   26.3310   53.1610 C.2   154  HEM154      0.0000
     36  C3D       39.8080   25.0180   53.0090 C.2   154  HEM154      0.0000
     37  C4D       40.5820   24.6550   51.8160 C.2   154  HEM154      0.0000
     38  CMD       39.0920   27.1410   54.2910 C.3   154  HEM154      0.0000
     39  CAD       39.2000   23.9530   53.9720 C.3   154  HEM154      0.0000
     40  CBD       40.1520   23.7150   55.1310 C.3   154  HEM154      0.0000
     41  CGD       39.8030   22.7120   56.2050 C.2   154  HEM154      0.0000
     42  O1D       39.3470   23.1830   57.2700 O.co2 154  HEM154      0.0000
     43  O2D       40.0120   21.4950   56.0370 O.co2 154  HEM154      0.0000
@<TRIPOS>BOND
     1    24    23    2
     2    22    19    1
     3    23    20    1
     4    19    20    2
     5    19    18    1
     6    20    21    1
     7    18     3    1
     8    18    17    2
     9    21     4    2
    10    21    17    1
    11     3    10    2
    12    11     9    1
    13    16    14   ar
    14     4    26    1
    15    17     1    1
    16    10     9   ar
    17    10     6   ar
    18     9     8   ar
    19    14    13    1
    20    14    15   ar
    21    26    27   ar
    22    26    25   ar
    23    30    27    1
    24    13    12    1
    25     6     1    1
    26     6     7   ar
    27    27    28   ar
    28     1    25    1
    29     1    33    1
    30    25    29   ar
    31     8     7   ar
    32     8    12    1
    33     7     2    2
    34    28    29   ar
    35    28    31    1
    36    29     5    1
    37    33    37    2
    38    33    34    1
    39     2    37    1
    40    32    31    2
    41    37    36    1
    42     5    34    2
    43    34    35    1
    44    36    35    2
    45    36    39    1
    46    35    38    1
    47    39    40    1
    48    40    41    1
    49    43    41   ar
    50    41    42   ar
