@<TRIPOS>MOLECULE
1mwd_HEM_A_1.pdb
 43 50 0 0 0
SMALL
GASTEIGER

@<TRIPOS>ATOM
      1 FE         41.8850   25.8370   49.2170 Fe    154  HEM154      0.0000
      2  CHA       40.5740   23.0890   50.9080 C.2   154  HEM154      0.0000
      3  CHB       43.5610   23.6610   47.1060 C.2   154  HEM154      0.0000
      4  CHC       43.5480   28.4880   47.8070 C.2   154  HEM154      0.0000
      5  CHD       40.6090   27.8780   51.6360 C.2   154  HEM154      0.0000
      6  NA        42.0480   23.8420   49.0840 N.ar  154  HEM154      0.0000
      7  C1A       41.3740   22.8490   49.7910 C.ar  154  HEM154      0.0000
      8  C2A       41.6700   21.5440   49.2650 C.ar  154  HEM154      0.0000
      9  C3A       42.4740   21.7060   48.2060 C.ar  154  HEM154      0.0000
     10  C4A       42.7410   23.1250   48.0960 C.ar  154  HEM154      0.0000
     11  CMA       43.1010   20.6520   47.2700 C.3   154  HEM154      0.0000
     12  CAA       41.0630   20.2120   49.7900 C.3   154  HEM154      0.0000
     13  CBA       40.0140   19.7130   48.7760 C.3   154  HEM154      0.0000
     14  CGA       38.8860   20.6860   48.5080 C.2   154  HEM154      0.0000
     15  O1A       38.1390   20.9590   49.4670 O.co2 154  HEM154      0.0000
     16  O2A       38.7880   21.2080   47.3710 O.co2 154  HEM154      0.0000
     17  NB        43.3000   26.0030   47.7710 N.2   154  HEM154      0.0000
     18  C1B       43.7820   25.0060   46.9810 C.2   154  HEM154      0.0000
     19  C2B       44.6160   25.6200   45.9540 C.2   154  HEM154      0.0000
     20  C3B       44.5950   26.9350   46.1400 C.2   154  HEM154      0.0000
     21  C4B       43.7470   27.2070   47.3100 C.2   154  HEM154      0.0000
     22  CMB       45.3690   24.8320   44.8510 C.3   154  HEM154      0.0000
     23  CAB       45.3020   28.0630   45.3740 C.2   154  HEM154      0.0000
     24  CBB       46.5320   27.8750   44.8590 C.2   154  HEM154      0.0000
     25  NC        42.0500   27.7510   49.6340 N.ar  154  HEM154      0.0000
     26  C1C       42.7780   28.7300   48.9510 C.ar  154  HEM154      0.0000
     27  C2C       42.6170   29.9980   49.5890 C.ar  154  HEM154      0.0000
     28  C3C       41.8100   29.8260   50.6410 C.ar  154  HEM154      0.0000
     29  C4C       41.4560   28.4430   50.6860 C.ar  154  HEM154      0.0000
     30  CMC       43.2700   31.3030   49.0830 C.3   154  HEM154      0.0000
     31  CAC       41.3170   30.8660   51.6800 C.2   154  HEM154      0.0000
     32  CBC       41.8240   32.0900   51.7130 C.2   154  HEM154      0.0000
     33  ND        40.8130   25.5390   50.9380 N.2   154  HEM154      0.0000
     34  C1D       40.3890   26.5320   51.7720 C.2   154  HEM154      0.0000
     35  C2D       39.5870   25.9220   52.8490 C.2   154  HEM154      0.0000
     36  C3D       39.5820   24.6170   52.6290 C.2   154  HEM154      0.0000
     37  C4D       40.3780   24.3480   51.4380 C.2   154  HEM154      0.0000
     38  CMD       38.9430   26.7530   53.9650 C.3   154  HEM154      0.0000
     39  CAD       38.9650   23.4920   53.5180 C.3   154  HEM154      0.0000
     40  CBD       39.8480   23.3070   54.7660 C.3   154  HEM154      0.0000
     41  CGD       39.4100   22.3820   55.8670 C.2   154  HEM154      0.0000
     42  O1D       39.1400   22.8720   56.9910 O.co2 154  HEM154      0.0000
     43  O2D       39.3460   21.1610   55.6360 O.co2 154  HEM154      0.0000
@<TRIPOS>BOND
     1    22    19    1
     2    24    23    2
     3    23    20    1
     4    19    20    2
     5    19    18    1
     6    20    21    1
     7    18     3    1
     8    18    17    2
     9     3    10    2
    10    11     9    1
    11    21    17    1
    12    21     4    2
    13    16    14   ar
    14    17     1    1
    15     4    26    1
    16    10     9   ar
    17    10     6   ar
    18     9     8   ar
    19    14    13    1
    20    14    15   ar
    21    13    12    1
    22    26    27   ar
    23    26    25   ar
    24    30    27    1
    25     6     1    1
    26     6     7   ar
    27     1    25    1
    28     1    33    1
    29     8    12    1
    30     8     7   ar
    31    27    28   ar
    32    25    29   ar
    33     7     2    2
    34    28    29   ar
    35    28    31    1
    36    29     5    1
    37     2    37    1
    38    33    37    2
    39    33    34    1
    40    37    36    1
    41     5    34    2
    42    31    32    2
    43    34    35    1
    44    36    35    2
    45    36    39    1
    46    35    38    1
    47    39    40    1
    48    40    41    1
    49    43    41   ar
    50    41    42   ar
