@<TRIPOS>MOLECULE
1mwe_SIA_A_1.pdb
 21 21 0 0 0
SMALL
GASTEIGER

@<TRIPOS>ATOM
      1  C1        23.7160   19.8110   64.8160 C.2     1  SIA1        0.4179
      2  C2        24.5650   18.6530   64.3150 C.3     1  SIA1        0.3155
      3  C3        23.5950   17.5960   63.7480 C.3     1  SIA1        0.1056
      4  C4        24.2460   16.6420   62.7490 C.3     1  SIA1        0.1798
      5  C5        25.8150   16.7720   62.7700 C.3     1  SIA1        0.1554
      6  C6        26.2710   18.2250   62.5060 C.3     1  SIA1        0.1734
      7  C7        27.7830   18.4280   62.7620 C.3     1  SIA1        0.2135
      8  C8        28.1490   19.8880   62.5570 C.3     1  SIA1        0.2173
      9  C9        29.6570   20.1500   62.8510 C.3     1  SIA1        0.2175
     10  C10       27.1070   14.8820   61.7350 C.2     1  SIA1        0.2420
     11  C11       27.5200   14.1300   60.4620 C.3     1  SIA1        0.0964
     12  N5        26.3270   15.9580   61.6330 N.am    1  SIA1       -0.2020
     13  O1A       22.5770   19.6110   65.2780 O.co2   1  SIA1       -0.2401
     14  O1B       24.2740   20.9200   64.8640 O.co2   1  SIA1       -0.2401
     15  O2        25.2190   18.1130   65.4530 O.3     1  SIA1       -0.1830
     16  O4        23.8800   15.3390   62.9920 O.3     1  SIA1       -0.2210
     17  O6        25.5510   19.1070   63.3650 O.3     1  SIA1       -0.3220
     18  O7        28.1030   18.0300   64.0820 O.3     1  SIA1       -0.2176
     19  O8        27.8650   20.2190   61.2340 O.3     1  SIA1       -0.2175
     20  O9        30.3970   19.5270   61.8040 O.3     1  SIA1       -0.2175
     21  O10       27.5420   14.4750   62.8130 O.2     1  SIA1       -0.2733
@<TRIPOS>BOND
     1    11    10    1
     2    19     8    1
     3    12    10   am
     4    12     5    1
     5    10    21    2
     6    20     9    1
     7     6     7    1
     8     6     5    1
     9     6    17    1
    10     8     7    1
    11     8     9    1
    12     4     5    1
    13     4    16    1
    14     4     3    1
    15     7    18    1
    16    17     2    1
    17     3     2    1
    18     2     1    1
    19     2    15    1
    20     1    14   ar
    21     1    13   ar
