@<TRIPOS>MOLECULE
1mwm_ADP_A_1.pdb
 27 29 0 0 0
SMALL
GASTEIGER

@<TRIPOS>ATOM
      1  PB        34.4300  -14.7040  113.6450 P.3   500  ADP500      0.5373
      2  O1B       35.7520  -14.8010  113.0060 O.2   500  ADP500     -0.2221
      3  O2B       33.6030  -13.5670  113.2460 O.3   500  ADP500     -0.1143
      4  O3B       34.6160  -14.7150  115.2650 O.3   500  ADP500     -0.1143
      5  PA        32.2620  -16.4890  112.9220 P.3   500  ADP500      0.2231
      6  O1A       31.3380  -15.9880  113.9530 O.3   500  ADP500     -0.4370
      7  O2A       32.0570  -16.1030  111.4960 O.2   500  ADP500     -0.5169
      8  O3A       33.7000  -16.0730  113.4560 O.3   500  ADP500     -0.2261
      9  O5'       32.3120  -18.0240  113.0850 O.3   500  ADP500     -0.3111
     10  C5'       33.0670  -18.8070  112.2210 C.3   500  ADP500      0.1813
     11  C4'       33.3650  -20.1290  112.8170 C.3   500  ADP500      0.1821
     12  O4'       32.1210  -20.8530  113.1070 O.3   500  ADP500     -0.3135
     13  C3'       34.1630  -21.0020  111.8780 C.3   500  ADP500      0.2184
     14  O3'       34.9800  -21.8840  112.6680 O.3   500  ADP500     -0.2174
     15  C2'       33.0510  -21.6240  111.0950 C.3   500  ADP500      0.2570
     16  O2'       33.3540  -22.7890  110.3820 O.3   500  ADP500     -0.2130
     17  C1'       31.9200  -21.8510  112.1020 C.3   500  ADP500      0.3186
     18  N9        30.5510  -21.8260  111.5160 N.pl3 500  ADP500     -0.1439
     19  C8        29.9960  -21.0860  110.4910 C.3   500  ADP500      0.3377
     20  N7        28.7370  -21.3440  110.2370 N.2   500  ADP500     -0.2095
     21  C5        28.4360  -22.3260  111.1580 C.2   500  ADP500      0.2526
     22  C6        27.2320  -23.0870  111.4600 C.2   500  ADP500      0.4393
     23  N6        26.1090  -22.9000  110.7830 N.pl3 500  ADP500      0.2180
     24  N1        27.2580  -24.0230  112.4770 N.2   500  ADP500      0.0021
     25  C2        28.4040  -24.2220  113.1800 C.3   500  ADP500      0.5254
     26  N3        29.6010  -23.5820  113.0000 N.2   500  ADP500     -0.0055
     27  C4        29.5400  -22.6300  111.9540 C.2   500  ADP500      0.3518
@<TRIPOS>BOND
     1    20    19    1
     2    20    21    2
     3    16    15    1
     4    19    18    1
     5    23    22    1
     6    15    13    1
     7    15    17    1
     8    21    22    1
     9    21    27    1
    10    22    24    2
    11     7     5    2
    12    18    27    1
    13    18    17    1
    14    13    14    1
    15    13    11    1
    16    27    26    2
    17    17    12    1
    18    10    11    1
    19    10     9    1
    20    24    25    1
    21    11    12    1
    22     5     9    1
    23     5     8    1
    24     5     6    1
    25    26    25    1
    26     2     1    2
    27     3     1    1
    28     8     1    1
    29     1     4    1
