@<TRIPOS>MOLECULE
1mwv_HEM_A_1.pdb
 43 50 0 0 0
SMALL
GASTEIGER

@<TRIPOS>ATOM
      1  CHA      -10.4190  -61.8350  -39.6890 C.2   1500  HEM1500     0.0000
      2  CHB       -9.7030  -65.6460  -36.7660 C.2   1500  HEM1500     0.0000
      3  CHC      -14.4870  -66.4100  -36.6340 C.2   1500  HEM1500     0.0000
      4  CHD      -15.2440  -62.6020  -39.5690 C.2   1500  HEM1500     0.0000
      5  C1A       -9.8410  -62.7370  -38.8270 C.2   1500  HEM1500     0.0000
      6  C2A       -8.4490  -62.7360  -38.4380 C.2   1500  HEM1500     0.0000
      7  C3A       -8.2450  -63.8090  -37.6510 C.2   1500  HEM1500     0.0000
      8  C4A       -9.4980  -64.4980  -37.5170 C.2   1500  HEM1500     0.0000
      9  CMA       -6.9100  -64.2340  -36.9950 C.3   1500  HEM1500     0.0000
     10  CAA       -7.3790  -61.7160  -38.8870 C.3   1500  HEM1500     0.0000
     11  CBA       -7.3210  -60.4540  -38.0130 C.3   1500  HEM1500     0.0000
     12  CGA       -6.3420  -59.5220  -38.7240 C.2   1500  HEM1500     0.0000
     13  O1A       -5.1220  -59.8590  -38.7820 O.co2 1500  HEM1500     0.0000
     14  O2A       -6.7950  -58.4630  -39.2650 O.co2 1500  HEM1500     0.0000
     15  C1B      -10.9260  -66.1970  -36.4930 C.ar  1500  HEM1500     0.0000
     16  C2B      -11.1530  -67.4090  -35.7400 C.ar  1500  HEM1500     0.0000
     17  C3B      -12.4850  -67.6280  -35.6910 C.ar  1500  HEM1500     0.0000
     18  C4B      -13.1320  -66.5730  -36.4490 C.ar  1500  HEM1500     0.0000
     19  CMB       -9.9900  -68.2060  -35.1040 C.3   1500  HEM1500     0.0000
     20  CAB      -13.2550  -68.7840  -34.9870 C.2   1500  HEM1500     0.0000
     21  CBB      -12.9190  -70.0470  -35.2800 C.2   1500  HEM1500     0.0000
     22  C1C      -15.1110  -65.3980  -37.3490 C.2   1500  HEM1500     0.0000
     23  C2C      -16.5420  -65.1580  -37.4240 C.2   1500  HEM1500     0.0000
     24  C3C      -16.7630  -64.0910  -38.2240 C.2   1500  HEM1500     0.0000
     25  C4C      -15.4640  -63.6370  -38.6820 C.2   1500  HEM1500     0.0000
     26  CMC      -17.5990  -65.9790  -36.6710 C.3   1500  HEM1500     0.0000
     27  CAC      -18.1120  -63.4170  -38.6190 C.2   1500  HEM1500     0.0000
     28  CBC      -19.2280  -64.1360  -38.8520 C.2   1500  HEM1500     0.0000
     29  C1D      -14.0140  -62.1450  -39.9700 C.ar  1500  HEM1500     0.0000
     30  C2D      -13.8030  -61.1480  -40.9950 C.ar  1500  HEM1500     0.0000
     31  C3D      -12.3140  -60.9040  -41.0440 C.ar  1500  HEM1500     0.0000
     32  C4D      -11.7570  -61.7560  -40.0230 C.ar  1500  HEM1500     0.0000
     33  CMD      -14.8480  -60.4470  -41.8820 C.3   1500  HEM1500     0.0000
     34  CAD      -11.5940  -59.9260  -42.0040 C.3   1500  HEM1500     0.0000
     35  CBD      -11.2820  -58.6280  -41.2580 C.3   1500  HEM1500     0.0000
     36  CGD      -10.7350  -57.6290  -42.2500 C.2   1500  HEM1500     0.0000
     37  O1D      -10.0730  -56.6460  -41.7820 O.co2 1500  HEM1500     0.0000
     38  O2D      -10.9940  -57.7650  -43.4970 O.co2 1500  HEM1500     0.0000
     39  NA       -10.4550  -63.8150  -38.2330 N.2   1500  HEM1500     0.0000
     40  NB       -12.1500  -65.7260  -36.9180 N.ar  1500  HEM1500     0.0000
     41  NC       -14.4710  -64.4420  -38.1320 N.2   1500  HEM1500     0.0000
     42  ND       -12.7740  -62.4770  -39.4260 N.ar  1500  HEM1500     0.0000
     43 FE        -12.4760  -64.2530  -38.3330 Fe    1500  HEM1500     0.0000
@<TRIPOS>BOND
     1    38    36   ar
     2    36    37   ar
     3    36    35    1
     4    34    35    1
     5    34    31    1
     6    33    30    1
     7    31    30   ar
     8    31    32   ar
     9    30    29   ar
    10    32     1    2
    11    32    42   ar
    12    29     4    2
    13    29    42   ar
    14     1     5    1
    15     4    25    1
    16    42    43    1
    17    14    12   ar
    18    10     6    1
    19    10    11    1
    20    28    27    2
    21     5     6    1
    22     5    39    2
    23    13    12   ar
    24    12    11    1
    25    25    24    1
    26    25    41    2
    27    27    24    1
    28     6     7    2
    29    43    39    1
    30    43    41    1
    31    43    40    1
    32    39     8    1
    33    24    23    2
    34    41    22    1
    35     7     8    1
    36     7     9    1
    37     8     2    2
    38    23    22    1
    39    23    26    1
    40    22     3    2
    41    40    15   ar
    42    40    18   ar
    43     2    15    1
    44     3    18    1
    45    15    16   ar
    46    18    17   ar
    47    16    17   ar
    48    16    19    1
    49    17    20    1
    50    21    20    2
