@<TRIPOS>MOLECULE
1mww_GLU_C_1.pdb
 10 9 0 0 0
SMALL
GASTEIGER

@<TRIPOS>ATOM
      1  N         20.0710   54.3760    1.4400 N.3   402  GLU402     -0.1208
      2  CA        21.3240   54.4210    0.6780 C.3   402  GLU402      0.1949
      3  C         21.9840   55.8310    0.7230 C.2   402  GLU402      0.3819
      4  O         22.4240   56.4150   -0.2930 O.co2 402  GLU402     -0.2441
      5  CB        21.0620   53.9440   -0.7790 C.3   402  GLU402      0.0424
      6  CG        20.5850   52.4520   -0.8830 C.3   402  GLU402      0.1161
      7  CD        20.3950   51.9380   -2.3480 C.2   402  GLU402      0.3649
      8  OE1       20.9110   52.5730   -3.3010 O.co2 402  GLU402     -0.2457
      9  OE2       19.7220   50.8870   -2.5560 O.co2 402  GLU402     -0.2457
     10  OXT       22.0940   56.3700    1.8410 O.co2 402  GLU402     -0.2441
@<TRIPOS>BOND
     1     8     7   ar
     2     9     7   ar
     3     7     6    1
     4     6     5    1
     5     5     2    1
     6     4     3   ar
     7     2     3    1
     8     2     1    1
     9     3    10   ar
