@<TRIPOS>MOLECULE
1mx0_ANP_A_1.pdb
 31 33 0 0 0
SMALL
GASTEIGER

@<TRIPOS>ATOM
      1  PG        52.9310   31.0480   27.5850 P.3   900  ANP900      0.4884
      2  O1G       52.9060   30.1330   26.4070 O.2   900  ANP900     -0.2331
      3  O2G       52.0950   32.2410   27.3290 O.3   900  ANP900     -0.1240
      4  O3G       52.4560   30.3490   28.8150 O.3   900  ANP900     -0.1240
      5  PB        55.0440   32.8510   26.9790 P.3   900  ANP900      0.4669
      6  O1B       54.3610   34.1000   27.4000 O.3   900  ANP900     -0.1253
      7  O2B       56.4940   32.9400   27.2750 O.2   900  ANP900     -0.2351
      8  N3B       54.4790   31.5640   27.8320 N.3   900  ANP900     -0.0163
      9  PA        54.2040   33.6540   24.5810 P.3   900  ANP900      0.2220
     10  O1A       52.9040   34.1400   25.0970 O.3   900  ANP900     -0.4370
     11  O2A       54.0710   33.0180   23.2500 O.2   900  ANP900     -0.5170
     12  O3A       54.7910   32.5990   25.5020 O.3   900  ANP900     -0.2360
     13  O5'       55.1530   34.8360   24.4660 O.3   900  ANP900     -0.3111
     14  C5'       56.4370   34.6000   23.9390 C.3   900  ANP900      0.1813
     15  C4'       57.4800   35.5860   24.4390 C.3   900  ANP900      0.1821
     16  O4'       57.3650   36.8590   23.8280 O.3   900  ANP900     -0.3135
     17  C3'       57.3730   35.8870   25.9250 C.3   900  ANP900      0.2184
     18  O3'       58.0380   34.9110   26.6870 O.3   900  ANP900     -0.2174
     19  C2'       57.9750   37.2770   26.0560 C.3   900  ANP900      0.2570
     20  O2'       59.3900   37.2490   26.1730 O.3   900  ANP900     -0.2130
     21  C1'       57.6450   37.9160   24.7230 C.3   900  ANP900      0.3186
     22  N9        56.4760   38.8020   24.8000 N.pl3 900  ANP900     -0.1439
     23  C8        55.2170   38.5470   24.3780 C.3   900  ANP900      0.3377
     24  N7        54.4180   39.6120   24.5590 N.2   900  ANP900     -0.2095
     25  C5        55.1720   40.5730   25.1020 C.2   900  ANP900      0.2526
     26  C6        54.9680   41.9580   25.5430 C.2   900  ANP900      0.4393
     27  N6        53.7310   42.5730   25.4480 N.pl3 900  ANP900      0.2180
     28  N1        56.0200   42.6030   26.0310 N.2   900  ANP900      0.0021
     29  C2        57.2410   42.0360   26.1290 C.3   900  ANP900      0.5254
     30  N3        57.5070   40.7840   25.7580 N.2   900  ANP900     -0.0055
     31  C4        56.5280   40.0380   25.2540 C.2   900  ANP900      0.3518
@<TRIPOS>BOND
     1    11     9    2
     2    16    15    1
     3    16    21    1
     4    14    15    1
     5    14    13    1
     6    23    24    1
     7    23    22    1
     8    15    17    1
     9    13     9    1
    10    24    25    2
    11     9    10    1
    12     9    12    1
    13    21    22    1
    14    21    19    1
    15    22    31    1
    16    25    31    1
    17    25    26    1
    18    31    30    2
    19    27    26    1
    20    12     5    1
    21    26    28    2
    22    30    29    1
    23    17    19    1
    24    17    18    1
    25    28    29    1
    26    19    20    1
    27     2     1    2
    28     5     7    2
    29     5     6    1
    30     5     8    1
    31     3     1    1
    32     1     8    1
    33     1     4    1
