@<TRIPOS>MOLECULE
1mx1_THA_A_1.pdb
 15 17 0 0 0
SMALL
GASTEIGER

@<TRIPOS>ATOM
      1  C1        22.9510  -28.7130   25.7730 C.2     1  THA1        0.0020
      2  C2        23.2920  -29.5050   26.8960 C.2     1  THA1        0.0282
      3  C3        22.2970  -29.8660   27.8410 C.2     1  THA1        0.1177
      4  C4        20.8940  -29.4120   27.6510 C.3     1  THA1        0.1131
      5  C5        20.6030  -28.6090   26.4930 C.2     1  THA1       -0.0136
      6  C6        21.6220  -28.2690   25.5710 C.2     1  THA1       -0.0037
      7  N7        22.6380  -30.6140   28.8950 N.2     1  THA1       -0.4102
      8  C8        21.7640  -30.9990   29.8330 C.2     1  THA1        0.1056
      9  C9        20.3600  -30.6200   29.7640 C.2     1  THA1        0.0165
     10  C10       19.9270  -29.8130   28.6510 C.2     1  THA1        0.0753
     11  C11       22.3190  -31.8720   31.0080 C.3     1  THA1        0.0587
     12  C12       21.2510  -32.5540   31.9190 C.3     1  THA1        0.0078
     13  C13       20.0870  -31.5770   32.2290 C.3     1  THA1        0.0052
     14  C14       19.3940  -31.1150   30.9150 C.3     1  THA1        0.0297
     15  N15       18.6270  -29.4480   28.5650 N.pl3   1  THA1       -0.1322
@<TRIPOS>BOND
     1     6     1    1
     2     6     5    2
     3     1     2    2
     4     5     4    1
     5     2     3    1
     6     4     3    1
     7     4    10    1
     8     3     7    2
     9    15    10    1
    10    10     9    2
    11     7     8    2
    12     9     8    1
    13     9    14    1
    14     8    11    1
    15    14    13    1
    16    11    12    1
    17    12    13    1
