@<TRIPOS>MOLECULE
1mx1_SIA_A_1.pdb
 21 21 0 0 0
SMALL
GASTEIGER

@<TRIPOS>ATOM
      1  C1        26.9720  -26.1340   56.1600 C.2   182  SIA182      0.4179
      2  C2        26.3300  -24.8220   55.7080 C.3   182  SIA182      0.3155
      3  C3        25.7740  -24.9990   54.2760 C.3   182  SIA182      0.1056
      4  C4        24.9100  -23.8210   53.8040 C.3   182  SIA182      0.1798
      5  C5        24.6210  -22.8370   54.9450 C.3   182  SIA182      0.1554
      6  C6        24.2980  -23.5500   56.2840 C.3   182  SIA182      0.1734
      7  C7        24.1810  -22.5290   57.4290 C.3   182  SIA182      0.2135
      8  C8        23.7140  -23.2590   58.6900 C.3   182  SIA182      0.2173
      9  C9        23.6200  -22.3380   59.9130 C.3   182  SIA182      0.2175
     10  C10       23.6520  -20.7960   54.1350 C.2   182  SIA182      0.2420
     11  C11       22.5760  -20.2020   53.2660 C.3   182  SIA182      0.0964
     12  N5        23.4740  -22.0350   54.5660 N.am  182  SIA182     -0.2020
     13  O1A       27.7360  -26.7430   55.4010 O.co2 182  SIA182     -0.2401
     14  O1B       26.7000  -26.5650   57.2910 O.co2 182  SIA182     -0.2401
     15  O2        27.2620  -23.8020   55.7580 O.3   182  SIA182     -0.1830
     16  O4        25.5370  -23.1310   52.7290 O.3   182  SIA182     -0.2210
     17  O6        25.2960  -24.5370   56.6690 O.3   182  SIA182     -0.3220
     18  O7        25.4490  -21.9300   57.6710 O.3   182  SIA182     -0.2176
     19  O8        22.4520  -23.8530   58.4550 O.3   182  SIA182     -0.2175
     20  O9        22.5860  -21.3790   59.7190 O.3   182  SIA182     -0.2175
     21  O10       24.6500  -20.1440   54.4060 O.2   182  SIA182     -0.2733
@<TRIPOS>BOND
     1    16     4    1
     2    11    10    1
     3     4     3    1
     4     4     5    1
     5    10    21    2
     6    10    12   am
     7     3     2    1
     8    12     5    1
     9     5     6    1
    10    13     1   ar
    11     2    15    1
    12     2     1    1
    13     2    17    1
    14     1    14   ar
    15     6    17    1
    16     6     7    1
    17     7    18    1
    18     7     8    1
    19    19     8    1
    20     8     9    1
    21    20     9    1
