@<TRIPOS>MOLECULE
1mx3_NAD_A_1.pdb
 44 48 0 0 0
SMALL
GASTEIGER

@<TRIPOS>ATOM
      1  PA        -3.6840   25.4230   55.3220 P.3   1000  NAD1000     0.2189
      2  O1A       -2.9070   24.1770   55.5140 O.2   1000  NAD1000    -0.5170
      3  O2A       -4.9800   25.4140   56.0460 O.3   1000  NAD1000    -0.4371
      4  O5B       -4.0860   25.5920   53.7980 O.3   1000  NAD1000    -0.3112
      5  C5B       -3.1100   25.6520   52.7400 C.3   1000  NAD1000     0.1813
      6  C4B       -3.9510   25.3230   51.5210 C.3   1000  NAD1000     0.1821
      7  O4B       -3.1080   25.3660   50.3330 O.3   1000  NAD1000    -0.3135
      8  C3B       -4.5390   23.8980   51.5180 C.3   1000  NAD1000     0.2184
      9  O3B       -5.9840   23.9310   51.3390 O.3   1000  NAD1000    -0.2174
     10  C2B       -3.7450   23.2500   50.3790 C.3   1000  NAD1000     0.2570
     11  O2B       -4.4750   22.1790   49.7620 O.3   1000  NAD1000    -0.2130
     12  C1B       -3.5320   24.4330   49.4400 C.3   1000  NAD1000     0.3186
     13  N9A       -2.4410   24.2380   48.5090 N.pl3 1000  NAD1000    -0.1439
     14  C8A       -1.2670   23.5570   48.7230 C.3   1000  NAD1000     0.3377
     15  N7A       -0.4580   23.5590   47.6590 N.2   1000  NAD1000    -0.2095
     16  C5A       -1.1790   24.2910   46.7250 C.2   1000  NAD1000     0.2526
     17  C6A       -0.8850   24.6690   45.3780 C.2   1000  NAD1000     0.4393
     18  N6A        0.2440   24.3470   44.7240 N.pl3 1000  NAD1000     0.2180
     19  N1A       -1.8310   25.4200   44.7080 N.2   1000  NAD1000     0.0021
     20  C2A       -2.9940   25.7580   45.3660 C.3   1000  NAD1000     0.5254
     21  N3A       -3.3380   25.4440   46.6060 N.2   1000  NAD1000    -0.0055
     22  C4A       -2.3960   24.7130   47.2360 C.2   1000  NAD1000     0.3518
     23  O3        -2.7810   26.6710   55.7490 O.3   1000  NAD1000    -0.2703
     24  PN        -3.4640   27.9890   56.3300 P.3   1000  NAD1000     0.2189
     25  O1N       -4.0840   29.0850   55.5490 O.2   1000  NAD1000    -0.5170
     26  O2N       -3.0670   28.2930   57.7380 O.3   1000  NAD1000    -0.4371
     27  O5D       -2.0130   28.5560   55.7750 O.3   1000  NAD1000    -0.3112
     28  C5D       -1.8020   29.0640   54.3860 C.3   1000  NAD1000     0.1813
     29  C4D       -0.3490   29.5210   54.1680 C.3   1000  NAD1000     0.1799
     30  O4D       -0.0850   30.7740   54.8600 O.3   1000  NAD1000    -0.3327
     31  C3D        0.7730   28.5590   54.6110 C.3   1000  NAD1000     0.2158
     32  O3D        1.8570   28.5840   53.6500 O.3   1000  NAD1000    -0.2175
     33  C2D        1.2470   29.1600   55.9060 C.3   1000  NAD1000     0.2309
     34  O2D        2.6040   28.7660   56.2020 O.3   1000  NAD1000    -0.2158
     35  C1D        1.0960   30.6400   55.6310 C.3   1000  NAD1000     0.2263
     36  N1N        1.0310   31.4550   56.8540 N.pl3 1000  NAD1000    -0.2787
     37  C2N        1.7980   32.6360   56.9270 C.3   1000  NAD1000     0.1244
     38  C3N        1.8000   33.4880   58.1120 C.2   1000  NAD1000     0.0544
     39  C7N        2.6610   34.7090   58.0560 C.2   1000  NAD1000     0.2818
     40  O7N        2.6360   35.3710   59.1000 O.2   1000  NAD1000    -0.2670
     41  N7N        3.4090   35.0800   56.9760 N.am  1000  NAD1000    -0.0839
     42  C4N        0.9660   33.0940   59.2770 C.2   1000  NAD1000     0.0033
     43  C5N        0.1580   31.8180   59.1240 C.2   1000  NAD1000     0.0157
     44  C6N        0.2230   31.1010   57.9930 C.2   1000  NAD1000     0.0633
@<TRIPOS>BOND
     1    19    20    1
     2    19    17    2
     3    18    17    1
     4    20    21    1
     5    17    16    1
     6    21    22    2
     7    16    22    1
     8    16    15    2
     9    22    13    1
    10    15    14    1
    11    13    14    1
    12    13    12    1
    13    12     7    1
    14    12    10    1
    15    11    10    1
    16     7     6    1
    17    10     8    1
    18     9     8    1
    19     8     6    1
    20     6     5    1
    21     5     4    1
    22    32    31    1
    23     4     1    1
    24    29    28    1
    25    29    31    1
    26    29    30    1
    27    28    27    1
    28    31    33    1
    29    30    35    1
    30     1     2    2
    31     1    23    1
    32     1     3    1
    33    25    24    2
    34    35    33    1
    35    35    36    1
    36    23    24    1
    37    27    24    1
    38    33    34    1
    39    24    26    1
    40    36    37    1
    41    36    44    1
    42    37    38    1
    43    41    39   am
    44    44    43    2
    45    39    38    1
    46    39    40    2
    47    38    42    2
    48    43    42    1
