@<TRIPOS>MOLECULE
1mx5_HTQ_A_1.pdb
 20 22 0 0 0
SMALL
GASTEIGER

@<TRIPOS>ATOM
      1  C1         1.4290   -9.6710   52.4670 C.3   111  HTQ111      0.0611
      2  C2         2.9150   -9.3810   52.0570 C.3   111  HTQ111      0.0596
      3  C3         4.0030   -9.7390   53.1630 C.3   111  HTQ111      0.1716
      4  C4         3.4000  -10.0370   54.6090 C.3   111  HTQ111      0.0596
      5  C5         1.8140   -9.9930   54.7440 C.3   111  HTQ111      0.0611
      6  C6         1.1690  -11.3220   54.2970 C.3   111  HTQ111      0.0175
      7  C7         1.1040  -11.1850   52.7580 C.3   111  HTQ111      0.0175
      8  N8         1.2630   -9.0030   53.7660 N.3   111  HTQ111     -0.2738
      9  C9        -0.1430   -8.5200   54.0370 C.3   111  HTQ111      0.0896
     10  O10        5.0100   -8.6810   53.3270 O.3   111  HTQ111     -0.4502
     11  C11        5.4930   -7.7870   52.3590 C.2   111  HTQ111      0.3520
     12  O12        5.1640   -7.7150   51.1690 O.2   111  HTQ111     -0.2469
     13  C13        6.5310   -6.8460   52.9760 C.3   111  HTQ111      0.2719
     14  C14        7.7630   -7.6560   53.4620 C.ar  111  HTQ111      0.0186
     15  C15        7.7910   -8.1750   54.7910 C.ar  111  HTQ111     -0.0013
     16  C16        8.8830   -7.9110   52.6110 C.ar  111  HTQ111     -0.0013
     17  C17        8.9050   -8.9210   55.2530 C.ar  111  HTQ111     -0.0002
     18  C18        9.9950   -8.6550   53.0780 C.ar  111  HTQ111     -0.0002
     19  C19       10.0050   -9.1630   54.3970 C.ar  111  HTQ111     -0.0000
     20  O20        6.9070   -5.8290   52.0200 O.3   111  HTQ111     -0.2061
@<TRIPOS>BOND
     1    12    11    2
     2    20    13    1
     3     2     1    1
     4     2     3    1
     5    11    13    1
     6    11    10    1
     7     1     7    1
     8     1     8    1
     9    16    18   ar
    10    16    14   ar
    11     7     6    1
    12    13    14    1
    13    18    19   ar
    14     3    10    1
    15     3     4    1
    16    14    15   ar
    17     8     9    1
    18     8     5    1
    19     6     5    1
    20    19    17   ar
    21     4     5    1
    22    15    17   ar
