@<TRIPOS>MOLECULE
1mx5_SIA_A_1.pdb
 21 21 0 0 0
SMALL
GASTEIGER

@<TRIPOS>ATOM
      1  C1        16.1950    9.6810   66.2660 C.2   182  SIA182      0.4179
      2  C2        17.1880   10.7310   66.7290 C.3   182  SIA182      0.3155
      3  C3        17.1430   11.9080   65.7600 C.3   182  SIA182      0.1056
      4  C4        17.7710   13.1590   66.3730 C.3   182  SIA182      0.1798
      5  C5        18.5750   12.8620   67.6650 C.3   182  SIA182      0.1554
      6  C6        17.7540   12.0630   68.7020 C.3   182  SIA182      0.1734
      7  C7        18.7030   11.3030   69.6570 C.3   182  SIA182      0.2135
      8  C8        17.9600   10.3630   70.6250 C.3   182  SIA182      0.2173
      9  C9        18.9550    9.6020   71.4970 C.3   182  SIA182      0.2175
     10  C10       20.3200   14.3350   68.4700 C.2   182  SIA182      0.2420
     11  C11       20.7150   15.5830   69.2530 C.3   182  SIA182      0.0964
     12  N5        19.0190   14.1060   68.2740 N.am  182  SIA182     -0.2020
     13  O1A       15.9170    9.6130   65.0500 O.co2 182  SIA182     -0.2401
     14  O1B       15.7100    8.8920   67.1070 O.co2 182  SIA182     -0.2401
     15  O2        18.4600   10.1710   66.7500 O.3   182  SIA182     -0.1830
     16  O4        18.6310   13.7610   65.4050 O.3   182  SIA182     -0.2210
     17  O6        16.8090   11.1470   68.0640 O.3   182  SIA182     -0.3220
     18  O7        19.6510   10.5630   68.9010 O.3   182  SIA182     -0.2176
     19  O8        17.0910   11.1280   71.4560 O.3   182  SIA182     -0.2175
     20  O9        19.6920   10.5190   72.2930 O.3   182  SIA182     -0.2175
     21  O10       21.2040   13.5970   68.0310 O.2   182  SIA182     -0.2733
@<TRIPOS>BOND
     1    13     1   ar
     2    16     4    1
     3     3     4    1
     4     3     2    1
     5     1     2    1
     6     1    14   ar
     7     4     5    1
     8     2    15    1
     9     2    17    1
    10     5    12    1
    11     5     6    1
    12    21    10    2
    13    17     6    1
    14    12    10   am
    15    10    11    1
    16     6     7    1
    17    18     7    1
    18     7     8    1
    19     8    19    1
    20     8     9    1
    21     9    20    1
