@<TRIPOS>MOLECULE
1mx9_NLX_A_1.pdb
 25 29 0 0 0
SMALL
GASTEIGER

@<TRIPOS>ATOM
      1  O1        -6.0790    3.1260   35.5950 O.3     1  NLX1       -0.2833
      2  O2        -7.1770    0.8110   33.9510 O.3     1  NLX1       -0.4684
      3  O3        -7.1420   -1.9970   35.0720 O.2     1  NLX1       -0.2923
      4  O4       -11.2870   -1.4270   33.3500 O.3     1  NLX1       -0.2273
      5  N1       -12.4770    1.2830   32.3170 N.4     1  NLX1        0.3944
      6  C1        -9.7420    3.6880   35.7140 C.ar    1  NLX1       -0.0012
      7  C2        -8.3370    3.8600   35.9230 C.ar    1  NLX1        0.0449
      8  C3        -7.3970    2.9510   35.3630 C.ar    1  NLX1        0.2290
      9  C4        -7.8640    1.8420   34.5700 C.ar    1  NLX1        0.1735
     10  C5        -8.1830   -0.2750   33.7030 C.3     1  NLX1        0.2281
     11  C6        -8.1810   -1.3830   34.8370 C.2     1  NLX1        0.1907
     12  C7        -9.4570   -1.7440   35.6770 C.3     1  NLX1        0.0708
     13  C8       -10.6510   -0.7140   35.5760 C.3     1  NLX1        0.0367
     14  C9       -12.1770    0.9300   33.8630 C.3     1  NLX1       -0.0203
     15  C10      -11.7570    2.2650   34.7210 C.3     1  NLX1        0.0083
     16  C11      -10.2310    2.5950   34.9430 C.ar    1  NLX1       -0.0248
     17  C12       -9.2660    1.6900   34.3520 C.ar    1  NLX1        0.0164
     18  C13       -9.5900    0.4600   33.4870 C.3     1  NLX1        0.0871
     19  C14      -10.9480   -0.2230   34.0810 C.3     1  NLX1        0.1180
     20  C15       -9.8060    0.9690   31.9680 C.3     1  NLX1       -0.0118
     21  C16      -11.1660    1.7400   31.6110 C.3     1  NLX1       -0.0719
     22  C17      -13.5730    2.3990   32.1110 C.3     1  NLX1       -0.0458
     23  C18      -15.0130    2.2400   32.6530 C.2     1  NLX1       -0.0486
     24  C19      -16.1150    1.9340   31.9380 C.2     1  NLX1       -0.0071
     25  C20      -13.0950    0.0920   31.5690 C.3     1  NLX1       -0.0951
@<TRIPOS>BOND
     1    25     5    1
     2    21    20    1
     3    21     5    1
     4    24    23    2
     5    20    18    1
     6    22     5    1
     7    22    23    1
     8     5    14    1
     9     4    19    1
    10    18    10    1
    11    18    19    1
    12    18    17    1
    13    10     2    1
    14    10    11    1
    15    14    19    1
    16    14    15    1
    17     2     9    1
    18    19    13    1
    19    17     9   ar
    20    17    16   ar
    21     9     8   ar
    22    15    16    1
    23    11     3    2
    24    11    12    1
    25    16     6   ar
    26     8     1    1
    27     8     7   ar
    28    13    12    1
    29     6     7   ar
