@<TRIPOS>MOLECULE
1mxb_ADP_A_1.pdb
 31 33 0 0 0
SMALL
GASTEIGER

@<TRIPOS>ATOM
      1  PB       -13.6610   42.7090   18.1000 P.3   385  ADP385      0.5373
      2  O1B      -12.3320   43.3190   18.3430 O.3   385  ADP385     -0.1143
      3  O2B      -13.5820   41.3110   17.5560 O.2   385  ADP385     -0.2221
      4  O3B      -14.5530   42.8620   19.2750 O.3   385  ADP385     -0.1143
      5  PA       -15.9110   43.0820   16.6510 P.3   385  ADP385      0.2231
      6  O1A      -16.6870   43.2430   17.9310 O.3   385  ADP385     -0.4370
      7  O2A      -15.8090   41.7430   16.0010 O.2   385  ADP385     -0.5169
      8  O3A      -14.3790   43.5900   16.9130 O.3   385  ADP385     -0.2261
      9  O5'      -16.7070   44.0590   15.6840 O.3   385  ADP385     -0.3111
     10  C5'      -17.2810   43.6570   14.4420 C.3   385  ADP385      0.1812
     11  C4'      -16.3330   43.9530   13.2830 C.3   385  ADP385      0.1784
     12  O4'      -16.9380   44.8370   12.3230 O.3   385  ADP385     -0.3138
     13  C3'      -15.0200   44.5940   13.7590 C.3   385  ADP385      0.1737
     14  O3'      -13.9670   43.6130   13.8430 O.3   385  ADP385     -0.3793
     15  C2'      -14.7250   45.7330   12.8060 C.3   385  ADP385      0.2135
     16  O2'      -13.5470   45.4550   12.0330 O.3   385  ADP385     -0.3763
     17  C1'      -15.9610   45.8140   11.8920 C.3   385  ADP385      0.3148
     18  N9       -16.5510   47.1760   11.7820 N.pl3 385  ADP385     -0.1440
     19  C8       -16.2930   48.2970   12.5540 C.3   385  ADP385      0.3377
     20  N7       -16.4070   49.4180   11.8880 N.2   385  ADP385     -0.2098
     21  C5       -16.9170   49.0370   10.6450 C.2   385  ADP385      0.2438
     22  C6       -17.4980   49.7770    9.5860 C.2   385  ADP385      0.3428
     23  N6       -17.4710   51.1140    9.5540 N.pl3 385  ADP385     -0.2449
     24  N1       -18.1870   49.1040    8.6430 N.2   385  ADP385     -0.0059
     25  C2       -18.3240   47.7930    8.7710 C.3   385  ADP385      0.5252
     26  N3       -17.7790   46.9640    9.6600 N.2   385  ADP385     -0.0055
     27  C4       -17.0870   47.6680   10.6010 C.2   385  ADP385      0.3515
     28 HO3'      -13.6350   43.4760   12.9460 H     385  ADP385      0.2105
     29 HO2'      -12.9110   45.0470   12.6310 H     385  ADP385      0.2107
     30 HN61      -17.7040   51.6190    8.7090 H     385  ADP385      0.2885
     31 HN62      -17.2890   51.6250   10.4090 H     385  ADP385      0.2885
@<TRIPOS>BOND
     1    24    25    1
     2    24    22    2
     3    30    23    1
     4    25    26    1
     5    23    22    1
     6    23    31    1
     7    22    21    1
     8    26    27    2
     9    27    21    1
    10    27    18    1
    11    21    20    2
    12    18    17    1
    13    18    19    1
    14    20    19    1
    15    17    12    1
    16    17    15    1
    17    16    29    1
    18    16    15    1
    19    12    11    1
    20    15    13    1
    21    28    14    1
    22    11    13    1
    23    11    10    1
    24    13    14    1
    25    10     9    1
    26     9     5    1
    27     7     5    2
    28     5     8    1
    29     5     6    1
    30     8     1    1
    31     3     1    2
    32     1     2    1
    33     1     4    1
