@<TRIPOS>MOLECULE
1mxc_ABP_A_1.pdb
 31 33 0 0 0
SMALL
GASTEIGER

@<TRIPOS>ATOM
      1  PB       -13.6070   42.7550   18.0520 P.3   385  ABP385      0.5373
      2  O1B      -12.2780   43.3390   18.3720 O.3   385  ABP385     -0.1143
      3  O2B      -13.5260   41.3580   17.4910 O.2   385  ABP385     -0.2221
      4  O3B      -14.5490   42.8870   19.1840 O.3   385  ABP385     -0.1143
      5  PA       -15.7830   43.1090   16.5160 P.3   385  ABP385      0.2231
      6  O1A      -16.6370   43.2510   17.7490 O.3   385  ABP385     -0.4370
      7  O2A      -15.6240   41.7610   15.8750 O.2   385  ABP385     -0.5169
      8  O3A      -14.2890   43.6630   16.8810 O.3   385  ABP385     -0.2261
      9  O5'      -16.5270   44.1000   15.5050 O.3   385  ABP385     -0.3111
     10  C5'      -17.0240   43.7720   14.2060 C.3   385  ABP385      0.1813
     11  C4'      -16.0600   44.2130   13.0910 C.3   385  ABP385      0.1820
     12  O4'      -16.6040   45.2620   12.2550 O.3   385  ABP385     -0.3133
     13  C3'      -14.7230   44.7220   13.6260 C.3   385  ABP385      0.2149
     14  O3'      -13.8120   43.6300   13.8740 O.3   385  ABP385     -0.2176
     15  C2'      -14.2340   45.7190   12.5810 C.3   385  ABP385      0.2176
     16  O2'      -13.2810   45.0960   11.6960 O.3   385  ABP385     -0.3762
     17  C1'      -15.5050   46.1010   11.7920 C.3   385  ABP385      0.3202
     18  N9       -15.8720   47.5710   11.7690 N.pl3 385  ABP385     -0.1124
     19  C8       -15.2790   48.7560   12.2870 C.2   385  ABP385      0.3130
     20 BR8       -14.0590   48.9630   13.7470 Br    385  ABP385      0.0337
     21  N7       -15.6850   49.8310   11.6620 N.2   385  ABP385     -0.3446
     22  C5       -16.6270   49.3890   10.7390 C.2   385  ABP385      0.2983
     23  C6       -17.2870   50.0500    9.6790 C.2   385  ABP385      0.3553
     24  N6       -17.3990   51.3760    9.6220 N.pl3 385  ABP385     -0.2440
     25  N1       -17.9220   49.2960    8.7600 N.2   385  ABP385     -0.0048
     26  C2       -17.9830   47.9860    8.9440 C.3   385  ABP385      0.5252
     27  N3       -17.4180   47.2410    9.8890 N.2   385  ABP385     -0.0039
     28  C4       -16.7550   48.0260   10.7960 C.2   385  ABP385      0.3690
     29 HO2'      -12.9910   44.2800   12.1280 H     385  ABP385      0.2107
     30 HN61      -17.3430   51.9170   10.4770 H     385  ABP385      0.2885
     31 HN62      -17.6180   51.8320    8.7470 H     385  ABP385      0.2885
@<TRIPOS>BOND
     1    31    24    1
     2    25    26    1
     3    25    23    2
     4    26    27    1
     5    24    23    1
     6    24    30    1
     7    23    22    1
     8    27    28    2
     9    22    28    1
    10    22    21    2
    11    28    18    1
    12    21    19    2
    13    16    29    1
    14    16    15    1
    15    18    17    1
    16    18    19    1
    17    17    12    1
    18    17    15    1
    19    12    11    1
    20    19    20    1
    21    15    13    1
    22    11    13    1
    23    11    10    1
    24    13    14    1
    25    10     9    1
    26     9     5    1
    27     7     5    2
    28     5     8    1
    29     5     6    1
    30     8     1    1
    31     3     1    2
    32     1     2    1
    33     1     4    1
