@<TRIPOS>MOLECULE
1mxd_ACR_A_1.pdb
 33 35 0 0 0
SMALL
GASTEIGER

@<TRIPOS>ATOM
      1  C1B        8.7070   21.1380   18.6490 C.3   732  ACR732      0.2694
      2  C2B        9.2520   20.7570   20.0370 C.3   732  ACR732      0.2394
      3  C3B        8.1250   20.1790   20.9090 C.3   732  ACR732      0.2070
      4  C4B        6.9480   21.1610   20.9910 C.3   732  ACR732      0.1518
      5  C5B        6.4710   21.5240   19.5720 C.3   732  ACR732      0.1380
      6  C6B        5.3330   22.5460   19.6550 C.3   732  ACR732      0.0338
      7  N4B        5.8670   20.5540   21.7820 N.3   732  ACR732     -0.1276
      8  O2B       10.2610   19.7620   19.8770 O.3   732  ACR732     -0.2149
      9  O3B        8.6240   19.9240   22.2200 O.3   732  ACR732     -0.2186
     10  O5B        7.5960   22.0880   18.8010 O.3   732  ACR732     -0.3295
     11  C1C        9.0600   18.1810   14.2410 C.3   732  ACR732      0.2695
     12  C2C        9.9760   17.7310   15.3890 C.3   732  ACR732      0.2404
     13  C3C        9.3380   18.1240   16.7370 C.3   732  ACR732      0.2167
     14  C4C        9.0310   19.6420   16.7880 C.3   732  ACR732      0.1804
     15  C5C        8.2320   20.0610   15.5190 C.3   732  ACR732      0.1803
     16  C6C        8.0910   21.5820   15.4620 C.3   732  ACR732      0.2141
     17  O2C       10.1290   16.3090   15.3260 O.3   732  ACR732     -0.2149
     18  O3C       10.2260   17.7770   17.8030 O.3   732  ACR732     -0.2175
     19  O4C        8.2580   19.9350   17.9800 O.3   732  ACR732     -0.3257
     20  O5C        8.9030   19.6190   14.2920 O.3   732  ACR732     -0.3257
     21  O6C        9.3880   22.1680   15.2970 O.3   732  ACR732     -0.2176
     22  C1D        5.1400   15.6230   11.7540 C.3   732  ACR732      0.3023
     23  C2D        6.3660   14.8260   12.2260 C.3   732  ACR732      0.2433
     24  C3D        6.9720   15.4920   13.4700 C.3   732  ACR732      0.2168
     25  C4D        7.3090   16.9620   13.1910 C.3   732  ACR732      0.1804
     26  C5D        6.0420   17.6850   12.6870 C.3   732  ACR732      0.1804
     27  C6D        6.3530   19.1600   12.3630 C.3   732  ACR732      0.2141
     28  O1D        4.1100   15.5580   12.7550 O.3   732  ACR732     -0.1869
     29  O2D        5.9610   13.4980   12.5600 O.3   732  ACR732     -0.2148
     30  O3D        8.1580   14.7970   13.8630 O.3   732  ACR732     -0.2175
     31  O4D        7.7680   17.5630   14.4030 O.3   732  ACR732     -0.3257
     32  O5D        5.5180   17.0180   11.5030 O.3   732  ACR732     -0.3237
     33  O6D        7.3790   19.2520   11.3740 O.3   732  ACR732     -0.2176
@<TRIPOS>BOND
     1    33    27    1
     2    32    22    1
     3    32    26    1
     4    22    23    1
     5    22    28    1
     6    23    29    1
     7    23    24    1
     8    27    26    1
     9    26    25    1
    10    25    24    1
    11    25    31    1
    12    24    30    1
    13    11    20    1
    14    11    31    1
    15    11    12    1
    16    20    15    1
    17    21    16    1
    18    17    12    1
    19    12    13    1
    20    16    15    1
    21    15    14    1
    22    13    14    1
    23    13    18    1
    24    14    19    1
    25    19     1    1
    26     1    10    1
    27     1     2    1
    28    10     5    1
    29     5     6    1
    30     5     4    1
    31     8     2    1
    32     2     3    1
    33     3     4    1
    34     3     9    1
    35     4     7    1
