@<TRIPOS>MOLECULE
1mxd_GLC_A_1.pdb
 12 12 0 0 0
SMALL
GASTEIGER

@<TRIPOS>ATOM
      1  C1        35.0500   11.1810   17.5650 C.3   736  GLC736      0.3024
      2  C2        36.0340   10.4150   18.4770 C.3   736  GLC736      0.2434
      3  C3        37.2940   11.2850   18.6750 C.3   736  GLC736      0.2199
      4  C4        37.9220   11.5190   17.2890 C.3   736  GLC736      0.2144
      5  C5        36.9690   12.3030   16.3580 C.3   736  GLC736      0.1836
      6  C6        37.4370   12.6100   14.9170 C.3   736  GLC736      0.2142
      7  O1        34.3160   12.3290   17.8560 O.3   736  GLC736     -0.1869
      8  O2        35.3280   10.1300   19.6870 O.3   736  GLC736     -0.2148
      9  O3        38.1740   10.5500   19.5110 O.3   736  GLC736     -0.2174
     10  O4        39.1350   12.3360   17.3200 O.3   736  GLC736     -0.2176
     11  O5        35.6780   11.5630   16.2720 O.3   736  GLC736     -0.3236
     12  O6        37.7360   12.9070   13.5610 O.3   736  GLC736     -0.2176
@<TRIPOS>BOND
     1    12     6    1
     2     6     5    1
     3    11     5    1
     4    11     1    1
     5     5     4    1
     6     4    10    1
     7     4     3    1
     8     1     7    1
     9     1     2    1
    10     2     3    1
    11     2     8    1
    12     3     9    1
