@<TRIPOS>MOLECULE
1mxf_NDP_A_1.pdb
 48 52 0 0 0
SMALL
GASTEIGER

@<TRIPOS>ATOM
      1  PA        14.4710   56.5740   32.6890 P.3   1277  NDP1277     0.2189
      2  O1A       13.1080   56.3240   32.3520 O.3   1277  NDP1277    -0.4371
      3  O2A       15.4820   56.9880   31.6530 O.2   1277  NDP1277    -0.5170
      4  O5B       14.3840   57.6750   33.8720 O.3   1277  NDP1277    -0.3112
      5  C5B       15.5120   58.2470   34.5030 C.3   1277  NDP1277     0.1813
      6  C4B       14.8020   59.1880   35.4740 C.3   1277  NDP1277     0.1820
      7  O4B       15.7770   60.1160   35.9970 O.3   1277  NDP1277    -0.3136
      8  C3B       13.6440   60.0070   34.9300 C.3   1277  NDP1277     0.2157
      9  O3B       12.5690   60.1060   35.8870 O.3   1277  NDP1277    -0.2175
     10  C2B       14.2190   61.3490   34.6300 C.3   1277  NDP1277     0.2314
     11  O2B       13.4510   62.5840   34.5530 O.3   1277  NDP1277    -0.2630
     12  C1B       15.4070   61.4020   35.5410 C.3   1277  NDP1277     0.3158
     13  N9A       16.5360   62.1340   34.9330 N.pl3 1277  NDP1277    -0.1439
     14  C8A       17.0980   62.0050   33.6450 C.3   1277  NDP1277     0.3377
     15  N7A       18.0920   62.8550   33.4870 N.2   1277  NDP1277    -0.2095
     16  C5A       18.2010   63.5530   34.6590 C.2   1277  NDP1277     0.2526
     17  C6A       19.0480   64.5860   35.1180 C.2   1277  NDP1277     0.4393
     18  N6A       19.9950   65.0830   34.3190 N.pl3 1277  NDP1277     0.2180
     19  N1A       18.8810   65.0680   36.3750 N.2   1277  NDP1277     0.0021
     20  C2A       17.9120   64.5560   37.1700 C.3   1277  NDP1277     0.5254
     21  N3A       17.0650   63.5840   36.8290 N.2   1277  NDP1277    -0.0055
     22  C4A       17.2630   63.1220   35.5500 C.2   1277  NDP1277     0.3518
     23  O3        15.0970   55.2880   33.3610 O.3   1277  NDP1277    -0.2703
     24  PN        14.6290   53.7680   33.5640 P.3   1277  NDP1277     0.2189
     25  O1N       14.3930   53.2570   32.2200 O.2   1277  NDP1277    -0.5170
     26  O2N       13.5070   53.8230   34.5580 O.3   1277  NDP1277    -0.4371
     27  O5D       15.8960   53.1390   34.2930 O.3   1277  NDP1277    -0.3112
     28  C5D       16.1330   53.2510   35.7260 C.3   1277  NDP1277     0.1813
     29  C4D       17.6380   52.8790   35.9790 C.3   1277  NDP1277     0.1799
     30  O4D       17.8780   51.5630   35.4590 O.3   1277  NDP1277    -0.3327
     31  C3D       18.6210   53.8020   35.2360 C.3   1277  NDP1277     0.2158
     32  O3D       19.7410   54.1280   36.0700 O.3   1277  NDP1277    -0.2175
     33  C2D       18.9860   53.0470   33.9790 C.3   1277  NDP1277     0.2309
     34  O2D       20.2590   53.4470   33.4980 O.3   1277  NDP1277    -0.2158
     35  C1D       18.9440   51.5700   34.4890 C.3   1277  NDP1277     0.2263
     36  N1N       18.6530   50.6170   33.3540 N.pl3 1277  NDP1277    -0.2787
     37  C2N       17.3580   50.6520   32.7850 C.3   1277  NDP1277     0.1244
     38  C3N       17.0960   49.7260   31.6990 C.2   1277  NDP1277     0.0544
     39  C7N       15.7750   49.6960   31.0600 C.2   1277  NDP1277     0.2818
     40  O7N       15.4850   48.9210   30.1330 O.2   1277  NDP1277    -0.2670
     41  N7N       14.8000   50.5290   31.4620 N.am  1277  NDP1277    -0.0839
     42  C4N       18.1230   48.8680   31.2830 C.2   1277  NDP1277     0.0033
     43  C5N       19.3690   48.8540   31.8480 C.2   1277  NDP1277     0.0157
     44  C6N       19.6360   49.7300   32.8870 C.2   1277  NDP1277     0.0633
     45  P2B       12.0760   62.9770   35.1550 P.3   1277  NDP1277     0.5328
     46  O1X       11.9240   64.3380   34.6470 O.3   1277  NDP1277    -0.1145
     47  O2X       12.1410   62.9420   36.6280 O.3   1277  NDP1277    -0.1145
     48  O3X       10.9900   62.0560   34.6130 O.2   1277  NDP1277    -0.2224
@<TRIPOS>BOND
     1    40    39    2
     2    39    41   am
     3    39    38    1
     4    42    38    2
     5    42    43    1
     6     3     1    2
     7    38    37    1
     8    43    44    2
     9    25    24    2
    10     2     1    1
    11     1    23    1
    12     1     4    1
    13    37    36    1
    14    44    36    1
    15    36    35    1
    16    23    24    1
    17    15    14    1
    18    15    16    2
    19    34    33    1
    20    24    27    1
    21    24    26    1
    22    14    13    1
    23     4     5    1
    24    33    35    1
    25    33    31    1
    26    27    28    1
    27    18    17    1
    28    35    30    1
    29     5     6    1
    30    11    10    1
    31    11    45    1
    32    48    45    2
    33    10     8    1
    34    10    12    1
    35    46    45    1
    36    16    17    1
    37    16    22    1
    38     8     6    1
    39     8     9    1
    40    13    12    1
    41    13    22    1
    42    17    19    2
    43    45    47    1
    44    31    29    1
    45    31    32    1
    46    30    29    1
    47     6     7    1
    48    12     7    1
    49    22    21    2
    50    28    29    1
    51    19    20    1
    52    21    20    1
