@<TRIPOS>MOLECULE
1mxf_MTX_A_1.pdb
 33 35 0 0 0
SMALL
GASTEIGER

@<TRIPOS>ATOM
      1  N1        16.9410   54.8040   30.4460 N.2   1278  MTX1278    -0.2684
      2  C2        18.1640   54.9290   31.0390 C.1   1278  MTX1278     0.2519
      3  NA2       18.3490   55.8380   31.9870 N.pl3 1278  MTX1278    -0.0226
      4  N3        19.1310   53.9580   30.8500 N.2   1278  MTX1278    -0.3033
      5  C4        18.9200   52.8540   30.0670 C.2   1278  MTX1278     0.2728
      6  NA4       19.8770   51.9400   29.9080 N.pl3 1278  MTX1278    -0.0887
      7  C4A       17.6640   52.6910   29.4400 C.2   1278  MTX1278     0.2518
      8  N5        17.4170   51.6080   28.6550 N.2   1278  MTX1278    -0.3917
      9  C6        16.2110   51.4370   28.0030 C.2   1278  MTX1278     0.1330
     10  C7        15.1250   52.4570   28.2020 C.3   1278  MTX1278     0.1930
     11  N8        15.4260   53.6440   29.0750 N.2   1278  MTX1278    -0.1998
     12  C8A       16.6600   53.7440   29.6570 C.1   1278  MTX1278     0.1314
     13  C9        15.9430   50.2020   27.1450 C.3   1278  MTX1278     0.1481
     14  N10       17.1120   49.6450   26.4250 N.pl3 1278  MTX1278    -0.2999
     15  CM        17.4590   48.2910   26.8120 C.3   1278  MTX1278     0.1125
     16  C11       18.1350   51.3020   22.6170 C.ar  1278  MTX1278     0.0551
     17  C12       16.9150   51.6730   23.2260 C.ar  1278  MTX1278     0.0058
     18  C13       16.5580   51.1230   24.4740 C.ar  1278  MTX1278     0.0147
     19  C14       17.4150   50.1830   25.1220 C.ar  1278  MTX1278     0.0482
     20  C15       18.6100   49.7970   24.4800 C.ar  1278  MTX1278     0.0147
     21  C16       18.9460   50.3300   23.2230 C.ar  1278  MTX1278     0.0058
     22  C         18.5510   51.8950   21.3180 C.2   1278  MTX1278     0.2652
     23  O         19.1650   51.2530   20.4520 O.2   1278  MTX1278    -0.2684
     24  N         17.9640   53.0730   20.9910 N.am  1278  MTX1278    -0.1918
     25  CA        17.8600   53.7960   19.7130 C.3   1278  MTX1278     0.1986
     26  CT        18.0010   55.3140   19.8830 C.2   1278  MTX1278     0.3842
     27  O1        17.6090   55.8480   20.9460 O.co2 1278  MTX1278    -0.2437
     28  O2        18.5100   55.9620   18.9360 O.co2 1278  MTX1278    -0.2437
     29  CB        16.5200   53.4660   19.0440 C.3   1278  MTX1278     0.0451
     30  CG        16.4510   52.0840   18.3650 C.3   1278  MTX1278     0.1164
     31  CD        15.3380   51.9370   17.3370 C.2   1278  MTX1278     0.3649
     32  OE1       14.1500   51.9020   17.7280 O.co2 1278  MTX1278    -0.2457
     33  OE2       15.6460   51.8530   16.1270 O.co2 1278  MTX1278    -0.2457
@<TRIPOS>BOND
     1    33    31   ar
     2    31    32   ar
     3    31    30    1
     4    30    29    1
     5    28    26   ar
     6    29    25    1
     7    25    26    1
     8    25    24    1
     9    26    27   ar
    10    23    22    2
    11    24    22   am
    12    22    16    1
    13    16    21   ar
    14    16    17   ar
    15    21    20   ar
    16    17    18   ar
    17    18    19   ar
    18    20    19   ar
    19    19    14    1
    20    14    15    1
    21    14    13    1
    22    13     9    1
    23     9    10    1
    24     9     8    2
    25    10    11    1
    26     8     7    2
    27    11    12    2
    28     7    12    1
    29     7     5    1
    30    12     1    2
    31     6     5    1
    32     5     4    2
    33     1     2    2
    34     4     2    2
    35     2     3    1
