@<TRIPOS>MOLECULE
1mxg_ACR_A_1.pdb
 44 47 0 0 0
SMALL
GASTEIGER

@<TRIPOS>ATOM
      1  C1A       20.0950   14.7590    8.9120 C.3   442  ACR442      0.1273
      2  C2A       19.8490   15.9860    9.8700 C.3   442  ACR442      0.2049
      3  C3A       20.3030   17.3640    9.3170 C.3   442  ACR442      0.2179
      4  C4A       21.8450   17.3600    8.9390 C.3   442  ACR442      0.2053
      5  C5A       22.4130   15.9630    8.5160 C.2   442  ACR442      0.0180
      6  C6A       23.8910   15.8810    8.1100 C.3   442  ACR442      0.2066
      7  C7A       21.5960   14.8090    8.5110 C.2   442  ACR442     -0.0100
      8  O2A       18.4620   15.9210   10.1970 O.3   442  ACR442     -0.2184
      9  O3A       19.9990   18.2910   10.3390 O.3   442  ACR442     -0.2172
     10  O4A       21.8900   18.3710    7.9370 O.3   442  ACR442     -0.2157
     11  O6A       24.5690   14.7980    7.4410 O.3   442  ACR442     -0.2155
     12  C1B       16.6180   12.2450    5.6710 C.3   442  ACR442      0.2694
     13  C2B       15.9590   13.2120    6.6540 C.3   442  ACR442      0.2394
     14  C3B       16.9540   14.3290    7.0000 C.3   442  ACR442      0.2054
     15  C4B       18.2820   13.7400    7.5230 C.3   442  ACR442      0.1333
     16  C5B       18.8160   12.6420    6.5650 C.3   442  ACR442      0.1364
     17  C6B       20.0270   11.9270    7.1760 C.3   442  ACR442      0.0337
     18  N4B       19.2520   14.8340    7.6890 N.3   442  ACR442     -0.2087
     19  O2B       14.8050   13.7770    6.0330 O.3   442  ACR442     -0.2149
     20  O3B       16.3790   15.1800    7.9960 O.3   442  ACR442     -0.2186
     21  O5B       17.7840   11.6470    6.2970 O.3   442  ACR442     -0.3295
     22  C1C       16.6800   12.3400    0.3870 C.3   442  ACR442      0.2695
     23  C2C       15.3930   12.7750    1.1180 C.3   442  ACR442      0.2404
     24  C3C       15.7490   13.3470    2.5010 C.3   442  ACR442      0.2167
     25  C4C       16.6010   12.3530    3.3040 C.3   442  ACR442      0.1804
     26  C5C       17.8280   11.9580    2.4670 C.3   442  ACR442      0.1803
     27  C6C       18.7050   10.9580    3.2290 C.3   442  ACR442      0.2141
     28  O2C       14.7340   13.7860    0.3410 O.3   442  ACR442     -0.2149
     29  O3C       14.5510   13.6280    3.2300 O.3   442  ACR442     -0.2175
     30  O4C       17.0240   12.9880    4.5080 O.3   442  ACR442     -0.3257
     31  O5C       17.3900   11.3680    1.2060 O.3   442  ACR442     -0.3257
     32  O6C       17.9470    9.7770    3.5210 O.3   442  ACR442     -0.2176
     33  C1D       20.8990   14.1230   -2.3470 C.3   442  ACR442      0.3023
     34  C2D       19.5020   14.4660   -2.9120 C.3   442  ACR442      0.2433
     35  C3D       18.4980   14.5800   -1.7700 C.3   442  ACR442      0.2168
     36  C4D       18.4450   13.2890   -0.9480 C.3   442  ACR442      0.1804
     37  C5D       19.8720   12.8710   -0.4860 C.3   442  ACR442      0.1804
     38  C6D       19.8240   11.4560    0.1140 C.3   442  ACR442      0.2141
     39  O1D       21.3540   15.1720   -1.4930 O.3   442  ACR442     -0.1869
     40  O2D       19.5370   15.7190   -3.6130 O.3   442  ACR442     -0.2148
     41  O3D       17.2020   14.8660   -2.3030 O.3   442  ACR442     -0.2175
     42  O4D       17.5280   13.4950    0.1500 O.3   442  ACR442     -0.3257
     43  O5D       20.8390   12.8700   -1.5970 O.3   442  ACR442     -0.3237
     44  O6D       21.1470   10.9970    0.4130 O.3   442  ACR442     -0.2176
@<TRIPOS>BOND
     1    40    34    1
     2    34    33    1
     3    34    35    1
     4    33    43    1
     5    33    39    1
     6    41    35    1
     7    35    36    1
     8    43    37    1
     9    36    37    1
    10    36    42    1
    11    37    38    1
    12    38    44    1
    13    42    22    1
    14    28    23    1
    15    22    23    1
    16    22    31    1
    17    23    24    1
    18    31    26    1
    19    26    27    1
    20    26    25    1
    21    24    29    1
    22    24    25    1
    23    27    32    1
    24    25    30    1
    25    30    12    1
    26    12    21    1
    27    12    13    1
    28    19    13    1
    29    21    16    1
    30    16    17    1
    31    16    15    1
    32    13    14    1
    33    14    15    1
    34    14    20    1
    35    11     6    1
    36    15    18    1
    37    18     1    1
    38    10     4    1
    39     6     5    1
    40     7     5    2
    41     7     1    1
    42     5     4    1
    43     1     2    1
    44     4     3    1
    45     3     2    1
    46     3     9    1
    47     2     8    1
