@<TRIPOS>MOLECULE
1mxh_DHF_A_1.pdb
 29 31 0 0 0
SMALL
GASTEIGER

@<TRIPOS>ATOM
      1  N1        36.4080   34.7380   -3.5640 N.2   1278  DHF1278    -0.2672
      2  C2        37.7350   34.8450   -3.2810 C.1   1278  DHF1278     0.2609
      3  NA2       38.3340   34.1350   -2.5530 N.pl3 1278  DHF1278    -0.0220
      4  N3        38.5010   35.9240   -3.9230 N.2   1278  DHF1278    -0.2466
      5  C4        37.9270   36.8510   -4.8090 C.1   1278  DHF1278     0.2569
      6  O4        38.6320   37.7400   -5.3170 O.2   1278  DHF1278    -0.2052
      7  C4A       36.4650   36.7240   -5.1080 C.2   1278  DHF1278     0.2988
      8  N5        35.7950   37.6750   -6.0350 N.2   1278  DHF1278    -0.3839
      9  C6        34.4260   37.4750   -6.2590 C.2   1278  DHF1278     0.1356
     10  C7        33.8810   36.3700   -5.5490 C.3   1278  DHF1278     0.1931
     11  N8        34.5170   35.4800   -4.6740 N.2   1278  DHF1278    -0.1992
     12  C8A       35.7780   35.6940   -4.4900 C.1   1278  DHF1278     0.1401
     13  C9        33.7070   38.3850   -7.1670 C.3   1278  DHF1278     0.1683
     14  N10       34.7120   39.0940   -8.0700 N.pl3 1278  DHF1278    -0.2303
     15  C11       36.6960   37.7900  -11.9030 C.ar  1278  DHF1278     0.0551
     16  C12       36.9640   39.0880  -11.2470 C.ar  1278  DHF1278     0.0059
     17  C13       36.2400   39.4770   -9.9350 C.ar  1278  DHF1278     0.0162
     18  C14       35.2260   38.5860   -9.2320 C.ar  1278  DHF1278     0.0658
     19  C15       34.9170   37.3650   -9.7880 C.ar  1278  DHF1278     0.0162
     20  C16       35.6280   36.8900  -11.1550 C.ar  1278  DHF1278     0.0059
     21  C         37.2890   37.2190  -13.1440 C.2   1278  DHF1278     0.2652
     22  O         37.1400   37.4100  -14.3920 O.2   1278  DHF1278    -0.2684
     23  N         38.0960   36.3830  -12.8460 N.am  1278  DHF1278    -0.1918
     24  CA        38.9450   35.5400  -13.7330 C.3   1278  DHF1278     0.1981
     25  CB        40.3400   35.4480  -13.1120 C.3   1278  DHF1278     0.0333
     26  CG        40.3770   35.2050  -11.5250 C.3   1278  DHF1278     0.0024
     27  CT        38.2800   34.1000  -13.9380 C.2   1278  DHF1278     0.3842
     28  O1        38.5230   33.0940  -13.1650 O.co2 1278  DHF1278    -0.2437
     29  O2        37.5060   34.0410  -14.9090 O.co2 1278  DHF1278    -0.2437
@<TRIPOS>BOND
     1    29    27   ar
     2    22    21    2
     3    27    24    1
     4    27    28   ar
     5    24    25    1
     6    24    23    1
     7    21    23   am
     8    21    15    1
     9    25    26    1
    10    15    16   ar
    11    15    20   ar
    12    16    17   ar
    13    20    19   ar
    14    17    18   ar
    15    19    18   ar
    16    18    14    1
    17    14    13    1
    18    13     9    1
    19     9     8    2
    20     9    10    1
    21     8     7    2
    22    10    11    1
    23     6     5    2
    24     7     5    1
    25     7    12    1
    26     5     4    2
    27    11    12    2
    28    12     1    2
    29     4     2    2
    30     1     2    2
    31     2     3    1
