@<TRIPOS>MOLECULE
1mxh_NAP_A_1.pdb
 48 52 0 0 0
SMALL
GASTEIGER

@<TRIPOS>ATOM
      1  PA        41.3480   36.5300   -1.5640 P.3   1277  NAP1277     0.2189
      2  O1A       41.0820   35.5560   -2.5410 O.2   1277  NAP1277    -0.5170
      3  O2A       42.0840   37.8280   -1.7710 O.3   1277  NAP1277    -0.4371
      4  O5B       42.1060   35.9010   -0.3210 O.3   1277  NAP1277    -0.3112
      5  C5B       41.8500   34.5610    0.1120 C.3   1277  NAP1277     0.1813
      6  C4B       43.0390   34.4060    1.1030 C.3   1277  NAP1277     0.1820
      7  O4B       42.9410   33.0570    1.6950 O.3   1277  NAP1277    -0.3136
      8  C3B       44.4550   34.4540    0.4500 C.3   1277  NAP1277     0.2157
      9  O3B       45.0850   35.6300    0.9550 O.3   1277  NAP1277    -0.2175
     10  C2B       45.1730   33.1780    0.8560 C.3   1277  NAP1277     0.2314
     11  O2B       46.2680   33.3660    1.7280 O.3   1277  NAP1277    -0.2630
     12  C1B       44.1140   32.2890    1.5710 C.3   1277  NAP1277     0.3158
     13  N9A       43.9280   31.0500    0.8480 N.pl3 1277  NAP1277    -0.1439
     14  C8A       43.5190   30.7840   -0.4420 C.3   1277  NAP1277     0.3377
     15  N7A       43.4760   29.4970   -0.7300 N.2   1277  NAP1277    -0.2095
     16  C5A       43.8870   28.8920    0.4580 C.2   1277  NAP1277     0.2526
     17  C6A       44.0460   27.5330    0.7730 C.2   1277  NAP1277     0.4393
     18  N6A       43.8290   26.4760   -0.0420 N.pl3 1277  NAP1277     0.2180
     19  N1A       44.4800   27.2240    2.0740 N.2   1277  NAP1277     0.0021
     20  C2A       44.7400   28.2300    3.0080 C.3   1277  NAP1277     0.5254
     21  N3A       44.5920   29.5780    2.7220 N.2   1277  NAP1277    -0.0055
     22  C4A       44.1600   29.8570    1.4300 C.2   1277  NAP1277     0.3518
     23  O3        39.9870   36.9540   -0.8810 O.3   1277  NAP1277    -0.2703
     24  PN        39.2760   38.3380   -0.8030 P.3   1277  NAP1277     0.2189
     25  O1N       39.0660   38.8720   -2.1540 O.2   1277  NAP1277    -0.5170
     26  O2N       40.1040   39.1680    0.1070 O.3   1277  NAP1277    -0.4371
     27  O5D       37.8320   37.9790   -0.2070 O.3   1277  NAP1277    -0.3112
     28  C5D       37.6650   37.6610    1.2100 C.3   1277  NAP1277     0.1813
     29  C4D       36.4370   36.7820    1.3510 C.3   1277  NAP1277     0.1799
     30  O4D       35.2850   37.4240    0.7490 O.3   1277  NAP1277    -0.3327
     31  C3D       36.5330   35.3900    0.6650 C.3   1277  NAP1277     0.2158
     32  O3D       36.0650   34.3530    1.5380 O.3   1277  NAP1277    -0.2175
     33  C2D       35.6840   35.5340   -0.5940 C.3   1277  NAP1277     0.2309
     34  O2D       35.0800   34.3270   -1.0250 O.3   1277  NAP1277    -0.2158
     35  C1D       34.6650   36.5290   -0.2360 C.3   1277  NAP1277     0.2263
     36  N1N       34.2370   37.4420   -1.3180 N.pl3 1277  NAP1277    -0.2787
     37  C2N       35.1140   38.3470   -1.9900 C.3   1277  NAP1277     0.1244
     38  C3N       34.5810   39.1560   -2.9920 C.2   1277  NAP1277     0.0544
     39  C7N       35.5160   40.1300   -3.7260 C.2   1277  NAP1277     0.2818
     40  O7N       35.0130   40.8110   -4.5860 O.2   1277  NAP1277    -0.2670
     41  N7N       36.7890   40.2110   -3.4280 N.am  1277  NAP1277    -0.0839
     42  C4N       33.1580   39.0910   -3.3550 C.2   1277  NAP1277     0.0033
     43  C5N       32.3230   38.1670   -2.6520 C.2   1277  NAP1277     0.0157
     44  C6N       32.8470   37.3280   -1.6250 C.2   1277  NAP1277     0.0633
     45  P2B       47.7940   33.6080    1.2160 P.3   1277  NAP1277     0.5328
     46  O1X       47.7950   34.9740    0.5000 O.3   1277  NAP1277    -0.1145
     47  O2X       48.5280   33.6000    2.5250 O.3   1277  NAP1277    -0.1145
     48  O3X       48.1090   32.4710    0.2630 O.2   1277  NAP1277    -0.2224
@<TRIPOS>BOND
     1    40    39    2
     2    39    41   am
     3    39    38    1
     4    42    38    2
     5    42    43    1
     6    38    37    1
     7    43    44    2
     8     2     1    2
     9    25    24    2
    10    37    36    1
    11     3     1    1
    12    44    36    1
    13     1    23    1
    14     1     4    1
    15    36    35    1
    16    34    33    1
    17    23    24    1
    18    24    27    1
    19    24    26    1
    20    15    14    1
    21    15    16    2
    22    33    35    1
    23    33    31    1
    24    14    13    1
    25     4     5    1
    26    35    30    1
    27    27    28    1
    28    18    17    1
    29     5     6    1
    30    48    45    2
    31     8    10    1
    32     8     9    1
    33     8     6    1
    34    16    17    1
    35    16    22    1
    36    46    45    1
    37    31    29    1
    38    31    32    1
    39    30    29    1
    40    17    19    2
    41    13    22    1
    42    13    12    1
    43    10    12    1
    44    10    11    1
    45     6     7    1
    46    28    29    1
    47    45    11    1
    48    45    47    1
    49    22    21    2
    50    12     7    1
    51    19    20    1
    52    21    20    1
