@<TRIPOS>MOLECULE
1mxi_SAH_A_1.pdb
 26 28 0 0 0
SMALL
GASTEIGER

@<TRIPOS>ATOM
      1  N          5.8130  -16.6740   -2.8030 N.3   302  SAH302     -0.1208
      2  CA         5.3250  -15.6990   -3.7890 C.3   302  SAH302      0.1952
      3  CB         5.4410  -14.2510   -3.2560 C.3   302  SAH302      0.0422
      4  CG         4.7450  -14.0380   -1.8880 C.3   302  SAH302      0.0597
      5  SD         3.1160  -13.2520   -1.7740 S.3   302  SAH302     -0.1375
      6  C          6.0850  -15.8370   -5.1340 C.2   302  SAH302      0.3819
      7  O          6.9880  -16.7180   -5.1940 O.co2 302  SAH302     -0.2441
      8  OXT        5.7910  -15.0730   -6.0980 O.co2 302  SAH302     -0.2441
      9  C5'        3.0000  -13.3180    0.0470 C.3   302  SAH302      0.0899
     10  C4'        2.0770  -14.3840    0.5520 C.3   302  SAH302      0.1630
     11  O4'        0.7850  -14.0500    0.0520 O.3   302  SAH302     -0.3153
     12  C3'        2.3650  -15.8230    0.0260 C.3   302  SAH302      0.2168
     13  O3'        3.5450  -16.3710    0.7430 O.3   302  SAH302     -0.2175
     14  C2'        1.0410  -16.4380    0.4730 C.3   302  SAH302      0.2569
     15  O2'        0.9420  -16.7550    1.8740 O.3   302  SAH302     -0.2130
     16  C1'        0.0870  -15.3340   -0.0280 C.3   302  SAH302      0.3185
     17  N9        -0.4160  -15.4560   -1.3920 N.pl3 302  SAH302     -0.1439
     18  C8        -0.2680  -14.5640   -2.4910 C.3   302  SAH302      0.3377
     19  N7        -0.9240  -15.0430   -3.5480 N.2   302  SAH302     -0.2095
     20  C5        -1.5130  -16.2560   -3.1490 C.2   302  SAH302      0.2526
     21  C6        -2.3530  -17.2610   -3.7790 C.2   302  SAH302      0.4393
     22  N6        -2.7830  -17.1670   -5.0570 N.pl3 302  SAH302      0.2180
     23  N1        -2.7470  -18.3680   -3.0640 N.2   302  SAH302      0.0021
     24  C2        -2.3430  -18.4780   -1.8140 C.3   302  SAH302      0.5254
     25  N3        -1.6050  -17.6510   -1.1150 N.2   302  SAH302     -0.0055
     26  C4        -1.1980  -16.5350   -1.8280 C.2   302  SAH302      0.3518
@<TRIPOS>BOND
     1     8     6   ar
     2     7     6   ar
     3     6     2    1
     4    22    21    1
     5     2     3    1
     6     2     1    1
     7    21    20    1
     8    21    23    2
     9    19    20    2
    10    19    18    1
    11     3     4    1
    12    20    26    1
    13    23    24    1
    14    18    17    1
    15     4     5    1
    16    26    17    1
    17    26    25    2
    18    24    25    1
    19     5     9    1
    20    17    16    1
    21    16    11    1
    22    16    14    1
    23    12    14    1
    24    12    10    1
    25    12    13    1
    26     9    10    1
    27    11    10    1
    28    14    15    1
