@<TRIPOS>MOLECULE
1mxo_SM2_A_1.pdb
 22 23 0 0 0
SMALL
GASTEIGER

@<TRIPOS>ATOM
      1  CAF       22.0080    4.7220   10.7950 C.ar  964  SM2964      0.0000
      2  CAC       20.7600    5.4040   10.9430 C.ar  964  SM2964      0.0000
      3  CAB       20.5650    5.9240   12.1790 C.ar  964  SM2964      0.0000
      4  SAD       21.8790    5.6140   13.2200 S.2   964  SM2964      0.0000
      5  CAE       22.7380    4.7620   11.9850 C.ar  964  SM2964      0.0000
      6  CAG       24.1110    4.1630   12.2860 C.3   964  SM2964      0.0000
      7  CAH       24.9890    5.2250   12.9510 C.2   964  SM2964      0.0000
      8  OAI       25.3250    6.2360   12.3190 O.2   964  SM2964      0.0000
      9  NAJ       25.3560    5.0080   14.2470 N.am  964  SM2964      0.0000
     10  CAK       26.1670    5.9170   15.0590 C.3   964  SM2964      0.0000
     11  B         26.7870    5.1490   16.3560 B     964  SM2964      0.0000
     12  OAT       25.7820    4.1740   16.9060 O.3   964  SM2964      0.0000
     13  OAO       27.1450    6.1380   17.4150 O.3   964  SM2964      0.0000
     14  CAL       25.2810    7.1340   15.4190 C.ar  964  SM2964      0.0000
     15  CAQ       24.2220    7.0080   16.3390 C.ar  964  SM2964      0.0000
     16  CAM       25.4900    8.3820   14.7510 C.ar  964  SM2964      0.0000
     17  CAN       24.6020    9.4610   15.0120 C.ar  964  SM2964      0.0000
     18  CAS       23.5310    9.3130   15.9330 C.ar  964  SM2964      0.0000
     19  CAR       23.3420    8.0750   16.6030 C.ar  964  SM2964      0.0000
     20  CAU       22.2260    7.8620   17.5950 C.2   964  SM2964      0.0000
     21  OAW       21.1330    7.3920   17.1530 O.co2 964  SM2964      0.0000
     22  OAV       22.4800    8.1360   18.7930 O.co2 964  SM2964      0.0000
@<TRIPOS>BOND
     1     1     2   ar
     2     1     5   ar
     3     2     3   ar
     4     5     6    1
     5     5     4   ar
     6     3     4   ar
     7     6     7    1
     8     8     7    2
     9     7     9   am
    10     9    10    1
    11    16    17   ar
    12    16    14   ar
    13    17    18   ar
    14    10    14    1
    15    10    11    1
    16    14    15   ar
    17    18    19   ar
    18    15    19   ar
    19    11    12    1
    20    11    13    1
    21    19    20    1
    22    21    20   ar
    23    20    22   ar
