@<TRIPOS>MOLECULE
1mxu_BWD_A_1.pdb
 15 15 0 0 0
SMALL
GASTEIGER

@<TRIPOS>ATOM
      1  N1        78.0040   26.6240   42.2490 N.am  300  BWD300     -0.2008
      2  C2        78.1420   25.3240   41.6740 C.1   300  BWD300      0.2827
      3  O2        78.2260   24.2960   42.3090 O.2   300  BWD300     -0.1919
      4  N3        78.1740   25.3310   40.2610 N.2   300  BWD300     -0.2448
      5  C4        78.0770   26.4150   39.4140 C.1   300  BWD300      0.2238
      6  O4        78.1310   26.3090   38.2070 O.2   300  BWD300     -0.2080
      7  C5        77.9220   27.7380   40.1450 C.2   300  BWD300      0.1451
      8 BR5        77.7130   29.3370   39.1690 Br    300  BWD300     -0.0340
      9  C6        77.8770   27.7360   41.4940 C.2   300  BWD300      0.0965
     10  C7        77.8990   26.7760   43.7040 C.3   300  BWD300      0.1396
     11  C8        76.5990   26.2400   44.2790 C.3   300  BWD300      0.2151
     12  N8        75.4960   27.2190   43.9740 N.3   300  BWD300     -0.1189
     13  C9        76.6350   25.9120   45.7760 C.2   300  BWD300      0.3836
     14  O91       75.7940   26.4080   46.4900 O.co2 300  BWD300     -0.2440
     15  O92       77.6170   25.1630   46.1440 O.co2 300  BWD300     -0.2440
@<TRIPOS>BOND
     1     6     5    2
     2     8     7    1
     3     5     7    1
     4     5     4    2
     5     7     9    2
     6     4     2    2
     7     9     1    1
     8     2     1   am
     9     2     3    2
    10     1    10    1
    11    10    11    1
    12    12    11    1
    13    11    13    1
    14    13    15   ar
    15    13    14   ar
