@<TRIPOS>MOLECULE
1my2_AMQ_A_1.pdb
 13 13 0 0 0
SMALL
GASTEIGER

@<TRIPOS>ATOM
      1  N         75.4580   27.4620   43.0070 N.3   602  AMQ602     -0.1204
      2  CA        76.5740   26.4550   43.0960 C.3   602  AMQ602      0.1995
      3  C         76.8800   26.1010   44.5940 C.2   602  AMQ602      0.3822
      4  OT1       77.8460   25.3070   44.8180 O.co2 602  AMQ602     -0.2440
      5  OT2       76.1400   26.6330   45.4730 O.co2 602  AMQ602     -0.2440
      6  CB        77.8390   27.0030   42.3900 C.3   602  AMQ602      0.0718
      7  CG        77.6700   27.2560   40.9080 C.2   602  AMQ602      0.0985
      8  CD1       77.8540   26.3420   39.8270 C.1   602  AMQ602      0.1879
      9  CD2       77.2720   28.3660   40.2350 C.2   602  AMQ602      0.1611
     10  CE2       76.8530   29.7390   40.6500 C.3   602  AMQ602      0.0758
     11  OE1       78.2340   25.1030   40.1380 O.2   602  AMQ602     -0.2193
     12  NE1       77.6180   26.7590   38.6080 N.2   602  AMQ602     -0.0008
     13  OE2       77.2260   28.1250   38.8730 O.2   602  AMQ602     -0.3482
@<TRIPOS>BOND
     1    12    13    1
     2    12     8    2
     3    13     9    1
     4     8    11    2
     5     8     7    1
     6     9    10    1
     7     9     7    2
     8     7     6    1
     9     6     2    1
    10     1     2    1
    11     2     3    1
    12     3     4   ar
    13     3     5   ar
