@<TRIPOS>MOLECULE
1my3_BWD_A_1.pdb
 15 15 0 0 0
SMALL
GASTEIGER

@<TRIPOS>ATOM
      1  N1        77.8470   26.6500   42.1250 N.am  800  BWD800     -0.2008
      2  C2        77.9740   25.3570   41.5650 C.1   800  BWD800      0.2827
      3  O2        78.0710   24.3480   42.2090 O.2   800  BWD800     -0.1919
      4  N3        78.0000   25.3390   40.1590 N.2   800  BWD800     -0.2448
      5  C4        77.8840   26.4050   39.3130 C.1   800  BWD800      0.2238
      6  O4        77.9230   26.2990   38.1100 O.2   800  BWD800     -0.2080
      7  C5        77.7360   27.7220   40.0320 C.2   800  BWD800      0.1451
      8 BR5        77.5100   29.3100   39.0370 Br    800  BWD800     -0.0340
      9  C6        77.7090   27.7390   41.3740 C.2   800  BWD800      0.0965
     10  C7        77.7560   26.8160   43.5640 C.3   800  BWD800      0.1396
     11  C8        76.4560   26.2790   44.1030 C.3   800  BWD800      0.2151
     12  N8        75.3760   27.2970   43.8490 N.3   800  BWD800     -0.1189
     13  C9        76.4670   25.9140   45.5810 C.2   800  BWD800      0.3836
     14  O91       75.6340   26.4200   46.2980 O.co2 800  BWD800     -0.2440
     15  O92       77.4260   25.1350   45.9250 O.co2 800  BWD800     -0.2440
@<TRIPOS>BOND
     1     6     5    2
     2     8     7    1
     3     5     7    1
     4     5     4    2
     5     7     9    2
     6     4     2    2
     7     9     1    1
     8     2     1   am
     9     2     3    2
    10     1    10    1
    11    10    11    1
    12    12    11    1
    13    11    13    1
    14    13    15   ar
    15    13    14   ar
