@<TRIPOS>MOLECULE
1my4_IWD_A_1.pdb
 15 15 0 0 0
SMALL
GASTEIGER

@<TRIPOS>ATOM
      1  N1        77.7800   26.8970   42.4860 N.am  601  IWD601     -0.2009
      2  C2        77.8930   25.6330   41.9020 C.1   601  IWD601      0.2827
      3  O2        77.9750   24.6180   42.5330 O.2   601  IWD601     -0.1919
      4  N3        77.8640   25.6520   40.4920 N.2   601  IWD601     -0.2448
      5  C4        77.7610   26.7580   39.6760 C.1   601  IWD601      0.2229
      6  O4        77.7620   26.6720   38.4710 O.2   601  IWD601     -0.2081
      7  C5        77.6260   28.0790   40.4410 C.2   601  IWD601      0.1404
      8  I5        77.3390   29.9640   39.4640 I     601  IWD601     -0.0273
      9  C6        77.6270   28.0220   41.7730 C.2   601  IWD601      0.0956
     10  C7        77.7150   27.0080   43.9230 C.3   601  IWD601      0.1396
     11  C8        76.4170   26.4680   44.4430 C.3   601  IWD601      0.2151
     12  N8        75.3110   27.4610   44.1640 N.3   601  IWD601     -0.1189
     13  C9        76.4300   26.1310   45.9150 C.2   601  IWD601      0.3836
     14  O91       75.5960   26.6480   46.6090 O.co2 601  IWD601     -0.2440
     15  O92       77.3860   25.3470   46.2810 O.co2 601  IWD601     -0.2440
@<TRIPOS>BOND
     1     6     5    2
     2     8     7    1
     3     5     7    1
     4     5     4    2
     5     7     9    2
     6     4     2    2
     7     9     1    1
     8     2     1   am
     9     2     3    2
    10     1    10    1
    11    10    11    1
    12    12    11    1
    13    11    13    1
    14    13    15   ar
    15    13    14   ar
