@<TRIPOS>MOLECULE
1my8_SM3_A_1.pdb
 19 20 0 0 0
SMALL
GASTEIGER

@<TRIPOS>ATOM
      1  CAF       21.3760    5.6630   12.9020 C.ar  964  SM3964      0.0000
      2  CAC       20.2550    5.9910   12.0770 C.ar  964  SM3964      0.0000
      3  CAB       20.3930    5.5700   10.7980 C.ar  964  SM3964      0.0000
      4  SAD       21.8700    4.7660   10.5360 S.2   964  SM3964      0.0000
      5  CAE       22.3520    4.9810   12.1710 C.ar  964  SM3964      0.0000
      6  CAG       23.6970    4.4390   12.6240 C.3   964  SM3964      0.0000
      7  CAH       24.5080    5.5520   13.3120 C.2   964  SM3964      0.0000
      8  OAI       24.7450    6.6240   12.7270 O.2   964  SM3964      0.0000
      9  NAJ       24.9370    5.2900   14.5650 N.am  964  SM3964      0.0000
     10  CAK       25.7220    6.1670   15.4200 C.3   964  SM3964      0.0000
     11  B         26.2890    5.3370   16.6210 B     964  SM3964      0.0000
     12  OAT       25.2530    4.4120   17.1330 O.3   964  SM3964      0.0000
     13  OAO       26.7340    6.2010   17.6910 O.3   964  SM3964      0.0000
     14  CAL       24.9030    7.4540   15.8330 C.ar  964  SM3964      0.0000
     15  CAQ       25.2100    8.7350   15.2830 C.ar  964  SM3964      0.0000
     16  CAM       23.8260    7.3360   16.7810 C.ar  964  SM3964      0.0000
     17  CAN       23.0920    8.4970   17.1610 C.ar  964  SM3964      0.0000
     18  CAS       23.4120    9.7620   16.6080 C.ar  964  SM3964      0.0000
     19  CAR       24.4690    9.8820   15.6670 C.ar  964  SM3964      0.0000
@<TRIPOS>BOND
     1     4     3   ar
     2     4     5   ar
     3     3     2   ar
     4     2     1   ar
     5     5     6    1
     6     5     1   ar
     7     6     7    1
     8     8     7    2
     9     7     9   am
    10     9    10    1
    11    15    19   ar
    12    15    14   ar
    13    10    14    1
    14    10    11    1
    15    19    18   ar
    16    14    16   ar
    17    18    17   ar
    18    11    12    1
    19    11    13    1
    20    16    17   ar
