@<TRIPOS>MOLECULE
1myg_HEM_A_1.pdb
 43 50 0 0 0
SMALL
GASTEIGER

@<TRIPOS>ATOM
      1 FE         43.7990  -16.5700   50.6480 Fe    154  HEM154      0.0000
      2  CHA       42.3920  -19.2230   52.3010 C.2   154  HEM154      0.0000
      3  CHB       45.3400  -18.7960   48.4270 C.2   154  HEM154      0.0000
      4  CHC       45.3290  -13.9720   49.0080 C.2   154  HEM154      0.0000
      5  CHD       42.5780  -14.4280   52.9820 C.2   154  HEM154      0.0000
      6  NA        43.8880  -18.4920   50.4670 N.ar  154  HEM154      0.0000
      7  C1A       43.2200  -19.4580   51.2220 C.ar  154  HEM154      0.0000
      8  C2A       43.4550  -20.8100   50.6690 C.ar  154  HEM154      0.0000
      9  C3A       44.2950  -20.6640   49.6200 C.ar  154  HEM154      0.0000
     10  C4A       44.5570  -19.2530   49.4630 C.ar  154  HEM154      0.0000
     11  CMA       44.8520  -21.7630   48.7230 C.3   154  HEM154      0.0000
     12  CAA       42.8040  -22.1010   51.2770 C.3   154  HEM154      0.0000
     13  CBA       41.6530  -22.6980   50.4130 C.3   154  HEM154      0.0000
     14  CGA       40.6770  -21.5740   50.1670 C.2   154  HEM154      0.0000
     15  O1A       40.0380  -21.0390   51.1500 O.co2 154  HEM154      0.0000
     16  O2A       40.5590  -21.0310   49.0230 O.co2 154  HEM154      0.0000
     17  NB        45.0950  -16.3860   48.9910 N.2   154  HEM154      0.0000
     18  C1B       45.5380  -17.4600   48.2390 C.2   154  HEM154      0.0000
     19  C2B       46.3460  -16.9070   47.1720 C.2   154  HEM154      0.0000
     20  C3B       46.3890  -15.5820   47.2900 C.2   154  HEM154      0.0000
     21  C4B       45.5660  -15.2480   48.4620 C.2   154  HEM154      0.0000
     22  CMB       46.9250  -17.8710   46.1130 C.3   154  HEM154      0.0000
     23  CAB       47.0930  -14.4920   46.4320 C.2   154  HEM154      0.0000
     24  CBB       48.3890  -14.5110   46.0010 C.2   154  HEM154      0.0000
     25  NC        43.8510  -14.5950   50.8790 N.ar  154  HEM154      0.0000
     26  C1C       44.5270  -13.6160   50.1010 C.ar  154  HEM154      0.0000
     27  C2C       44.4910  -12.3360   50.7570 C.ar  154  HEM154      0.0000
     28  C3C       43.7830  -12.4890   51.9030 C.ar  154  HEM154      0.0000
     29  C4C       43.4010  -13.8710   51.9910 C.ar  154  HEM154      0.0000
     30  CMC       45.1780  -11.1030   50.1940 C.3   154  HEM154      0.0000
     31  CAC       43.4520  -11.5590   53.0610 C.2   154  HEM154      0.0000
     32  CBC       43.7360  -10.3100   53.2370 C.2   154  HEM154      0.0000
     33  ND        42.6120  -16.7570   52.2520 N.2   154  HEM154      0.0000
     34  C1D       42.2500  -15.7250   53.1060 C.2   154  HEM154      0.0000
     35  C2D       41.5730  -16.3210   54.2770 C.2   154  HEM154      0.0000
     36  C3D       41.5460  -17.6490   54.0810 C.2   154  HEM154      0.0000
     37  C4D       42.2580  -17.9730   52.8200 C.2   154  HEM154      0.0000
     38  CMD       41.0010  -15.4830   55.4510 C.3   154  HEM154      0.0000
     39  CAD       41.0110  -18.7670   55.0160 C.3   154  HEM154      0.0000
     40  CBD       42.2360  -18.8400   56.0480 C.3   154  HEM154      0.0000
     41  CGD       41.8360  -19.8600   57.1140 C.2   154  HEM154      0.0000
     42  O1D       41.2310  -19.2870   58.0770 O.co2 154  HEM154      0.0000
     43  O2D       42.1070  -21.0880   56.9860 O.co2 154  HEM154      0.0000
@<TRIPOS>BOND
     1    24    23    2
     2    22    19    1
     3    23    20    1
     4    19    20    2
     5    19    18    1
     6    20    21    1
     7    18     3    1
     8    18    17    2
     9     3    10    2
    10    21    17    1
    11    21     4    2
    12    11     9    1
    13    17     1    1
    14     4    26    1
    15    16    14   ar
    16    10     9   ar
    17    10     6   ar
    18     9     8   ar
    19    26    27   ar
    20    26    25   ar
    21    14    13    1
    22    14    15   ar
    23    30    27    1
    24    13    12    1
    25     6     1    1
    26     6     7   ar
    27     1    25    1
    28     1    33    1
    29     8     7   ar
    30     8    12    1
    31    27    28   ar
    32    25    29   ar
    33     7     2    2
    34    28    29   ar
    35    28    31    1
    36    29     5    1
    37    33    37    2
    38    33    34    1
    39     2    37    1
    40    37    36    1
    41     5    34    2
    42    31    32    2
    43    34    35    1
    44    36    35    2
    45    36    39    1
    46    35    38    1
    47    39    40    1
    48    40    41    1
    49    43    41   ar
    50    41    42   ar
