@<TRIPOS>MOLECULE
1myh_HEM_A_1.pdb
 43 50 0 0 0
SMALL
GASTEIGER

@<TRIPOS>ATOM
      1 FE         42.9970  -16.6340   50.7890 Fe    155  HEM155      0.0000
      2  CHA       41.5190  -19.2150   52.5520 C.2   155  HEM155      0.0000
      3  CHB       44.5050  -18.8250   48.6980 C.2   155  HEM155      0.0000
      4  CHC       44.4540  -13.9540   49.0390 C.2   155  HEM155      0.0000
      5  CHD       41.6560  -14.3360   53.0560 C.2   155  HEM155      0.0000
      6  NA        42.9740  -18.5330   50.7630 N.ar  155  HEM155      0.0000
      7  C1A       42.3190  -19.5240   51.4490 C.ar  155  HEM155      0.0000
      8  C2A       42.5760  -20.8470   50.9180 C.ar  155  HEM155      0.0000
      9  C3A       43.3760  -20.6660   49.8550 C.ar  155  HEM155      0.0000
     10  C4A       43.5990  -19.2310   49.7140 C.ar  155  HEM155      0.0000
     11  CMA       44.0150  -21.7300   48.8920 C.3   155  HEM155      0.0000
     12  CAA       42.0020  -22.2110   51.4520 C.3   155  HEM155      0.0000
     13  CBA       40.7410  -22.7120   50.6230 C.3   155  HEM155      0.0000
     14  CGA       39.6860  -21.6350   50.5540 C.2   155  HEM155      0.0000
     15  O1A       38.9700  -21.3330   51.6120 O.co2 155  HEM155      0.0000
     16  O2A       39.6420  -20.8910   49.5040 O.co2 155  HEM155      0.0000
     17  NB        44.2990  -16.4120   49.2180 N.2   155  HEM155      0.0000
     18  C1B       44.7210  -17.4620   48.4490 C.2   155  HEM155      0.0000
     19  C2B       45.4560  -16.9100   47.3570 C.2   155  HEM155      0.0000
     20  C3B       45.4770  -15.6050   47.4360 C.2   155  HEM155      0.0000
     21  C4B       44.7120  -15.2380   48.6210 C.2   155  HEM155      0.0000
     22  CMB       46.1150  -17.8990   46.2930 C.3   155  HEM155      0.0000
     23  CAB       46.1550  -14.5410   46.4840 C.3   155  HEM155      0.0000
     24  CBB       47.4540  -14.6680   45.9950 C.3   155  HEM155      0.0000
     25  NC        43.0090  -14.6910   50.9960 N.ar  155  HEM155      0.0000
     26  C1C       43.6780  -13.7440   50.2080 C.ar  155  HEM155      0.0000
     27  C2C       43.5950  -12.4470   50.8500 C.ar  155  HEM155      0.0000
     28  C3C       42.9140  -12.5600   52.0170 C.ar  155  HEM155      0.0000
     29  C4C       42.5380  -13.9330   52.0910 C.ar  155  HEM155      0.0000
     30  CMC       44.1880  -11.1140   50.3150 C.3   155  HEM155      0.0000
     31  CAC       42.5260  -11.4460   53.0180 C.3   155  HEM155      0.0000
     32  CBC       42.8120  -10.0800   53.0270 C.3   155  HEM155      0.0000
     33  ND        41.8280  -16.7770   52.4130 N.2   155  HEM155      0.0000
     34  C1D       41.4200  -15.6660   53.1730 C.2   155  HEM155      0.0000
     35  C2D       40.6740  -16.1990   54.3090 C.2   155  HEM155      0.0000
     36  C3D       40.6830  -17.5030   54.2180 C.2   155  HEM155      0.0000
     37  C4D       41.3960  -17.9420   53.0260 C.2   155  HEM155      0.0000
     38  CMD       40.1120  -15.2010   55.3810 C.3   155  HEM155      0.0000
     39  CAD       40.1610  -18.6150   55.1860 C.3   155  HEM155      0.0000
     40  CBD       41.5560  -18.8560   56.0580 C.3   155  HEM155      0.0000
     41  CGD       41.5190  -20.2760   56.6110 C.2   155  HEM155      0.0000
     42  O1D       40.7360  -20.3200   57.6480 O.co2 155  HEM155      0.0000
     43  O2D       42.1740  -21.2370   55.9580 O.co2 155  HEM155      0.0000
@<TRIPOS>BOND
     1    24    23    1
     2    22    19    1
     3    23    20    1
     4    19    20    2
     5    19    18    1
     6    20    21    1
     7    18     3    1
     8    18    17    2
     9    21     4    2
    10    21    17    1
    11     3    10    2
    12    11     9    1
    13     4    26    1
    14    17     1    1
    15    16    14   ar
    16    10     9   ar
    17    10     6   ar
    18     9     8   ar
    19    26    27   ar
    20    26    25   ar
    21    30    27    1
    22    14    13    1
    23    14    15   ar
    24    13    12    1
    25     6     1    1
    26     6     7   ar
    27     1    25    1
    28     1    33    1
    29    27    28   ar
    30     8     7   ar
    31     8    12    1
    32    25    29   ar
    33     7     2    2
    34    28    29   ar
    35    28    31    1
    36    29     5    1
    37    33    37    2
    38    33    34    1
    39     2    37    1
    40    31    32    1
    41    37    36    1
    42     5    34    2
    43    34    35    1
    44    36    35    2
    45    36    39    1
    46    35    38    1
    47    39    40    1
    48    43    41   ar
    49    40    41    1
    50    41    42   ar
