@<TRIPOS>MOLECULE
1myi_HEM_A_1.pdb
 43 50 0 0 0
SMALL
GASTEIGER

@<TRIPOS>ATOM
      1 FE         44.0950  -16.7170   50.9160 Fe    154  HEM154      0.0000
      2  CHA       42.7650  -19.3630   52.5960 C.2   154  HEM154      0.0000
      3  CHB       45.5770  -18.9770   48.6540 C.2   154  HEM154      0.0000
      4  CHC       45.5320  -14.0820   49.1580 C.2   154  HEM154      0.0000
      5  CHD       42.7740  -14.5820   53.1390 C.2   154  HEM154      0.0000
      6  NA        44.1560  -18.6900   50.7040 N.ar  154  HEM154      0.0000
      7  C1A       43.5450  -19.6790   51.4890 C.ar  154  HEM154      0.0000
      8  C2A       43.8270  -21.0240   50.9390 C.ar  154  HEM154      0.0000
      9  C3A       44.5820  -20.8670   49.8230 C.ar  154  HEM154      0.0000
     10  C4A       44.8070  -19.4500   49.6780 C.ar  154  HEM154      0.0000
     11  CMA       45.1400  -21.9120   48.8970 C.3   154  HEM154      0.0000
     12  CAA       43.2740  -22.3950   51.5170 C.3   154  HEM154      0.0000
     13  CBA       41.9800  -22.7690   50.7270 C.3   154  HEM154      0.0000
     14  CGA       40.8640  -21.8060   50.4920 C.2   154  HEM154      0.0000
     15  O1A       40.1070  -21.3150   51.4290 O.co2 154  HEM154      0.0000
     16  O2A       40.6440  -21.3490   49.3310 O.co2 154  HEM154      0.0000
     17  NB        45.3360  -16.5580   49.2140 N.2   154  HEM154      0.0000
     18  C1B       45.7780  -17.6080   48.4500 C.2   154  HEM154      0.0000
     19  C2B       46.5780  -17.0530   47.3500 C.2   154  HEM154      0.0000
     20  C3B       46.5840  -15.7230   47.4960 C.2   154  HEM154      0.0000
     21  C4B       45.8100  -15.3820   48.6870 C.2   154  HEM154      0.0000
     22  CMB       47.2000  -17.9880   46.2520 C.3   154  HEM154      0.0000
     23  CAB       47.2560  -14.5660   46.6440 C.2   154  HEM154      0.0000
     24  CBB       48.5640  -14.5790   46.2240 C.2   154  HEM154      0.0000
     25  NC        44.1300  -14.7410   51.0830 N.ar  154  HEM154      0.0000
     26  C1C       44.8240  -13.7420   50.2980 C.ar  154  HEM154      0.0000
     27  C2C       44.7330  -12.4420   50.9170 C.ar  154  HEM154      0.0000
     28  C3C       43.9850  -12.6060   52.0410 C.ar  154  HEM154      0.0000
     29  C4C       43.5880  -13.9910   52.1880 C.ar  154  HEM154      0.0000
     30  CMC       45.3290  -11.1870   50.3140 C.3   154  HEM154      0.0000
     31  CAC       43.5300  -11.5420   53.0850 C.2   154  HEM154      0.0000
     32  CBC       44.2610  -10.4570   53.3980 C.2   154  HEM154      0.0000
     33  ND        42.8890  -16.9410   52.5540 N.2   154  HEM154      0.0000
     34  C1D       42.4820  -15.9010   53.3520 C.2   154  HEM154      0.0000
     35  C2D       41.7520  -16.5030   54.5130 C.2   154  HEM154      0.0000
     36  C3D       41.7700  -17.8030   54.3340 C.2   154  HEM154      0.0000
     37  C4D       42.5230  -18.1380   53.1310 C.2   154  HEM154      0.0000
     38  CMD       41.1790  -15.5540   55.6000 C.3   154  HEM154      0.0000
     39  CAD       41.2590  -18.9460   55.2360 C.3   154  HEM154      0.0000
     40  CBD       42.5840  -19.1060   56.0720 C.3   154  HEM154      0.0000
     41  CGD       42.1270  -19.8650   57.2940 C.2   154  HEM154      0.0000
     42  O1D       41.7770  -19.2250   58.3450 O.co2 154  HEM154      0.0000
     43  O2D       42.0390  -21.0980   57.2390 O.co2 154  HEM154      0.0000
@<TRIPOS>BOND
     1    24    23    2
     2    22    19    1
     3    23    20    1
     4    19    20    2
     5    19    18    1
     6    20    21    1
     7    18     3    1
     8    18    17    2
     9     3    10    2
    10    21     4    2
    11    21    17    1
    12    11     9    1
    13     4    26    1
    14    17     1    1
    15    16    14   ar
    16    10     9   ar
    17    10     6   ar
    18     9     8   ar
    19    26    27   ar
    20    26    25   ar
    21    30    27    1
    22    14    13    1
    23    14    15   ar
    24     6     1    1
    25     6     7   ar
    26    13    12    1
    27     1    25    1
    28     1    33    1
    29    27    28   ar
    30     8     7   ar
    31     8    12    1
    32    25    29   ar
    33     7     2    2
    34    28    29   ar
    35    28    31    1
    36    29     5    1
    37    33    37    2
    38    33    34    1
    39     2    37    1
    40    31    32    2
    41    37    36    1
    42     5    34    2
    43    34    35    1
    44    36    35    2
    45    36    39    1
    46    35    38    1
    47    39    40    1
    48    40    41    1
    49    43    41   ar
    50    41    42   ar
