@<TRIPOS>MOLECULE
1myj_HEM_A_1.pdb
 43 50 0 0 0
SMALL
GASTEIGER

@<TRIPOS>ATOM
      1 FE         43.6770  -16.9670   50.8480 Fe    155  HEM155      0.0000
      2  CHA       42.3730  -19.5870   52.5990 C.2   155  HEM155      0.0000
      3  CHB       45.1230  -19.1490   48.5380 C.2   155  HEM155      0.0000
      4  CHC       45.0430  -14.2930   49.0970 C.2   155  HEM155      0.0000
      5  CHD       42.4910  -14.7890   53.2120 C.2   155  HEM155      0.0000
      6  NA        43.6860  -18.8820   50.6170 N.ar  155  HEM155      0.0000
      7  C1A       43.1050  -19.8570   51.4070 C.ar  155  HEM155      0.0000
      8  C2A       43.3420  -21.1650   50.8590 C.ar  155  HEM155      0.0000
      9  C3A       44.0560  -21.0280   49.7570 C.ar  155  HEM155      0.0000
     10  C4A       44.3180  -19.6400   49.5880 C.ar  155  HEM155      0.0000
     11  CMA       44.5520  -22.0880   48.8010 C.3   155  HEM155      0.0000
     12  CAA       42.7480  -22.4350   51.4870 C.3   155  HEM155      0.0000
     13  CBA       41.4620  -22.8230   50.6190 C.3   155  HEM155      0.0000
     14  CGA       40.3000  -21.8230   50.5920 C.2   155  HEM155      0.0000
     15  O1A       39.8010  -21.6660   51.7470 O.co2 155  HEM155      0.0000
     16  O2A       40.0920  -21.2380   49.5110 O.co2 155  HEM155      0.0000
     17  NB        44.8910  -16.7400   49.1360 N.2   155  HEM155      0.0000
     18  C1B       45.2900  -17.7850   48.3090 C.2   155  HEM155      0.0000
     19  C2B       45.9320  -17.2000   47.1330 C.2   155  HEM155      0.0000
     20  C3B       45.9260  -15.8870   47.2990 C.2   155  HEM155      0.0000
     21  C4B       45.2800  -15.5640   48.5740 C.2   155  HEM155      0.0000
     22  CMB       46.5340  -18.1230   46.0810 C.3   155  HEM155      0.0000
     23  CAB       46.4830  -14.7500   46.4430 C.2   155  HEM155      0.0000
     24  CBB       47.8040  -14.7650   46.0920 C.2   155  HEM155      0.0000
     25  NC        43.7470  -14.9890   51.0970 N.ar  155  HEM155      0.0000
     26  C1C       44.3620  -13.9900   50.3070 C.ar  155  HEM155      0.0000
     27  C2C       44.2580  -12.7130   50.9150 C.ar  155  HEM155      0.0000
     28  C3C       43.6180  -12.8900   52.0820 C.ar  155  HEM155      0.0000
     29  C4C       43.2720  -14.2500   52.1940 C.ar  155  HEM155      0.0000
     30  CMC       44.8160  -11.4080   50.3400 C.3   155  HEM155      0.0000
     31  CAC       43.1840  -11.8910   53.1680 C.2   155  HEM155      0.0000
     32  CBC       43.6200  -10.6440   53.3090 C.2   155  HEM155      0.0000
     33  ND        42.6200  -17.1550   52.5700 N.2   155  HEM155      0.0000
     34  C1D       42.2410  -16.1130   53.4130 C.2   155  HEM155      0.0000
     35  C2D       41.4990  -16.6870   54.5420 C.2   155  HEM155      0.0000
     36  C3D       41.4620  -17.9730   54.3410 C.2   155  HEM155      0.0000
     37  C4D       42.1900  -18.3300   53.1380 C.2   155  HEM155      0.0000
     38  CMD       40.8960  -15.7760   55.6360 C.3   155  HEM155      0.0000
     39  CAD       40.9130  -19.0730   55.2320 C.3   155  HEM155      0.0000
     40  CBD       42.1810  -19.3670   56.0640 C.3   155  HEM155      0.0000
     41  CGD       41.9020  -20.4780   57.0370 C.2   155  HEM155      0.0000
     42  O1D       41.8150  -20.0500   58.2550 O.co2 155  HEM155      0.0000
     43  O2D       41.7110  -21.6560   56.5850 O.co2 155  HEM155      0.0000
@<TRIPOS>BOND
     1    22    19    1
     2    24    23    2
     3    23    20    1
     4    19    20    2
     5    19    18    1
     6    20    21    1
     7    18     3    1
     8    18    17    2
     9     3    10    2
    10    21     4    2
    11    21    17    1
    12    11     9    1
    13     4    26    1
    14    17     1    1
    15    16    14   ar
    16    10     9   ar
    17    10     6   ar
    18     9     8   ar
    19    26    27   ar
    20    26    25   ar
    21    30    27    1
    22    14    13    1
    23    14    15   ar
    24     6     1    1
    25     6     7   ar
    26    13    12    1
    27     1    25    1
    28     1    33    1
    29     8     7   ar
    30     8    12    1
    31    27    28   ar
    32    25    29   ar
    33     7     2    2
    34    28    29   ar
    35    28    31    1
    36    29     5    1
    37    33    37    2
    38    33    34    1
    39     2    37    1
    40    37    36    1
    41    31    32    2
    42     5    34    2
    43    34    35    1
    44    36    35    2
    45    36    39    1
    46    35    38    1
    47    39    40    1
    48    40    41    1
    49    43    41   ar
    50    41    42   ar
