@<TRIPOS>MOLECULE
1mym_HEM_A_1.pdb
 43 50 0 0 0
SMALL
GASTEIGER

@<TRIPOS>ATOM
      1 FE         35.4420    4.3620   10.1000 Fe    154  HEM154      0.0000
      2  CHA       38.0340    2.4080   11.2430 C.2   154  HEM154      0.0000
      3  CHB       37.2940    5.3190    7.4760 C.2   154  HEM154      0.0000
      4  CHC       32.8440    6.2530    9.0590 C.2   154  HEM154      0.0000
      5  CHD       33.6110    3.4050   12.8960 C.2   154  HEM154      0.0000
      6  NA        37.2130    4.0010    9.5050 N.ar  154  HEM154      0.0000
      7  C1A       38.2090    3.1660   10.0730 C.ar  154  HEM154      0.0000
      8  C2A       39.4670    3.1240    9.2530 C.ar  154  HEM154      0.0000
      9  C3A       39.1950    3.9870    8.2120 C.ar  154  HEM154      0.0000
     10  C4A       37.8420    4.4700    8.3600 C.ar  154  HEM154      0.0000
     11  CMA       40.1270    4.2900    7.0180 C.3   154  HEM154      0.0000
     12  CAA       40.7620    2.2730    9.5140 C.3   154  HEM154      0.0000
     13  CBA       40.8110    1.0870    8.5850 C.3   154  HEM154      0.0000
     14  CGA       39.5500    0.2220    8.6700 C.2   154  HEM154      0.0000
     15  O1A       39.1990   -0.3450    9.7530 O.co2 154  HEM154      0.0000
     16  O2A       38.8800    0.1390    7.6310 O.co2 154  HEM154      0.0000
     17  NB        35.0610    5.5590    8.6020 N.2   154  HEM154      0.0000
     18  C1B       35.9740    5.8760    7.5930 C.2   154  HEM154      0.0000
     19  C2B       35.3590    6.8170    6.6240 C.2   154  HEM154      0.0000
     20  C3B       34.1070    7.0280    7.0700 C.2   154  HEM154      0.0000
     21  C4B       33.9530    6.2560    8.2730 C.2   154  HEM154      0.0000
     22  CMB       35.9950    7.3370    5.3080 C.3   154  HEM154      0.0000
     23  CAB       33.1450    7.8850    6.4590 C.3   154  HEM154      0.0000
     24  CBB       33.3650    9.2490    6.0680 C.3   154  HEM154      0.0000
     25  NC        33.5800    4.7030   10.7280 N.ar  154  HEM154      0.0000
     26  C1C       32.6810    5.5340   10.2480 C.ar  154  HEM154      0.0000
     27  C2C       31.5080    5.6970   11.1500 C.ar  154  HEM154      0.0000
     28  C3C       31.7260    4.8780   12.2050 C.ar  154  HEM154      0.0000
     29  C4C       32.9970    4.2770   11.9640 C.ar  154  HEM154      0.0000
     30  CMC       30.3160    6.6130   10.8640 C.3   154  HEM154      0.0000
     31  CAC       30.9400    4.6330   13.4290 C.3   154  HEM154      0.0000
     32  CBC       29.7850    5.3010   13.9620 C.3   154  HEM154      0.0000
     33  ND        35.7260    3.0920   11.6400 N.2   154  HEM154      0.0000
     34  C1D       34.8590    2.8500   12.7060 C.2   154  HEM154      0.0000
     35  C2D       35.4970    1.9860   13.6910 C.2   154  HEM154      0.0000
     36  C3D       36.7340    1.7700   13.2440 C.2   154  HEM154      0.0000
     37  C4D       36.8620    2.4360   11.9690 C.2   154  HEM154      0.0000
     38  CMD       34.8840    1.3410   14.9060 C.3   154  HEM154      0.0000
     39  CAD       37.8100    1.0330   13.9340 C.3   154  HEM154      0.0000
     40  CBD       38.4460    2.0220   14.9130 C.3   154  HEM154      0.0000
     41  CGD       39.4770    1.3690   15.8050 C.2   154  HEM154      0.0000
     42  O1D       39.0800    0.9370   16.9290 O.co2 154  HEM154      0.0000
     43  O2D       40.6290    1.2000   15.3600 O.co2 154  HEM154      0.0000
@<TRIPOS>BOND
     1    22    19    1
     2    24    23    1
     3    23    20    1
     4    19    20    2
     5    19    18    1
     6    11     9    1
     7    20    21    1
     8     3    18    1
     9     3    10    2
    10    18    17    2
    11    16    14   ar
    12     9    10   ar
    13     9     8   ar
    14    21    17    1
    15    21     4    2
    16    10     6   ar
    17    13    14    1
    18    13    12    1
    19    17     1    1
    20    14    15   ar
    21     4    26    1
    22     8    12    1
    23     8     7   ar
    24     6     7   ar
    25     6     1    1
    26     7     2    2
    27     1    25    1
    28     1    33    1
    29    26    25   ar
    30    26    27   ar
    31    25    29   ar
    32    30    27    1
    33    27    28   ar
    34     2    37    1
    35    33    37    2
    36    33    34    1
    37    29    28   ar
    38    29     5    1
    39    37    36    1
    40    28    31    1
    41    34     5    2
    42    34    35    1
    43    36    35    2
    44    36    39    1
    45    31    32    1
    46    35    38    1
    47    39    40    1
    48    40    41    1
    49    43    41   ar
    50    41    42   ar
