@<TRIPOS>MOLECULE
1myp_HEM_A_1.pdb
 43 50 0 0 0
SMALL
GASTEIGER

@<TRIPOS>ATOM
      1  CHA       52.1720   72.9480   16.1360 C.2   580  HEM580      0.0000
      2  CHB       52.7200   73.4180   20.9940 C.2   580  HEM580      0.0000
      3  CHC       57.4510   73.8440   20.2540 C.2   580  HEM580      0.0000
      4  CHD       56.8740   73.6320   15.5090 C.2   580  HEM580      0.0000
      5  C1A       51.9230   72.8840   17.5440 C.2   580  HEM580      0.0000
      6  C2A       50.6990   72.4080   18.1950 C.2   580  HEM580      0.0000
      7  C3A       50.8240   72.6200   19.5250 C.2   580  HEM580      0.0000
      8  C4A       52.1530   73.1660   19.7650 C.2   580  HEM580      0.0000
      9  CMA       49.7700   72.3470   20.5710 C.3   580  HEM580      0.0000
     10  CAA       49.6010   71.5800   17.5810 C.3   580  HEM580      0.0000
     11  CBA       49.6320   70.2260   18.2280 C.3   580  HEM580      0.0000
     12  CGA       49.0220   69.2120   17.2450 C.2   580  HEM580      0.0000
     13  O1A       48.0320   69.4950   16.6310 O.co2 580  HEM580      0.0000
     14  O2A       49.5310   68.1350   17.1010 O.co2 580  HEM580      0.0000
     15  C1B       54.0500   73.5950   21.2400 C.ar  580  HEM580      0.0000
     16  C2B       54.6940   73.8230   22.5310 C.ar  580  HEM580      0.0000
     17  C3B       56.0130   73.9610   22.2940 C.ar  580  HEM580      0.0000
     18  C4B       56.2080   73.8110   20.8550 C.ar  580  HEM580      0.0000
     19  CMB       54.0270   73.8710   23.8840 C.3   580  HEM580      0.0000
     20  CAB       57.0790   74.2220   23.3320 C.2   580  HEM580      0.0000
     21  CBB       58.3320   74.4620   22.9530 C.2   580  HEM580      0.0000
     22  C1C       57.7200   73.8900   18.9310 C.2   580  HEM580      0.0000
     23  C2C       59.0210   74.1640   18.3130 C.2   580  HEM580      0.0000
     24  C3C       58.8470   74.0900   16.9820 C.2   580  HEM580      0.0000
     25  C4C       57.4390   73.7770   16.7520 C.2   580  HEM580      0.0000
     26  CMC       60.3170   74.4790   19.0220 C.3   580  HEM580      0.0000
     27  CAC       59.9120   74.2910   15.9290 C.2   580  HEM580      0.0000
     28  CBC       61.1770   74.4830   16.2900 C.2   580  HEM580      0.0000
     29  C1D       55.5600   73.4580   15.2170 C.ar  580  HEM580      0.0000
     30  C2D       54.9890   73.2720   13.8830 C.ar  580  HEM580      0.0000
     31  C3D       53.6670   73.0990   14.0400 C.ar  580  HEM580      0.0000
     32  C4D       53.3880   73.1870   15.4700 C.ar  580  HEM580      0.0000
     33  CMD       55.7300   73.2730   12.5680 C.3   580  HEM580      0.0000
     34  CAD       52.6670   72.8370   12.9370 C.3   580  HEM580      0.0000
     35  CBD       52.0460   74.1470   12.5510 C.3   580  HEM580      0.0000
     36  CGD       50.5500   73.9020   12.2730 C.2   580  HEM580      0.0000
     37  O1D       49.7400   74.0870   13.1390 O.co2 580  HEM580      0.0000
     38  O2D       50.1950   73.5270   11.1890 O.co2 580  HEM580      0.0000
     39  NA        52.8570   73.0410   18.5810 N.2   580  HEM580      0.0000
     40  NB        54.9870   73.5810   20.2570 N.ar  580  HEM580      0.0000
     41  NC        56.7980   73.6780   17.9700 N.2   580  HEM580      0.0000
     42  ND        54.5710   73.4110   16.1460 N.ar  580  HEM580      0.0000
     43 FE         54.6370   73.5990   18.2960 Fe    580  HEM580      0.0000
@<TRIPOS>BOND
     1    38    36   ar
     2    36    35    1
     3    36    37   ar
     4    35    34    1
     5    33    30    1
     6    34    31    1
     7    30    31   ar
     8    30    29   ar
     9    31    32   ar
    10    29     4    2
    11    29    42   ar
    12    32     1    2
    13    32    42   ar
    14     4    25    1
    15    27    28    2
    16    27    24    1
    17     1     5    1
    18    42    43    1
    19    13    12   ar
    20    25    24    1
    21    25    41    2
    22    24    23    2
    23    14    12   ar
    24    12    11    1
    25     5     6    1
    26     5    39    2
    27    10     6    1
    28    10    11    1
    29    41    43    1
    30    41    22    1
    31     6     7    2
    32    43    39    1
    33    43    40    1
    34    23    22    1
    35    23    26    1
    36    39     8    1
    37    22     3    2
    38     7     8    1
    39     7     9    1
    40     8     2    2
    41     3    18    1
    42    40    18   ar
    43    40    15   ar
    44    18    17   ar
    45     2    15    1
    46    15    16   ar
    47    17    16   ar
    48    17    20    1
    49    16    19    1
    50    21    20    2
