@<TRIPOS>MOLECULE
1myr_MAN_A_1.pdb
 11 11 0 0 0
SMALL
GASTEIGER

@<TRIPOS>ATOM
      1  C1        40.6430   88.1380   33.1360 C.3   956  MAN956      0.1777
      2  C2        42.1170   87.8010   32.8640 C.3   956  MAN956      0.2141
      3  C3        43.0260   88.2240   34.0140 C.3   956  MAN956      0.2173
      4  C4        42.7410   89.6880   34.4540 C.3   956  MAN956      0.2142
      5  C5        41.2240   90.0490   34.4780 C.3   956  MAN956      0.1810
      6  C6        40.9980   91.5620   34.5380 C.3   956  MAN956      0.2141
      7  O2        42.5530   88.4840   31.7100 O.3   956  MAN956     -0.2176
      8  O3        44.3790   88.1210   33.5470 O.3   956  MAN956     -0.2175
      9  O4        43.3220   89.9440   35.7410 O.3   956  MAN956     -0.2176
     10  O5        40.5200   89.5420   33.2950 O.3   956  MAN956     -0.3481
     11  O6        39.8020   91.8830   35.2570 O.3   956  MAN956     -0.2176
@<TRIPOS>BOND
     1     7     2    1
     2     2     1    1
     3     2     3    1
     4     1    10    1
     5    10     5    1
     6     8     3    1
     7     3     4    1
     8     4     5    1
     9     4     9    1
    10     5     6    1
    11     6    11    1
