@<TRIPOS>MOLECULE
1myt_HEM_A_1.pdb
 43 50 0 0 0
SMALL
GASTEIGER

@<TRIPOS>ATOM
      1 FE         38.6820   38.8560   56.1980 Fe    154  HEM154      0.0000
      2  CHA       35.3040   39.3800   56.2310 C.2   154  HEM154      0.0000
      3  CHB       39.1120   41.1570   58.6900 C.2   154  HEM154      0.0000
      4  CHC       42.0560   38.3990   56.0510 C.2   154  HEM154      0.0000
      5  CHD       38.3040   36.7840   53.4290 C.2   154  HEM154      0.0000
      6  NA        37.4840   40.0370   57.2420 N.2   154  HEM154      0.0000
      7  C1A       36.0690   40.0320   57.1950 C.2   154  HEM154      0.0000
      8  C2A       35.5690   40.9970   58.1250 C.2   154  HEM154      0.0000
      9  C3A       36.6140   41.5270   58.7780 C.2   154  HEM154      0.0000
     10  C4A       37.7810   40.8520   58.3060 C.2   154  HEM154      0.0000
     11  CMA       36.6410   42.5380   59.9700 C.3   154  HEM154      0.0000
     12  CAA       34.0670   41.2660   58.3360 C.3   154  HEM154      0.0000
     13  CBA       33.6000   40.5390   59.6410 C.3   154  HEM154      0.0000
     14  CGA       33.8040   39.0410   59.7000 C.2   154  HEM154      0.0000
     15  O1A       33.0640   38.4500   58.8860 O.co2 154  HEM154      0.0000
     16  O2A       34.7300   38.5370   60.3770 O.co2 154  HEM154      0.0000
     17  NB        40.3050   39.6520   57.1430 N.ar  154  HEM154      0.0000
     18  C1B       40.2460   40.5550   58.2280 C.ar  154  HEM154      0.0000
     19  C2B       41.6130   40.8030   58.6740 C.ar  154  HEM154      0.0000
     20  C3B       42.4340   40.0450   57.9490 C.ar  154  HEM154      0.0000
     21  C4B       41.5980   39.2540   57.0560 C.ar  154  HEM154      0.0000
     22  CMB       41.9870   41.8000   59.8300 C.3   154  HEM154      0.0000
     23  CAB       43.9380   39.8720   57.9190 C.2   154  HEM154      0.0000
     24  CBB       44.8170   40.2020   58.8700 C.2   154  HEM154      0.0000
     25  NC        39.9330   37.7620   55.0080 N.2   154  HEM154      0.0000
     26  C1C       41.3290   37.7330   55.0490 C.2   154  HEM154      0.0000
     27  C2C       41.8760   36.9440   53.9890 C.2   154  HEM154      0.0000
     28  C3C       40.8440   36.5770   53.2040 C.2   154  HEM154      0.0000
     29  C4C       39.6330   37.0180   53.8620 C.2   154  HEM154      0.0000
     30  CMC       43.3720   36.6760   53.7960 C.3   154  HEM154      0.0000
     31  CAC       40.7650   35.6210   51.9770 C.2   154  HEM154      0.0000
     32  CBC       41.8710   35.5740   51.2020 C.2   154  HEM154      0.0000
     33  ND        37.1600   38.2070   55.1120 N.ar  154  HEM154      0.0000
     34  C1D       37.1620   37.3690   53.9670 C.ar  154  HEM154      0.0000
     35  C2D       35.8360   37.2850   53.4140 C.ar  154  HEM154      0.0000
     36  C3D       35.0230   38.0110   54.1760 C.ar  154  HEM154      0.0000
     37  C4D       35.8200   38.5860   55.2380 C.ar  154  HEM154      0.0000
     38  CMD       35.4790   36.4620   52.1600 C.3   154  HEM154      0.0000
     39  CAD       33.5570   38.3950   53.9840 C.3   154  HEM154      0.0000
     40  CBD       33.2990   39.5820   53.0820 C.3   154  HEM154      0.0000
     41  CGD       31.8380   39.9950   52.9840 C.2   154  HEM154      0.0000
     42  O1D       31.0030   39.0830   52.8870 O.co2 154  HEM154      0.0000
     43  O2D       31.6420   41.2210   52.8540 O.co2 154  HEM154      0.0000
@<TRIPOS>BOND
     1    32    31    2
     2    31    28    1
     3    38    35    1
     4    43    41   ar
     5    42    41   ar
     6    41    40    1
     7    40    39    1
     8    28    29    1
     9    28    27    2
    10    35    34   ar
    11    35    36   ar
    12     5    29    1
    13     5    34    2
    14    30    27    1
    15    29    25    2
    16    34    33   ar
    17    39    36    1
    18    27    26    1
    19    36    37   ar
    20    25    26    1
    21    25     1    1
    22    26     4    2
    23    33    37   ar
    24    33     1    1
    25    37     2    2
    26     4    21    1
    27     1    17    1
    28     1     6    1
    29     2     7    1
    30    21    17   ar
    31    21    20   ar
    32    17    18   ar
    33     7     6    2
    34     7     8    1
    35     6    10    1
    36    23    20    1
    37    23    24    2
    38    20    19   ar
    39     8    12    1
    40     8     9    2
    41    18    19   ar
    42    18     3    1
    43    10     3    2
    44    10     9    1
    45    12    13    1
    46    19    22    1
    47     9    11    1
    48    15    14   ar
    49    13    14    1
    50    14    16   ar
