@<TRIPOS>MOLECULE
1myz_HEM_A_1.pdb
 43 50 0 0 0
SMALL
GASTEIGER

@<TRIPOS>ATOM
      1 FE         35.1360    4.3490   10.1420 Fe    200  HEM200      0.0000
      2  CHA       37.7730    2.5630   11.3080 C.2   200  HEM200      0.0000
      3  CHB       37.0430    5.4610    7.5370 C.2   200  HEM200      0.0000
      4  CHC       32.5480    6.2850    9.0650 C.2   200  HEM200      0.0000
      5  CHD       33.1960    3.2680   12.7460 C.2   200  HEM200      0.0000
      6  NA        37.0380    4.0760    9.5440 N.ar  200  HEM200      0.0000
      7  C1A       37.9920    3.2840   10.1290 C.ar  200  HEM200      0.0000
      8  C2A       39.2220    3.2980    9.3640 C.ar  200  HEM200      0.0000
      9  C3A       39.0190    4.1200    8.3040 C.ar  200  HEM200      0.0000
     10  C4A       37.6500    4.6020    8.4240 C.ar  200  HEM200      0.0000
     11  CMA       39.9680    4.4900    7.1990 C.3   200  HEM200      0.0000
     12  CAA       40.4860    2.5180    9.7060 C.3   200  HEM200      0.0000
     13  CBA       40.6340    1.1820    8.8910 C.3   200  HEM200      0.0000
     14  CGA       39.4620    0.3720    8.7680 C.2   200  HEM200      0.0000
     15  O1A       39.0980   -0.2530    9.8370 O.co2 200  HEM200      0.0000
     16  O2A       38.7880    0.2780    7.7220 O.co2 200  HEM200      0.0000
     17  NB        34.8520    5.6110    8.6190 N.2   200  HEM200      0.0000
     18  C1B       35.7460    5.9430    7.6220 C.2   200  HEM200      0.0000
     19  C2B       35.1660    6.8640    6.6640 C.2   200  HEM200      0.0000
     20  C3B       33.8890    7.1050    7.0870 C.2   200  HEM200      0.0000
     21  C4B       33.7110    6.3200    8.3070 C.2   200  HEM200      0.0000
     22  CMB       35.9070    7.4060    5.4570 C.3   200  HEM200      0.0000
     23  CAB       32.8250    7.9900    6.4720 C.3   200  HEM200      0.0000
     24  CBB       33.1760    9.4990    6.4490 C.3   200  HEM200      0.0000
     25  NC        33.2560    4.6800   10.7690 N.ar  200  HEM200      0.0000
     26  C1C       32.3340    5.5810   10.2200 C.ar  200  HEM200      0.0000
     27  C2C       31.1330    5.6700   11.0380 C.ar  200  HEM200      0.0000
     28  C3C       31.3270    4.8180   12.0710 C.ar  200  HEM200      0.0000
     29  C4C       32.6260    4.2110   11.8950 C.ar  200  HEM200      0.0000
     30  CMC       29.9510    6.5670   10.7160 C.3   200  HEM200      0.0000
     31  CAC       30.4310    4.4810   13.2780 C.3   200  HEM200      0.0000
     32  CBC       29.5150    5.5230   13.9870 C.3   200  HEM200      0.0000
     33  ND        35.4270    3.1340   11.6990 N.2   200  HEM200      0.0000
     34  C1D       34.5220    2.8210   12.7030 C.2   200  HEM200      0.0000
     35  C2D       35.1280    1.9730   13.7210 C.2   200  HEM200      0.0000
     36  C3D       36.4060    1.7880   13.3250 C.2   200  HEM200      0.0000
     37  C4D       36.5810    2.5120   12.0510 C.2   200  HEM200      0.0000
     38  CMD       34.3900    1.4750   14.9290 C.3   200  HEM200      0.0000
     39  CAD       37.5260    1.0210   13.9800 C.3   200  HEM200      0.0000
     40  CBD       38.3040    1.9970   14.9830 C.3   200  HEM200      0.0000
     41  CGD       39.2730    1.3590   15.7770 C.2   200  HEM200      0.0000
     42  O1D       39.1660    1.4010   17.0420 O.co2 200  HEM200      0.0000
     43  O2D       40.2520    0.7610   15.2580 O.co2 200  HEM200      0.0000
@<TRIPOS>BOND
     1    22    19    1
     2    24    23    1
     3    23    20    1
     4    19    20    2
     5    19    18    1
     6    20    21    1
     7    11     9    1
     8     3    18    1
     9     3    10    2
    10    18    17    2
    11    16    14   ar
    12     9    10   ar
    13     9     8   ar
    14    21    17    1
    15    21     4    2
    16    10     6   ar
    17    17     1    1
    18    14    13    1
    19    14    15   ar
    20    13    12    1
    21     4    26    1
    22     8    12    1
    23     8     7   ar
    24     6     7   ar
    25     6     1    1
    26     7     2    2
    27     1    25    1
    28     1    33    1
    29    26    25   ar
    30    26    27   ar
    31    30    27    1
    32    25    29   ar
    33    27    28   ar
    34     2    37    1
    35    33    37    2
    36    33    34    1
    37    29    28   ar
    38    29     5    1
    39    37    36    1
    40    28    31    1
    41    34     5    2
    42    34    35    1
    43    31    32    1
    44    36    35    2
    45    36    39    1
    46    35    38    1
    47    39    40    1
    48    40    41    1
    49    43    41   ar
    50    41    42   ar
