@<TRIPOS>MOLECULE
1mz4_HEM_A_1.pdb
 43 50 0 0 0
SMALL
GASTEIGER

@<TRIPOS>ATOM
      1  CHA       38.4730   18.7800   -6.3440 C.2   151  HEM151      0.0000
      2  CHB       39.7180   17.4390   -1.8300 C.2   151  HEM151      0.0000
      3  CHC       39.2570   22.0460   -0.3040 C.2   151  HEM151      0.0000
      4  CHD       37.6880   23.2900   -4.7430 C.2   151  HEM151      0.0000
      5  C1A       38.8390   18.0270   -5.2350 C.2   151  HEM151      0.0000
      6  C2A       39.1390   16.6090   -5.2880 C.2   151  HEM151      0.0000
      7  C3A       39.5150   16.2450   -4.0370 C.2   151  HEM151      0.0000
      8  C4A       39.4100   17.4190   -3.2010 C.2   151  HEM151      0.0000
      9  CMA       40.0100   14.8630   -3.6110 C.3   151  HEM151      0.0000
     10  CAA       39.0600   15.6730   -6.5080 C.3   151  HEM151      0.0000
     11  CBA       37.6280   15.1620   -6.6650 C.3   151  HEM151      0.0000
     12  CGA       37.4980   14.0670   -7.7120 C.2   151  HEM151      0.0000
     13  O1A       36.3720   13.5580   -7.9060 O.co2 151  HEM151      0.0000
     14  O2A       38.5160   13.7130   -8.3390 O.co2 151  HEM151      0.0000
     15  C1B       39.6910   18.5910   -1.0340 C.ar  151  HEM151      0.0000
     16  C2B       40.0540   18.6130    0.3650 C.ar  151  HEM151      0.0000
     17  C3B       39.9960   19.9080    0.8060 C.ar  151  HEM151      0.0000
     18  C4B       39.5470   20.6850   -0.3510 C.ar  151  HEM151      0.0000
     19  CMB       40.3760   17.3840    1.2100 C.3   151  HEM151      0.0000
     20  CAB       40.2770   20.3740    2.1100 C.3   151  HEM151      0.0000
     21  CBB       41.5460   20.2340    2.6890 C.3   151  HEM151      0.0000
     22  C1C       38.7950   22.7780   -1.3970 C.2   151  HEM151      0.0000
     23  C2C       38.3900   24.1690   -1.3220 C.2   151  HEM151      0.0000
     24  C3C       37.9380   24.5210   -2.5550 C.2   151  HEM151      0.0000
     25  C4C       38.0550   23.3280   -3.3950 C.2   151  HEM151      0.0000
     26  CMC       38.3630   25.0410   -0.0600 C.3   151  HEM151      0.0000
     27  CAC       37.3350   25.7370   -2.9210 C.3   151  HEM151      0.0000
     28  CBC       38.0310   26.9340   -2.8840 C.3   151  HEM151      0.0000
     29  C1D       37.7810   22.1720   -5.5630 C.ar  151  HEM151      0.0000
     30  C2D       37.5520   22.1900   -6.9950 C.ar  151  HEM151      0.0000
     31  C3D       37.8130   20.9360   -7.4520 C.ar  151  HEM151      0.0000
     32  C4D       38.1740   20.1360   -6.3000 C.ar  151  HEM151      0.0000
     33  CMD       37.0680   23.3760   -7.8260 C.3   151  HEM151      0.0000
     34  CAD       37.8760   20.4740   -8.9020 C.3   151  HEM151      0.0000
     35  CBD       39.2490   20.8100   -9.4700 C.3   151  HEM151      0.0000
     36  CGD       39.4330   20.3150  -10.8890 C.2   151  HEM151      0.0000
     37  O1D       39.9330   19.1830  -11.0850 O.co2 151  HEM151      0.0000
     38  O2D       39.0640   21.0650  -11.8110 O.co2 151  HEM151      0.0000
     39  NA        39.0150   18.5250   -3.9510 N.2   151  HEM151      0.0000
     40  NB        39.3740   19.8710   -1.4870 N.ar  151  HEM151      0.0000
     41  NC        38.5640   22.2500   -2.6710 N.2   151  HEM151      0.0000
     42  ND        38.1980   20.9140   -5.1380 N.ar  151  HEM151      0.0000
     43 FE         38.7980   20.3950   -3.3200 Fe    151  HEM151      0.0000
@<TRIPOS>BOND
     1    38    36   ar
     2    37    36   ar
     3    36    35    1
     4    35    34    1
     5    34    31    1
     6    14    12   ar
     7    13    12   ar
     8    33    30    1
     9    12    11    1
    10    31    30   ar
    11    31    32   ar
    12    30    29   ar
    13    11    10    1
    14    10     6    1
    15     1    32    2
    16     1     5    1
    17    32    42   ar
    18    29    42   ar
    19    29     4    2
    20     6     5    1
    21     6     7    2
    22     5    39    2
    23    42    43    1
    24     4    25    1
    25     7     9    1
    26     7     8    1
    27    39    43    1
    28    39     8    1
    29    25    41    2
    30    25    24    1
    31    43    41    1
    32    43    40    1
    33     8     2    2
    34    27    28    1
    35    27    24    1
    36    41    22    1
    37    24    23    2
    38     2    15    1
    39    40    15   ar
    40    40    18   ar
    41    22    23    1
    42    22     3    2
    43    23    26    1
    44    15    16   ar
    45    18     3    1
    46    18    17   ar
    47    16    17   ar
    48    16    19    1
    49    17    20    1
    50    20    21    1
