@<TRIPOS>MOLECULE
1mz6_DAN_A_1.pdb
 20 20 0 0 0
SMALL
GASTEIGER

@<TRIPOS>ATOM
      1  C1        26.7180   -3.9440    9.4220 C.2   700  DAN700      0.3914
      2  C2        25.5500   -3.2720    9.0690 C.3   700  DAN700      0.2203
      3  C3        25.4160   -1.8120    9.3280 C.3   700  DAN700      0.0760
      4  C4        24.1030   -1.3140    8.7690 C.3   700  DAN700      0.1773
      5  C5        22.9980   -2.3450    8.8480 C.3   700  DAN700      0.1552
      6  C6        23.4790   -3.4520    7.9330 C.3   700  DAN700      0.1710
      7  C7        22.4520   -4.5700    7.7400 C.3   700  DAN700      0.2134
      8  C8        22.9960   -5.8880    7.1850 C.3   700  DAN700      0.2173
      9  C9        22.1030   -6.9620    6.5470 C.3   700  DAN700      0.2175
     10  C10       20.5540   -2.1040    8.5960 C.2   700  DAN700      0.2420
     11  C11       19.4340   -1.4020    7.9000 C.3   700  DAN700      0.0964
     12  N5        21.7830   -1.6350    8.4750 N.am  700  DAN700     -0.2020
     13  O1A       27.8010   -3.4520   10.1830 O.co2 700  DAN700     -0.2430
     14  O1B       26.7910   -5.1600    9.0190 O.co2 700  DAN700     -0.2430
     15  O4        23.7270   -0.1480    9.4690 O.3   700  DAN700     -0.2211
     16  O6        24.6350   -3.9870    8.5540 O.3   700  DAN700     -0.3429
     17  O7        22.0920   -4.7700    9.0720 O.3   700  DAN700     -0.2176
     18  O8        23.9520   -5.5870    6.2180 O.3   700  DAN700     -0.2175
     19  O9        20.7090   -6.7550    6.5410 O.3   700  DAN700     -0.2175
     20  O10       20.2960   -3.2420    9.3380 O.2   700  DAN700     -0.2733
@<TRIPOS>BOND
     1    18     8    1
     2    19     9    1
     3     9     8    1
     4     8     7    1
     5     7     6    1
     6     7    17    1
     7    11    10    1
     8     6    16    1
     9     6     5    1
    10    12    10   am
    11    12     5    1
    12    16     2    1
    13    10    20    2
    14     4     5    1
    15     4     3    1
    16     4    15    1
    17    14     1   ar
    18     2     3    1
    19     2     1    1
    20     1    13   ar
