@<TRIPOS>MOLECULE
1mz9_VDY_A_1.pdb
 29 31 0 0 0
SMALL
GASTEIGER

@<TRIPOS>ATOM
      1  O1        -5.3120   -2.0520   20.4530 O.3   1002  VDY1002    -0.2228
      2  O2       -17.7370    0.7920   30.6390 O.3   1002  VDY1002    -0.2257
      3  C1        -7.4740   -2.5310   18.0000 C.3   1002  VDY1002     0.0287
      4  C2        -6.1050   -1.9400   18.0980 C.3   1002  VDY1002     0.0379
      5  C3        -5.6970   -1.1440   19.4270 C.3   1002  VDY1002     0.1567
      6  C4        -6.8490   -0.2740   19.9310 C.3   1002  VDY1002     0.0589
      7  C5        -8.2170   -1.0050   19.9230 C.2   1002  VDY1002    -0.0236
      8  C6        -8.9620   -1.1270   21.0650 C.2   1002  VDY1002    -0.0051
      9  C7       -10.2420   -1.6810   21.6290 C.2   1002  VDY1002    -0.0088
     10  C8       -10.5590   -1.5230   22.9720 C.2   1002  VDY1002    -0.0446
     11  C9        -9.5210   -0.7410   23.8960 C.3   1002  VDY1002     0.0220
     12  C10       -8.4970   -1.5180   18.5110 C.2   1002  VDY1002    -0.0260
     13  C11      -10.0640   -0.2700   25.1620 C.3   1002  VDY1002     0.0044
     14  C12      -11.5730    0.1700   25.2340 C.3   1002  VDY1002     0.0006
     15  C13      -12.5620   -0.7560   24.5270 C.3   1002  VDY1002     0.0034
     16  C14      -11.7860   -1.9760   23.8750 C.3   1002  VDY1002     0.0183
     17  C15      -12.9710   -2.7850   23.2080 C.3   1002  VDY1002     0.0040
     18  C16      -14.2210   -2.5750   24.2120 C.3   1002  VDY1002     0.0003
     19  C17      -13.6450   -1.6690   25.3660 C.3   1002  VDY1002     0.0003
     20  C18      -13.2770    0.1670   23.4510 C.3   1002  VDY1002     0.0003
     21  C19       -9.4580   -1.1230   17.7870 C.2   1002  VDY1002    -0.0049
     22  C20      -14.7690   -0.8200   26.2170 C.3   1002  VDY1002     0.0000
     23  C21      -14.0600   -0.0150   27.3050 C.3   1002  VDY1002     0.0000
     24  C22      -15.8600   -1.5710   27.0370 C.3   1002  VDY1002     0.0001
     25  C23      -16.8350   -0.4430   27.7490 C.3   1002  VDY1002     0.0025
     26  C24      -17.1090   -1.2670   29.0260 C.3   1002  VDY1002     0.0304
     27  C25      -17.9910   -0.7390   30.1630 C.3   1002  VDY1002     0.1268
     28  C26      -19.1700   -1.0860   29.4810 C.3   1002  VDY1002     0.0329
     29  C27      -18.4290   -1.3600   31.3690 C.3   1002  VDY1002     0.0329
@<TRIPOS>BOND
     1    21    12    2
     2     3     4    1
     3     3    12    1
     4     4     5    1
     5    12     7    1
     6     5     6    1
     7     5     1    1
     8     7     6    1
     9     7     8    2
    10     8     9    1
    11     9    10    2
    12    10    16    1
    13    10    11    1
    14    17    16    1
    15    17    18    1
    16    20    15    1
    17    16    15    1
    18    11    13    1
    19    18    19    1
    20    15    14    1
    21    15    19    1
    22    13    14    1
    23    19    22    1
    24    22    24    1
    25    22    23    1
    26    24    25    1
    27    25    26    1
    28    26    27    1
    29    28    27    1
    30    27     2    1
    31    27    29    1
