@<TRIPOS>MOLECULE
1mzc_FPP_B_1.pdb
 24 23 0 0 0
SMALL
GASTEIGER

@<TRIPOS>ATOM
      1  C1        24.5380  130.9630   -1.0990 C.3   1002  FPP1002     0.1747
      2  O1        24.1930  132.1470   -0.3920 O.3   1002  FPP1002    -0.3089
      3  C2        23.2910  130.2870   -1.6290 C.2   1002  FPP1002    -0.0024
      4  C3        22.9230  130.2350   -2.9480 C.2   1002  FPP1002    -0.0454
      5  C4        23.7390  130.8500   -4.0620 C.3   1002  FPP1002     0.0261
      6  C5        21.6610  129.5480   -3.4470 C.3   1002  FPP1002     0.0264
      7  C6        20.6470  129.1670   -2.3530 C.3   1002  FPP1002     0.0297
      8  C7        19.3450  128.6280   -2.9050 C.2   1002  FPP1002    -0.0342
      9  C8        18.2090  128.4680   -2.1660 C.2   1002  FPP1002    -0.0478
     10  C10       18.1200  128.8020   -0.6940 C.3   1002  FPP1002     0.0260
     11  C9        16.9090  127.9290   -2.7260 C.3   1002  FPP1002     0.0263
     12  C11       16.6150  128.2690   -4.1950 C.3   1002  FPP1002     0.0297
     13  C12       15.3230  127.6410   -4.6580 C.2   1002  FPP1002    -0.0342
     14  C13       14.4540  128.1890   -5.5370 C.2   1002  FPP1002    -0.0478
     15  C14       14.6490  129.5320   -6.2000 C.3   1002  FPP1002     0.0260
     16  C15       13.1870  127.4920   -5.9410 C.3   1002  FPP1002     0.0260
     17  PA        24.9350  132.4260    0.9840 P.3   1002  FPP1002     0.2233
     18  O1A       26.4260  132.3150    0.8880 O.2   1002  FPP1002    -0.5169
     19  O2A       24.4740  133.8370    1.4080 O.3   1002  FPP1002    -0.4370
     20  O3A       24.3290  131.4310    2.0790 O.3   1002  FPP1002    -0.2261
     21  PB        25.0420  130.3570    3.0160 P.3   1002  FPP1002     0.5373
     22  O1B       26.1600  130.9410    3.8260 O.3   1002  FPP1002    -0.1143
     23  O2B       25.5160  129.2550    2.0460 O.2   1002  FPP1002    -0.2221
     24  O3B       23.8970  129.8080    3.9000 O.3   1002  FPP1002    -0.1143
@<TRIPOS>BOND
     1    15    14    1
     2    16    14    1
     3    14    13    2
     4    13    12    1
     5    12    11    1
     6     5     4    1
     7     6     4    1
     8     6     7    1
     9     4     3    2
    10     8     7    1
    11     8     9    2
    12    11     9    1
    13     9    10    1
    14     3     1    1
    15     1     2    1
    16     2    17    1
    17    18    17    2
    18    17    19    1
    19    17    20    1
    20    23    21    2
    21    20    21    1
    22    21    22    1
    23    21    24    1
