@<TRIPOS>MOLECULE
1mzc_BNE_B_1.pdb
 35 38 0 0 0
SMALL
GASTEIGER

@<TRIPOS>ATOM
      1  C1        14.5970  135.5110   -4.6940 C.3   1003  BNE1003     0.0879
      2  C2        14.4290  134.0330   -4.0840 C.ar  1003  BNE1003    -0.0116
      3  C3        16.1330  135.9440   -4.9550 C.2   1003  BNE1003     0.2285
      4  C4        13.6970  135.5740   -6.0210 C.3   1003  BNE1003     0.0128
      5  C5        14.0150  136.6010   -3.6960 C.3   1003  BNE1003     0.0127
      6  C6        15.5560  133.3530   -3.5590 C.ar  1003  BNE1003     0.0337
      7  C7        13.1740  133.3260   -4.0080 C.ar  1003  BNE1003    -0.0036
      8  N8        16.9250  135.2990   -5.9540 N.am  1003  BNE1003    -0.2775
      9  O9        16.6390  136.8580   -4.2700 O.2   1003  BNE1003    -0.2746
     10  C10       13.9800  134.5780   -7.1700 C.3   1003  BNE1003     0.0026
     11  C11       14.4070  136.4690   -2.2080 C.3   1003  BNE1003     0.0008
     12  C12       15.4980  132.0440   -2.9810 C.ar  1003  BNE1003     0.1450
     13  C13       13.0950  132.0150   -3.4370 C.ar  1003  BNE1003     0.0028
     14  C14       16.4980  134.2450   -6.8830 C.3   1003  BNE1003     0.0935
     15  C15       18.3160  135.7220   -6.1370 C.3   1003  BNE1003     0.1148
     16  C16       15.3690  134.7030   -7.7990 C.3   1003  BNE1003     0.0215
     17  O17       16.6820  131.4310   -2.4750 O.3   1003  BNE1003    -0.4528
     18  C18       14.2550  131.3730   -2.9240 C.ar  1003  BNE1003     0.0375
     19  C19       17.8320  132.2480   -2.3910 C.ar  1003  BNE1003     0.1545
     20  C20       18.8010  132.3610   -3.4460 C.ar  1003  BNE1003     0.1028
     21  C21       18.0070  132.9980   -1.1940 C.ar  1003  BNE1003     0.0356
     22  C22       19.9210  133.2120   -3.2750 C.ar  1003  BNE1003     0.0131
     23  C23       18.6250  131.7080   -4.7090 C.1   1003  BNE1003     0.1035
     24  C24       19.1270  133.8700   -1.0090 C.ar  1003  BNE1003     0.0017
     25  C25       20.0830  133.9570   -2.0780 C.ar  1003  BNE1003    -0.0017
     26  N26       18.4220  131.2060   -5.7280 N.1   1003  BNE1003    -0.1907
     27  C27       19.3220  134.6930    0.2930 C.3   1003  BNE1003     0.1304
     28  C28       19.3080  133.8390    1.5610 C.ar  1003  BNE1003     0.0773
     29  C29       18.2190  135.7940    0.4250 C.3   1003  BNE1003     0.0297
     30  N30       20.6330  135.3480    0.2530 N.3   1003  BNE1003    -0.1238
     31  N31       20.0940  132.7240    1.7930 N.ar  1003  BNE1003    -0.3090
     32  C32       18.5490  133.9460    2.7280 C.ar  1003  BNE1003     0.1150
     33  C33       19.7520  132.2710    3.0230 C.ar  1003  BNE1003     0.1784
     34  C34       21.1080  132.0520    0.9940 C.3   1003  BNE1003     0.1318
     35  NZ        18.8250  132.9690    3.6430 N.ar  1003  BNE1003    -0.2226
@<TRIPOS>BOND
     1    16    10    1
     2    16    14    1
     3    10     4    1
     4    14     8    1
     5    15     8    1
     6     4     1    1
     7     8     3   am
     8    26    23    3
     9     3     1    1
    10     3     9    2
    11    23    20    1
    12     1     2    1
    13     1     5    1
    14     2     7   ar
    15     2     6   ar
    16     7    13   ar
    17     5    11    1
    18     6    12   ar
    19    20    22   ar
    20    20    19   ar
    21    13    18   ar
    22    22    25   ar
    23    12    18   ar
    24    12    17    1
    25    17    19    1
    26    19    21   ar
    27    25    24   ar
    28    21    24   ar
    29    24    27    1
    30    30    27    1
    31    27    29    1
    32    27    28    1
    33    34    31    1
    34    28    31   ar
    35    28    32   ar
    36    31    33   ar
    37    32    35   ar
    38    33    35   ar
