@<TRIPOS>MOLECULE
1mzf_AKG_A_1.pdb
 10 9 0 0 0
SMALL
GASTEIGER

@<TRIPOS>ATOM
      1  C1        22.3930   24.9250   28.1730 C.2   600  AKG600      0.4219
      2  O1        23.3930   25.4200   28.5540 O.co2 600  AKG600     -0.2373
      3  O2        22.2550   23.8760   27.3870 O.co2 600  AKG600     -0.2373
      4  C2        21.1150   25.5370   28.6190 C.2   600  AKG600      0.2526
      5  O5        21.2360   26.5480   29.3730 O.2   600  AKG600     -0.2843
      6  C3        19.7880   24.9950   28.1940 C.3   600  AKG600      0.0881
      7  C4        18.6350   25.4860   29.0940 C.3   600  AKG600      0.1224
      8  C5        17.2980   24.9290   28.6340 C.2   600  AKG600      0.3653
      9  O3        17.1330   24.1910   27.6830 O.co2 600  AKG600     -0.2456
     10  O4        16.3010   25.3300   29.3760 O.co2 600  AKG600     -0.2456
@<TRIPOS>BOND
     1     3     1   ar
     2     9     8   ar
     3     1     2   ar
     4     1     4    1
     5     6     4    1
     6     6     7    1
     7     4     5    2
     8     8     7    1
     9     8    10   ar
