@<TRIPOS>MOLECULE
1mzj_COA_A_1.pdb
 48 50 0 0 0
SMALL
GASTEIGER

@<TRIPOS>ATOM
      1  N1A       65.7920   21.4890   21.0550 N.2   500  COA500      0.0021
      2  C2A       65.0240   21.8540   22.1690 C.3   500  COA500      0.5254
      3  N3A       64.3530   20.8940   22.9340 N.2   500  COA500     -0.0055
      4  C4A       64.2030   19.6070   22.2330 C.2   500  COA500      0.3518
      5  C5A       65.1630   19.2640   21.1000 C.2   500  COA500      0.2526
      6  C6A       66.0560   20.1690   20.5440 C.2   500  COA500      0.4393
      7  N6A       66.7490   20.3350   19.2790 N.pl3 500  COA500      0.2180
      8  N7A       64.9680   17.8840   20.8800 N.2   500  COA500     -0.2095
      9  C8A       63.9460   17.4070   21.7920 C.3   500  COA500      0.3377
     10  N9A       63.4490   18.4690   22.5990 N.pl3 500  COA500     -0.1439
     11  C1B       62.2450   18.2050   23.4850 C.3   500  COA500      0.3185
     12  C2B       62.4140   18.9830   24.7760 C.3   500  COA500      0.2543
     13  O2B       62.6780   20.1970   23.9790 O.3   500  COA500     -0.2131
     14  C3B       60.9450   19.2500   25.2810 C.3   500  COA500      0.1928
     15  O3B       60.4380   18.3810   26.4970 O.3   500  COA500     -0.2673
     16  P3B       59.5950   16.9340   26.0250 P.3   500  COA500      0.5327
     17  O7A       59.9370   15.7320   27.0410 O.3   500  COA500     -0.1145
     18  O8A       57.9900   17.2640   26.0190 O.3   500  COA500     -0.1145
     19  O9A       60.2230   16.6660   24.5830 O.2   500  COA500     -0.2224
     20  C4B       60.1350   19.0950   23.9640 C.3   500  COA500      0.1795
     21  O4B       61.1910   19.0710   22.9490 O.3   500  COA500     -0.3136
     22  C5B       59.2550   20.3450   23.6370 C.3   500  COA500      0.1812
     23  O5B       60.1260   21.4550   23.9060 O.3   500  COA500     -0.3112
     24  P1A       59.1300   22.7290   23.5490 P.3   500  COA500      0.2189
     25  O1A       59.7010   24.0700   24.1620 O.3   500  COA500     -0.4371
     26  O2A       57.6860   22.3390   23.9790 O.2   500  COA500     -0.5170
     27  O3A       59.1780   22.6700   21.8370 O.3   500  COA500     -0.2703
     28  P2A       58.2890   23.3000   20.5200 P.3   500  COA500      0.2188
     29  O4A       57.1140   24.0900   21.1170 O.3   500  COA500     -0.4371
     30  O5A       57.7410   22.1940   19.6170 O.2   500  COA500     -0.5170
     31  O6A       59.4540   24.2910   19.6970 O.3   500  COA500     -0.3138
     32  CBP       58.9960   26.4160   18.5060 C.3   500  COA500      0.0645
     33  CCP       59.2100   24.8890   18.3610 C.3   500  COA500      0.1519
     34  CDP       60.3720   26.9070   18.9740 C.3   500  COA500      0.0056
     35  CEP       57.8510   26.7840   19.4180 C.3   500  COA500      0.0056
     36  CAP       58.7790   27.0580   17.1500 C.3   500  COA500      0.2312
     37  OAP       57.4280   26.7950   16.8110 O.3   500  COA500     -0.2131
     38  C9P       58.7870   28.5570   17.2170 C.2   500  COA500      0.2719
     39  O9P       57.7270   28.9330   17.7930 O.2   500  COA500     -0.2706
     40  N8P       59.4060   29.3000   16.1590 N.am  500  COA500     -0.2028
     41  C7P       59.3450   30.7710   16.2690 C.3   500  COA500      0.1248
     42  C6P       60.0620   31.3680   15.0270 C.3   500  COA500      0.1102
     43  C5P       61.0430   32.2250   15.6090 C.2   500  COA500      0.2432
     44  O5P       61.9420   31.4490   15.9870 O.2   500  COA500     -0.2733
     45  N4P       61.0050   33.5180   16.1130 N.am  500  COA500     -0.2044
     46  C3P       62.0900   33.8160   17.0270 C.3   500  COA500      0.1276
     47  C2P       63.2410   34.2400   16.1970 C.3   500  COA500      0.0920
     48  S1P       62.2370   35.0370   14.8260 S.3   500  COA500     -0.0802
@<TRIPOS>BOND
     1    48    47    1
     2    42    43    1
     3    42    41    1
     4    43    44    2
     5    43    45   am
     6    45    46    1
     7    40    41    1
     8    40    38   am
     9    47    46    1
    10    37    36    1
    11    36    38    1
    12    36    32    1
    13    38    39    2
    14    33    32    1
    15    33    31    1
    16    32    34    1
    17    32    35    1
    18     7     6    1
    19    30    28    2
    20    31    28    1
    21    28    29    1
    22    28    27    1
    23     6     1    2
    24     6     5    1
    25     8     5    2
    26     8     9    1
    27     1     2    1
    28     5     4    1
    29     9    10    1
    30    27    24    1
    31     2     3    1
    32     4    10    1
    33     4     3    2
    34    10    11    1
    35    21    11    1
    36    21    20    1
    37    11    12    1
    38    24    23    1
    39    24    26    2
    40    24    25    1
    41    22    23    1
    42    22    20    1
    43    20    14    1
    44    13    12    1
    45    19    16    2
    46    12    14    1
    47    14    15    1
    48    18    16    1
    49    16    15    1
    50    16    17    1
