@<TRIPOS>MOLECULE
1mzn_BM6_A_1.pdb
 28 31 0 0 0
SMALL
GASTEIGER

@<TRIPOS>ATOM
      1  O1        -6.3260    1.6900   -5.8770 O.co2 200  BM6200     -0.2406
      2  O2        -8.1630    1.0080   -6.9440 O.co2 200  BM6200     -0.2406
      3  O3        -4.1500   -4.9470   -6.0740 O.3   200  BM6200     -0.3250
      4  O4        -4.8870   -4.5430   -4.0010 O.3   200  BM6200     -0.3250
      5  C1        -7.0000    0.8160   -6.3320 C.2   200  BM6200      0.3878
      6  C2        -6.5910   -0.5930   -6.2660 C.ar  200  BM6200      0.0798
      7  C3        -7.5660   -1.6030   -6.2390 C.ar  200  BM6200      0.0064
      8  C4        -7.1700   -2.9400   -6.0250 C.ar  200  BM6200      0.0009
      9  C5        -5.8120   -3.2690   -5.7830 C.ar  200  BM6200      0.0326
     10  C6        -4.8420   -2.2510   -5.9490 C.ar  200  BM6200      0.0009
     11  C7        -5.2220   -0.9160   -6.2040 C.ar  200  BM6200      0.0064
     12  C8        -5.3210   -4.6340   -5.3410 C.3   200  BM6200      0.2278
     13  C9        -6.3360   -5.7620   -5.4500 C.ar  200  BM6200      0.0323
     14  C10       -6.2980   -6.6390   -6.5570 C.ar  200  BM6200      0.0004
     15  C11       -7.1970   -7.7150   -6.6120 C.ar  200  BM6200     -0.0048
     16  C12       -8.1650   -7.9240   -5.6150 C.ar  200  BM6200     -0.0268
     17  C13       -8.2900   -6.9680   -4.5470 C.ar  200  BM6200     -0.0269
     18  C14       -7.3180   -5.9480   -4.4570 C.ar  200  BM6200     -0.0039
     19  C15       -9.3900   -7.0400   -3.4740 C.3   200  BM6200      0.0186
     20  C16      -10.4110   -8.1870   -3.7240 C.3   200  BM6200      0.0044
     21  C17       -9.8800   -9.4260   -4.4460 C.3   200  BM6200      0.0044
     22  C18       -9.0520   -9.1850   -5.7040 C.3   200  BM6200      0.0186
     23  C19       -3.2990   -5.7030   -5.2530 C.3   200  BM6200      0.1773
     24  C20       -3.7900   -5.4000   -3.8400 C.3   200  BM6200      0.1773
     25  C21      -10.2830   -5.7620   -3.4140 C.3   200  BM6200      0.0044
     26  C22       -8.6940   -7.1540   -2.1050 C.3   200  BM6200      0.0044
     27  C23       -8.1830  -10.4340   -5.8320 C.3   200  BM6200      0.0044
     28  C24       -9.9600   -9.1360   -6.9450 C.3   200  BM6200      0.0044
@<TRIPOS>BOND
     1    28    22    1
     2     2     5   ar
     3    15    14   ar
     4    15    16   ar
     5    14    13   ar
     6     5     6    1
     7     5     1   ar
     8     6     7   ar
     9     6    11   ar
    10     7     8   ar
    11    11    10   ar
    12     3    12    1
    13     3    23    1
    14     8     9   ar
    15    10     9   ar
    16    27    22    1
    17     9    12    1
    18    22    16    1
    19    22    21    1
    20    16    17   ar
    21    13    12    1
    22    13    18   ar
    23    12     4    1
    24    23    24    1
    25    17    18   ar
    26    17    19    1
    27    21    20    1
    28     4    24    1
    29    20    19    1
    30    19    25    1
    31    19    26    1
