@<TRIPOS>MOLECULE
1mzv_AMP_A_1.pdb
 23 25 0 0 0
SMALL
GASTEIGER

@<TRIPOS>ATOM
      1  P         10.9640   39.7900   69.0260 P.3   301  AMP301      0.5327
      2  O1P        9.6270   40.2470   69.4980 O.3   301  AMP301     -0.1145
      3  O2P       11.3560   38.4670   69.7490 O.3   301  AMP301     -0.1145
      4  O3P       12.0730   40.8040   69.1930 O.2   301  AMP301     -0.2224
      5  O5'       10.8750   39.5710   67.4480 O.3   301  AMP301     -0.2675
      6  C5'       10.2850   38.4120   66.9220 C.3   301  AMP301      0.1860
      7  C4'        9.3070   38.7820   65.8360 C.3   301  AMP301      0.1823
      8  O4'        9.9400   39.5960   64.8630 O.3   301  AMP301     -0.3135
      9  C3'        8.8670   37.4720   65.2030 C.3   301  AMP301      0.2184
     10  O3'        7.4720   37.4900   64.9500 O.3   301  AMP301     -0.2174
     11  C2'        9.7350   37.3710   63.9560 C.3   301  AMP301      0.2570
     12  O2'        8.9650   36.9860   62.8370 O.3   301  AMP301     -0.2130
     13  C1'       10.3400   38.7710   63.7820 C.3   301  AMP301      0.3186
     14  N9        11.8130   38.8150   63.6840 N.pl3 301  AMP301     -0.1439
     15  C8        12.6760   39.2950   64.6260 C.3   301  AMP301      0.3377
     16  N7        13.9370   39.2130   64.1550 N.2   301  AMP301     -0.2095
     17  C5        13.9130   38.6980   62.9290 C.2   301  AMP301      0.2526
     18  C6        14.9280   38.3960   62.0390 C.2   301  AMP301      0.4393
     19  N6        16.1880   38.6630   62.3520 N.pl3 301  AMP301      0.2180
     20  N1        14.6170   37.8420   60.8170 N.2   301  AMP301      0.0021
     21  C2        13.2940   37.5800   60.5050 C.3   301  AMP301      0.5254
     22  N3        12.2960   37.8800   61.4240 N.2   301  AMP301     -0.0055
     23  C4        12.5870   38.4400   62.6110 C.2   301  AMP301      0.3518
@<TRIPOS>BOND
     1    21    20    1
     2    21    22    1
     3    20    18    2
     4    22    23    2
     5    18    19    1
     6    18    17    1
     7    23    17    1
     8    23    14    1
     9    12    11    1
    10    17    16    2
    11    14    13    1
    12    14    15    1
    13    13    11    1
    14    13     8    1
    15    11     9    1
    16    16    15    1
    17     8     7    1
    18    10     9    1
    19     9     7    1
    20     7     6    1
    21     6     5    1
    22     5     1    1
    23     1     4    2
    24     1     2    1
    25     1     3    1
