@<TRIPOS>MOLECULE
1n03_ADP_A_1.pdb
 27 29 0 0 0
SMALL
GASTEIGER

@<TRIPOS>ATOM
      1  PB       -22.5330    3.8680  275.1570 P.3   501  ADP501      0.5373
      2  O1B      -21.2790    4.5870  275.5230 O.3   501  ADP501     -0.1143
      3  O2B      -22.4730    2.4110  275.0230 O.2   501  ADP501     -0.2221
      4  O3B      -23.5690    4.1070  276.2660 O.3   501  ADP501     -0.1143
      5  PA       -24.4190    5.2230  273.4380 P.3   501  ADP501      0.2231
      6  O1A      -25.6220    4.4740  273.8280 O.2   501  ADP501     -0.5169
      7  O2A      -24.2540    6.6230  273.8960 O.3   501  ADP501     -0.4370
      8  O3A      -23.1370    4.3600  273.7730 O.3   501  ADP501     -0.2261
      9  O5'      -24.2500    5.2760  271.8650 O.3   501  ADP501     -0.3111
     10  C5'      -24.4460    4.2260  270.9460 C.3   501  ADP501      0.1813
     11  C4'      -24.9660    4.7870  269.6230 C.3   501  ADP501      0.1821
     12  O4'      -26.2440    5.4490  269.7990 O.3   501  ADP501     -0.3135
     13  C3'      -24.0720    5.8470  268.9880 C.3   501  ADP501      0.2184
     14  O3'      -22.8980    5.3740  268.3000 O.3   501  ADP501     -0.2174
     15  C2'      -25.0950    6.5670  268.1270 C.3   501  ADP501      0.2570
     16  O2'      -25.6560    5.7830  267.0470 O.3   501  ADP501     -0.2130
     17  C1'      -26.2180    6.7170  269.1110 C.3   501  ADP501      0.3186
     18  N9       -26.0320    7.9230  269.9700 N.pl3 501  ADP501     -0.1439
     19  C8       -25.5520    8.0050  271.2740 C.3   501  ADP501      0.3377
     20  N7       -25.6420    9.1940  271.8070 N.2   501  ADP501     -0.2095
     21  C5       -26.1740    9.9690  270.7790 C.2   501  ADP501      0.2526
     22  C6       -26.5370   11.3130  270.7510 C.2   501  ADP501      0.4393
     23  N6       -26.3060   12.1110  271.8000 N.pl3 501  ADP501      0.2180
     24  N1       -27.1620   11.7460  269.6400 N.2   501  ADP501      0.0021
     25  C2       -27.3520   10.9020  268.6170 C.3   501  ADP501      0.5254
     26  N3       -27.0880    9.6040  268.5200 N.2   501  ADP501     -0.0055
     27  C4       -26.4630    9.2060  269.6650 C.2   501  ADP501      0.3518
@<TRIPOS>BOND
     1    16    15    1
     2    15    13    1
     3    15    17    1
     4    14    13    1
     5    26    25    1
     6    26    27    2
     7    25    24    1
     8    13    11    1
     9    17    12    1
    10    17    18    1
    11    11    12    1
    12    11    10    1
    13    24    22    2
    14    27    18    1
    15    27    21    1
    16    18    19    1
    17    22    21    1
    18    22    23    1
    19    21    20    2
    20    10     9    1
    21    19    20    1
    22     9     5    1
    23     5     8    1
    24     5     6    2
    25     5     7    1
    26     8     1    1
    27     3     1    2
    28     1     2    1
    29     1     4    1
