@<TRIPOS>MOLECULE
1n04_FUL_A_1.pdb
 11 11 0 0 0
SMALL
GASTEIGER

@<TRIPOS>ATOM
      1  C1        20.1310   31.1820   11.0520 C.3   691  FUL691      0.3023
      2  C2        19.3900   32.0920   10.1080 C.3   691  FUL691      0.2434
      3  O2        18.0200   31.7180   10.0500 O.3   691  FUL691     -0.2148
      4  C3        19.5260   33.5500   10.5720 C.3   691  FUL691      0.2198
      5  O3        19.6570   34.3830    9.4330 O.3   691  FUL691     -0.2174
      6  C4        20.7120   33.8650   11.5270 C.3   691  FUL691      0.2118
      7  O4        21.4380   34.9610   10.9960 O.3   691  FUL691     -0.2177
      8  C5        21.7200   32.7240   11.8470 C.3   691  FUL691      0.1509
      9  C6        23.1510   33.1670   11.5950 C.3   691  FUL691      0.0350
     10  O5        21.4980   31.5570   11.0370 O.3   691  FUL691     -0.3264
     11  O1        20.0220   29.8580   10.6580 O.3   691  FUL691     -0.1869
@<TRIPOS>BOND
     1     5     4    1
     2     3     2    1
     3     2     4    1
     4     2     1    1
     5     4     6    1
     6    11     1    1
     7     7     6    1
     8    10     1    1
     9    10     8    1
    10     6     8    1
    11     9     8    1
