@<TRIPOS>MOLECULE
1n06_ADP_A_1.pdb
 27 29 0 0 0
SMALL
GASTEIGER

@<TRIPOS>ATOM
      1  PB         1.9280    5.8000  -14.9630 P.3   201  ADP201      0.5373
      2  O1B        2.7540    5.2440  -13.8520 O.3   201  ADP201     -0.1143
      3  O2B        1.1200    6.9390  -14.4240 O.3   201  ADP201     -0.1143
      4  O3B        2.8930    6.3200  -16.1390 O.2   201  ADP201     -0.2221
      5  PA         1.5630    3.2560  -15.8340 P.3   201  ADP201      0.2231
      6  O1A        2.9480    3.2030  -16.3780 O.3   201  ADP201     -0.4370
      7  O2A        0.6750    2.5540  -16.7950 O.2   201  ADP201     -0.5169
      8  O3A        0.9080    4.7300  -15.6090 O.3   201  ADP201     -0.2261
      9  O5'        1.5370    2.4850  -14.4200 O.3   201  ADP201     -0.3111
     10  C5'        0.4290    2.5990  -13.5020 C.3   201  ADP201      0.1813
     11  C4'       -0.6090    1.4710  -13.7560 C.3   201  ADP201      0.1821
     12  O4'       -0.0810    0.1610  -13.5470 O.3   201  ADP201     -0.3135
     13  C3'       -1.8110    1.5140  -12.7990 C.3   201  ADP201      0.2184
     14  O3'       -2.7420    2.5520  -13.1340 O.3   201  ADP201     -0.2174
     15  C2'       -2.3660    0.0980  -12.8810 C.3   201  ADP201      0.2570
     16  O2'       -3.4830    0.0600  -13.7990 O.3   201  ADP201     -0.2130
     17  C1'       -1.1700   -0.7500  -13.3720 C.3   201  ADP201      0.3186
     18  N9        -0.6730   -1.7680  -12.4470 N.pl3 201  ADP201     -0.1439
     19  C8        -0.3530   -2.9970  -12.7530 C.3   201  ADP201      0.3377
     20  N7         0.0700   -3.6570  -11.7530 N.2   201  ADP201     -0.2095
     21  C5         0.0550   -2.8740  -10.6550 C.2   201  ADP201      0.2526
     22  C6         0.4120   -3.0440   -9.3050 C.2   201  ADP201      0.4393
     23  N6         0.8860   -4.1950   -8.8210 N.pl3 201  ADP201      0.2180
     24  N1         0.2480   -1.9710   -8.4720 N.2   201  ADP201      0.0021
     25  C2        -0.2310   -0.7620   -8.9130 C.3   201  ADP201      0.5254
     26  N3        -0.5700   -0.5840  -10.2200 N.2   201  ADP201     -0.0055
     27  C4        -0.4290   -1.6280  -11.0920 C.2   201  ADP201      0.3518
@<TRIPOS>BOND
     1     7     5    2
     2     6     5    1
     3     4     1    2
     4     5     8    1
     5     5     9    1
     6     8     1    1
     7     1     3    1
     8     1     2    1
     9     9    10    1
    10    16    15    1
    11    11    12    1
    12    11    10    1
    13    11    13    1
    14    12    17    1
    15    17    15    1
    16    17    18    1
    17    14    13    1
    18    15    13    1
    19    19    18    1
    20    19    20    1
    21    18    27    1
    22    20    21    2
    23    27    21    1
    24    27    26    2
    25    21    22    1
    26    26    25    1
    27    22    23    1
    28    22    24    2
    29    25    24    1
