@<TRIPOS>MOLECULE
1n07_FMN_A_1.pdb
 31 33 0 0 0
SMALL
GASTEIGER

@<TRIPOS>ATOM
      1  N1         9.5260    9.8070   -4.2250 N.2   165  FMN165     -0.2890
      2  C2        10.2980   10.6180   -3.4480 C.1   165  FMN165      0.3669
      3  O2        10.7520   11.6610   -3.8230 O.2   165  FMN165     -0.1744
      4  N3        10.6050   10.2040   -2.1050 N.2   165  FMN165     -0.2300
      5  C4        10.1720    9.0560   -1.5200 C.1   165  FMN165      0.2513
      6  O4        10.5240    8.7710   -0.3650 O.2   165  FMN165     -0.2057
      7  C4A        9.3450    8.1830   -2.3640 C.2   165  FMN165      0.2700
      8  N5         8.8160    7.0710   -1.8740 N.2   165  FMN165     -0.3878
      9  C5A        7.9090    6.3780   -2.6320 C.2   165  FMN165      0.1320
     10  C6         7.2270    5.2140   -2.0610 C.2   165  FMN165      0.0250
     11  C7         6.4160    4.3890   -2.7880 C.2   165  FMN165     -0.0238
     12  C7M        5.7120    3.1770   -2.1430 C.3   165  FMN165      0.0308
     13  C8         6.0000    4.8060   -4.1340 C.2   165  FMN165     -0.0280
     14  C8M        4.9900    4.0060   -4.9200 C.3   165  FMN165      0.0304
     15  C9         6.6660    5.8920   -4.7130 C.2   165  FMN165     -0.0041
     16  C9A        7.5980    6.6950   -4.0250 C.3   165  FMN165      0.1497
     17  N10        8.2950    7.8300   -4.5650 N.pl3 165  FMN165     -0.2691
     18  C10        9.0450    8.6630   -3.7500 C.2   165  FMN165      0.2416
     19  C1'        8.1080    8.2570   -5.9860 C.3   165  FMN165      0.1294
     20  C2'        7.0450    9.2460   -6.3880 C.3   165  FMN165      0.2044
     21  O2'        5.7110    8.8100   -6.0880 O.3   165  FMN165     -0.2185
     22  C3'        7.2580    9.4220   -7.9240 C.3   165  FMN165      0.2164
     23  O3'        7.8130   10.7460   -8.1600 O.3   165  FMN165     -0.2175
     24  C4'        6.0830    9.2550   -8.8670 C.3   165  FMN165      0.2147
     25  O4'        6.6460    9.1940  -10.2070 O.3   165  FMN165     -0.2176
     26  C5'        5.1170   10.4120   -8.9060 C.3   165  FMN165      0.1892
     27  O5'        3.9070   10.0960   -9.6500 O.3   165  FMN165     -0.2674
     28  P          3.8580    9.9720  -11.2340 P.3   165  FMN165      0.5327
     29  O1P        4.6980    8.7820  -11.6400 O.3   165  FMN165     -0.1145
     30  O2P        4.3290   11.2710  -11.8260 O.2   165  FMN165     -0.2224
     31  O3P        2.3490    9.6490  -11.5390 O.3   165  FMN165     -0.1145
@<TRIPOS>BOND
     1    30    28    2
     2    29    28    1
     3    31    28    1
     4    28    27    1
     5    25    24    1
     6    27    26    1
     7    26    24    1
     8    24    22    1
     9    23    22    1
    10    22    20    1
    11    20    21    1
    12    20    19    1
    13    19    17    1
    14    14    13    1
    15    15    13    2
    16    15    16    1
    17    17    16    1
    18    17    18    1
    19     1    18    2
    20     1     2    2
    21    13    11    1
    22    16     9    1
    23     3     2    2
    24    18     7    1
    25     2     4    2
    26    11    12    1
    27    11    10    2
    28     9    10    1
    29     9     8    2
    30     7     8    2
    31     7     5    1
    32     4     5    2
    33     5     6    2
