@<TRIPOS>MOLECULE
1n07_ADP_A_1.pdb
 27 29 0 0 0
SMALL
GASTEIGER

@<TRIPOS>ATOM
      1  PB         0.9180    6.0520  -14.9270 P.3   164  ADP164      0.5373
      2  O1B        0.6160    5.8980  -13.4680 O.3   164  ADP164     -0.1143
      3  O2B       -0.2480    6.7410  -15.5550 O.2   164  ADP164     -0.2221
      4  O3B        2.2360    6.9460  -15.0980 O.3   164  ADP164     -0.1143
      5  PA         2.3690    3.7460  -15.0370 P.3   164  ADP164      0.2231
      6  O1A        3.1710    4.3510  -13.9470 O.3   164  ADP164     -0.4370
      7  O2A        3.2920    3.3550  -16.1430 O.2   164  ADP164     -0.5169
      8  O3A        1.1920    4.6620  -15.7030 O.3   164  ADP164     -0.2261
      9  O5'        1.7060    2.4420  -14.4490 O.3   164  ADP164     -0.3111
     10  C5'        0.6840    2.5470  -13.4940 C.3   164  ADP164      0.1813
     11  C4'       -0.3400    1.4640  -13.7940 C.3   164  ADP164      0.1821
     12  O4'        0.1770    0.1370  -13.6580 O.3   164  ADP164     -0.3135
     13  C3'       -1.5220    1.4810  -12.8220 C.3   164  ADP164      0.2184
     14  O3'       -2.4150    2.5410  -13.1480 O.3   164  ADP164     -0.2174
     15  C2'       -2.1070    0.0830  -12.9590 C.3   164  ADP164      0.2570
     16  O2'       -3.2210    0.1270  -13.8760 O.3   164  ADP164     -0.2130
     17  C1'       -0.9160   -0.7750  -13.5060 C.3   164  ADP164      0.3186
     18  N9        -0.4200   -1.8330  -12.6220 N.pl3 164  ADP164     -0.1439
     19  C8        -0.1800   -3.0730  -12.9620 C.3   164  ADP164      0.3377
     20  N7         0.2460   -3.7720  -12.0030 N.2   164  ADP164     -0.2095
     21  C5         0.3360   -3.0030  -10.9000 C.2   164  ADP164      0.2526
     22  C6         0.7350   -3.2260   -9.5570 C.2   164  ADP164      0.4393
     23  N6         1.1810   -4.4130   -9.1220 N.pl3 164  ADP164      0.2180
     24  N1         0.6730   -2.1580   -8.6960 N.2   164  ADP164      0.0021
     25  C2         0.2210   -0.9180   -9.0900 C.3   164  ADP164      0.5254
     26  N3        -0.1680   -0.6910  -10.3920 N.2   164  ADP164     -0.0055
     27  C4        -0.1280   -1.7300  -11.2840 C.2   164  ADP164      0.3518
@<TRIPOS>BOND
     1     7     5    2
     2     8     5    1
     3     8     1    1
     4     3     1    2
     5     4     1    1
     6     5     9    1
     7     5     6    1
     8     1     2    1
     9     9    10    1
    10    16    15    1
    11    11    12    1
    12    11    10    1
    13    11    13    1
    14    12    17    1
    15    17    15    1
    16    17    18    1
    17    14    13    1
    18    19    18    1
    19    19    20    1
    20    15    13    1
    21    18    27    1
    22    20    21    2
    23    27    21    1
    24    27    26    2
    25    21    22    1
    26    26    25    1
    27    22    23    1
    28    22    24    2
    29    25    24    1
