@<TRIPOS>MOLECULE
1n08_ADP_A_1.pdb
 27 29 0 0 0
SMALL
GASTEIGER

@<TRIPOS>ATOM
      1  PB        -0.1010    5.9330  -14.4530 P.3   301  ADP301      0.5373
      2  O1B       -0.3110    5.5640  -13.0270 O.3   301  ADP301     -0.1143
      3  O2B       -1.4040    6.4580  -14.9700 O.2   301  ADP301     -0.2221
      4  O3B        1.0280    7.0580  -14.5430 O.3   301  ADP301     -0.1143
      5  PA         1.3650    3.6280  -14.7210 P.3   301  ADP301      0.2231
      6  O1A        1.9820    4.0070  -13.4150 O.3   301  ADP301     -0.4370
      7  O2A        2.4560    3.3120  -15.6900 O.2   301  ADP301     -0.5169
      8  O3A        0.3880    4.7280  -15.4280 O.3   301  ADP301     -0.2261
      9  O5'        0.4960    2.3260  -14.4930 O.3   301  ADP301     -0.3111
     10  C5'       -0.5130    2.3740  -13.5040 C.3   301  ADP301      0.1813
     11  C4'       -1.5340    1.2930  -13.7750 C.3   301  ADP301      0.1821
     12  O4'       -0.9600   -0.0360  -13.6490 O.3   301  ADP301     -0.3135
     13  C3'       -2.6550    1.2650  -12.7570 C.3   301  ADP301      0.2184
     14  O3'       -3.6150    2.3340  -12.9640 O.3   301  ADP301     -0.2174
     15  C2'       -3.2080   -0.1430  -12.9010 C.3   301  ADP301      0.2570
     16  O2'       -4.3020   -0.0700  -13.8530 O.3   301  ADP301     -0.2130
     17  C1'       -2.0140   -0.9600  -13.4450 C.3   301  ADP301      0.3186
     18  N9        -1.4600   -1.9830  -12.5400 N.pl3 301  ADP301     -0.1439
     19  C8        -1.1280   -3.2140  -12.8720 C.3   301  ADP301      0.3377
     20  N7        -0.6630   -3.8640  -11.8870 N.2   301  ADP301     -0.2095
     21  C5        -0.6380   -3.0700  -10.7890 C.2   301  ADP301      0.2526
     22  C6        -0.2460   -3.2410   -9.4480 C.2   301  ADP301      0.4393
     23  N6         0.2800   -4.3850   -8.9720 N.pl3 301  ADP301      0.2180
     24  N1        -0.3890   -2.1640   -8.6050 N.2   301  ADP301      0.0021
     25  C2        -0.9110   -0.9660   -9.0300 C.3   301  ADP301      0.5254
     26  N3        -1.2990   -0.7870  -10.3300 N.2   301  ADP301     -0.0055
     27  C4        -1.1700   -1.8400  -11.2080 C.2   301  ADP301      0.3518
@<TRIPOS>BOND
     1     7     5    2
     2     8     5    1
     3     8     1    1
     4     3     1    2
     5     5     9    1
     6     5     6    1
     7     4     1    1
     8     9    10    1
     9     1     2    1
    10    16    15    1
    11    11    12    1
    12    11    10    1
    13    11    13    1
    14    12    17    1
    15    17    15    1
    16    17    18    1
    17    14    13    1
    18    15    13    1
    19    19    18    1
    20    19    20    1
    21    18    27    1
    22    20    21    2
    23    27    21    1
    24    27    26    2
    25    21    22    1
    26    26    25    1
    27    22    23    1
    28    22    24    2
    29    25    24    1
