@<TRIPOS>MOLECULE
1n0h_TPP_B_1.pdb
 26 27 0 0 0
SMALL
GASTEIGER

@<TRIPOS>ATOM
      1  N1'       18.8200  118.4520   49.1740 N.2   1702  TPP1702    -0.1861
      2  C2'       18.3040  117.7610   48.0510 C.1   1702  TPP1702     0.0663
      3  CM2       17.2550  116.7150   48.1440 C.3   1702  TPP1702     0.1291
      4  N3'       18.7810  118.0570   46.8080 N.2   1702  TPP1702    -0.3368
      5  C4'       19.7990  119.0550   46.5900 C.2   1702  TPP1702     0.2292
      6  N4'       20.1920  119.2620   45.3150 N.pl3 1702  TPP1702    -0.0925
      7  C5'       20.3830  119.8190   47.7450 C.2   1702  TPP1702     0.0654
      8  C6'       19.8390  119.4680   49.0740 C.2   1702  TPP1702     0.1115
      9  C7'       21.4630  120.8990   47.6560 C.3   1702  TPP1702     0.1237
     10  N3        22.7600  120.4000   47.0670 N.pl3 1702  TPP1702    -0.2970
     11  C2        22.9150  120.5030   45.7470 C.3   1702  TPP1702     0.1543
     12  S1        24.4530  119.8840   45.1500 S.3   1702  TPP1702    -0.0951
     13  C5        24.9070  119.4650   46.8160 C.2   1702  TPP1702     0.0164
     14  C4        23.8390  119.8290   47.7470 C.2   1702  TPP1702     0.0279
     15  CM4       23.8420  119.6320   49.2790 C.3   1702  TPP1702     0.0473
     16  C6        26.2390  118.8160   47.1660 C.3   1702  TPP1702     0.0661
     17  C7        26.5980  117.4260   47.7490 C.3   1702  TPP1702     0.1544
     18  O7        26.7790  115.9750   47.1190 O.3   1702  TPP1702    -0.3134
     19  PA        27.7200  114.8000   47.0970 P.3   1702  TPP1702     0.2230
     20  O1A       28.4930  114.6340   48.2990 O.3   1702  TPP1702    -0.4370
     21  O2A       26.9370  113.6340   46.8700 O.2   1702  TPP1702    -0.5169
     22  O3A       28.7960  114.9330   45.9460 O.3   1702  TPP1702    -0.2261
     23  PB        29.9740  115.9330   45.5510 P.3   1702  TPP1702     0.5373
     24  O1B       29.3510  117.1790   45.1410 O.3   1702  TPP1702    -0.1143
     25  O2B       30.6440  115.1740   44.5230 O.2   1702  TPP1702    -0.2221
     26  O3B       30.7760  116.0150   46.7810 O.3   1702  TPP1702    -0.1143
@<TRIPOS>BOND
     1    25    23    2
     2    24    23    1
     3    12    11    1
     4    12    13    1
     5     6     5    1
     6    23    22    1
     7    23    26    1
     8    11    10    1
     9    22    19    1
    10     5     4    2
    11     5     7    1
    12     4     2    2
    13    13    16    1
    14    13    14    2
    15    21    19    2
    16    10     9    1
    17    10    14    1
    18    19    18    1
    19    19    20    1
    20    18    17    1
    21    16    17    1
    22     9     7    1
    23     7     8    2
    24    14    15    1
    25     2     3    1
    26     2     1    2
    27     8     1    1
