@<TRIPOS>MOLECULE
1n0h_CIE_A_1.pdb
 27 28 0 0 0
SMALL
GASTEIGER

@<TRIPOS>ATOM
      1  C1       -10.7680  105.9940   54.1380 C.ar  695  CIE695      0.0553
      2  C2       -11.9590  105.2190   54.5200 C.ar  695  CIE695      0.1280
      3  C3       -13.0240  105.8100   55.3380 C.ar  695  CIE695      0.0201
      4  C4       -12.9100  107.1850   55.7860 C.ar  695  CIE695      0.0014
      5  C5       -11.7530  107.9820   55.4340 C.ar  695  CIE695     -0.0001
      6  C6       -10.6960  107.3960   54.6220 C.ar  695  CIE695      0.0020
      7  C7        -9.7540  105.2480   53.2840 C.3   695  CIE695      0.2938
      8  O7        -9.6690  105.6110   52.1250 O.3   695  CIE695     -0.1846
      9  O8        -8.5200  105.3170   54.0010 O.3   695  CIE695     -0.3252
     10  C9        -7.4950  104.4300   53.4960 C.3   695  CIE695      0.1453
     11  C10       -6.2380  104.5690   54.3330 C.3   695  CIE695      0.0348
     12  S11      -12.4270  103.5200   54.1550 S.O2  695  CIE695      0.0965
     13  OBA      -13.2790  102.9190   55.3740 O.2   695  CIE695     -0.1482
     14  OBB      -12.8210  103.4680   52.7030 O.2   695  CIE695     -0.1482
     15  N12      -10.9430  102.6530   54.0420 N.am  695  CIE695     -0.0392
     16  C13      -10.1280  102.4280   55.0730 C.2   695  CIE695      0.3753
     17  O13      -10.4100  102.8500   56.2000 O.2   695  CIE695     -0.2463
     18  N14       -9.0070  101.7580   54.8580 N.am  695  CIE695     -0.0690
     19  N1'       -7.9060  101.6490   56.7800 N.2   695  CIE695     -0.2932
     20  C2'       -7.9350  101.3270   55.4770 C.1   695  CIE695      0.2316
     21  N3'       -6.9490  100.6170   54.8370 N.2   695  CIE695     -0.3189
     22  C4'       -5.8430  100.2070   55.5850 C.2   695  CIE695      0.1901
     23 CL4'       -4.5550   99.3020   54.7970 Cl    695  CIE695     -0.0510
     24  C5'       -5.7270  100.5120   57.0020 C.3   695  CIE695      0.1716
     25  C6'       -6.8640  101.2790   57.5490 C.2   695  CIE695      0.2730
     26  O7'       -6.8390  101.6070   58.8740 O.2   695  CIE695     -0.4499
     27  C8'       -6.1270  101.5190   60.0660 C.3   695  CIE695      0.2550
@<TRIPOS>BOND
     1     8     7    1
     2    14    12    2
     3     7     9    1
     4     7     1    1
     5    10     9    1
     6    10    11    1
     7    15    12    1
     8    15    16   am
     9     1     2   ar
    10     1     6   ar
    11    12     2    1
    12    12    13    2
    13     2     3   ar
    14     6     5   ar
    15    23    22    1
    16    21    20    2
    17    21    22    2
    18    18    16   am
    19    18    20    1
    20    16    17    2
    21     3     4   ar
    22     5     4   ar
    23    20    19    2
    24    22    24    1
    25    19    25    2
    26    24    25    1
    27    25    26    1
    28    26    27    1
