@<TRIPOS>MOLECULE
1n0h_AYD_A_1.pdb
 24 24 0 0 0
SMALL
GASTEIGER

@<TRIPOS>ATOM
      1  N1'        3.7810  105.2750   52.5420 N.2   700  AYD700     -0.1861
      2  C2'        3.9310  106.0770   53.7010 C.1   700  AYD700      0.0663
      3  CM2        5.0390  107.0350   53.8640 C.3   700  AYD700      0.1291
      4  N3'        3.0170  105.9770   54.7370 N.2   700  AYD700     -0.3368
      5  C4'        1.8850  105.0650   54.6820 C.2   700  AYD700      0.2293
      6  N4'        1.0390  105.0320   55.7400 N.pl3 700  AYD700     -0.0925
      7  C5'        1.6820  104.1890   53.4610 C.2   700  AYD700      0.0671
      8  C6'        2.6930  104.3370   52.3840 C.2   700  AYD700      0.1116
      9  C7'        0.4830  103.1870   53.3360 C.3   700  AYD700      0.1437
     10  N3        -0.0090  102.3780   54.5630 N.pl3 700  AYD700     -0.2372
     11  C5         0.9930  101.0920   56.6360 C.2   700  AYD700     -0.0118
     12  C4         0.8390  101.3590   55.0960 C.2   700  AYD700      0.0396
     13  CM4        1.6090  100.5080   54.1360 C.3   700  AYD700      0.0485
     14  C6         1.8420  100.0620   57.3700 C.3   700  AYD700      0.0595
     15  C7         2.8770   98.8800   57.1660 C.3   700  AYD700      0.1538
     16  O7         4.1400   98.0650   57.7110 O.3   700  AYD700     -0.3135
     17  PA         5.1220   97.9780   58.8440 P.3   700  AYD700      0.2230
     18  O1A        6.0970   96.9580   58.7020 O.2   700  AYD700     -0.5169
     19  O2A        5.8270   99.1490   58.9960 O.3   700  AYD700     -0.4370
     20  O3A        4.3580   97.6200   60.1600 O.3   700  AYD700     -0.2261
     21  PB         3.4190   96.4550   60.6300 P.3   700  AYD700      0.5373
     22  O1B        2.0900   96.9400   60.3600 O.3   700  AYD700     -0.1143
     23  O2B        3.7640   96.2950   62.0120 O.3   700  AYD700     -0.1143
     24  O3B        3.8810   95.3290   59.8000 O.2   700  AYD700     -0.2221
@<TRIPOS>BOND
     1     8     1    1
     2     8     7    2
     3     1     2    2
     4     9     7    1
     5     9    10    1
     6     7     5    1
     7     2     3    1
     8     2     4    2
     9    13    12    1
    10    10    12    1
    11     5     4    2
    12     5     6    1
    13    12    11    2
    14    11    14    1
    15    15    14    1
    16    15    16    1
    17    16    17    1
    18    18    17    2
    19    17    19    1
    20    17    20    1
    21    24    21    2
    22    20    21    1
    23    22    21    1
    24    21    23    1
