@<TRIPOS>MOLECULE
1n0s_FLU_A_1.pdb
 25 28 0 0 0
SMALL
GASTEIGER

@<TRIPOS>ATOM
      1  C1         6.5950   75.0230   53.2010 C.2   500  FLU500      0.1807
      2  O1         6.2580   74.2370   54.1230 O.2   500  FLU500     -0.2909
      3  C2         6.4230   74.6230   51.8730 C.3   500  FLU500      0.1334
      4  C3         6.7730   75.4750   50.8730 C.2   500  FLU500      0.1304
      5  O2         6.5590   74.9870   49.5890 O.2   500  FLU500     -0.4575
      6  C4         6.8010   75.7850   48.5050 C.2   500  FLU500      0.1443
      7  C5         6.5470   75.1990   47.2800 C.2   500  FLU500      0.0788
      8  C6         6.7500   75.9420   46.1210 C.2   500  FLU500      0.1949
      9  O3         6.5000   75.4000   44.9420 O.2   500  FLU500     -0.2868
     10  C7         7.2500   77.2670   46.2690 C.2   500  FLU500      0.0208
     11  C8         7.4870   77.8420   47.5020 C.3   500  FLU500      0.0587
     12  C9         7.2630   77.1010   48.6970 C.2   500  FLU500      0.0170
     13  C10        7.5400   77.5860   50.0160 C.2   500  FLU500      0.0021
     14  C11        7.2480   76.7810   51.0990 C.2   500  FLU500      0.0307
     15  C12        7.4190   77.1740   52.4810 C.2   500  FLU500      0.0056
     16  C13        7.0810   76.3450   53.4880 C.2   500  FLU500      0.0380
     17  C14        7.9550   79.0250   50.1830 C.ar  500  FLU500      0.0063
     18  C15        6.9800   79.9180   50.5880 C.ar  500  FLU500      0.0002
     19  C16        7.2780   81.2620   50.7380 C.ar  500  FLU500      0.0000
     20  C17        8.5120   81.7690   50.4130 C.ar  500  FLU500      0.0002
     21  C18        9.4790   80.8850   49.9720 C.ar  500  FLU500      0.0066
     22  C19        9.2090   79.5260   49.8470 C.ar  500  FLU500      0.0798
     23  C20       10.2710   78.6140   49.3530 C.2   500  FLU500      0.3878
     24  O4        11.0030   79.0420   48.4680 O.co2 500  FLU500     -0.2406
     25  O5        10.3220   77.4870   49.8490 O.co2 500  FLU500     -0.2406
@<TRIPOS>BOND
     1     9     8    1
     2     8    10    2
     3     8     7    1
     4    10    11    1
     5     7     6    2
     6    11    12    1
     7    24    23   ar
     8     6    12    1
     9     6     5    1
    10    12    13    2
    11    23    22    1
    12    23    25   ar
    13     5     4    1
    14    22    21   ar
    15    22    17   ar
    16    21    20   ar
    17    13    17    1
    18    13    14    1
    19    17    18   ar
    20    20    19   ar
    21    18    19   ar
    22     4    14    2
    23     4     3    1
    24    14    15    1
    25     3     1    1
    26    15    16    2
    27     1    16    1
    28     1     2    2
