@<TRIPOS>MOLECULE
1n0t_AT1_A_1.pdb
 21 21 0 0 0
SMALL
GASTEIGER

@<TRIPOS>ATOM
      1  N          8.0150   32.9430   -2.9770 N.3   264  AT1264     -0.1205
      2  C          6.8140   30.7370   -2.6580 C.3   264  AT1264      0.0646
      3  O          8.4400   32.1850   -5.4490 O.co2 264  AT1264     -0.2440
      4  C1         8.0960   31.4250   -3.1610 C.3   264  AT1264      0.1989
      5  C2         8.3520   31.1560   -4.6900 C.2   264  AT1264      0.3822
      6  O1         8.4580   29.9620   -5.0600 O.co2 264  AT1264     -0.2440
      7  O2         6.2840   30.7320    1.0260 O.2   264  AT1264     -0.3552
      8  O3         8.3920   28.9040   -1.0120 O.3   264  AT1264     -0.4504
      9  N1         7.2870   29.7450    0.8810 N.ar  264  AT1264     -0.0395
     10  C3         4.8570   32.3230   -0.0980 C.3   264  AT1264      0.0536
     11  C4         9.1760   27.9820   -0.1920 C.3   264  AT1264      0.2643
     12  C5         7.5080   29.7090   -0.4080 C.ar  264  AT1264      0.2600
     13  C6         6.7050   30.6280   -1.1620 C.ar  264  AT1264      0.0687
     14  C7         5.9460   31.2470   -0.1910 C.ar  264  AT1264      0.1527
     15  C9         3.5040   31.5980    0.0510 C.3   264  AT1264      0.0076
     16  C10        5.0920   33.2060    1.1300 C.3   264  AT1264      0.0076
     17  C11        4.7750   33.2270   -1.3290 C.3   264  AT1264      0.0076
     18  P         10.8860   28.5520   -0.1840 P.3   264  AT1264      0.1615
     19  O4        10.9570   29.9690    0.2740 O.3   264  AT1264     -0.3547
     20  O5        11.6020   27.5460    0.6740 O.3   264  AT1264     -0.3547
     21  O6        11.3900   28.3560   -1.6550 O.2   264  AT1264     -0.4564
@<TRIPOS>BOND
     1     3     5   ar
     2     6     5   ar
     3     5     4    1
     4     4     1    1
     5     4     2    1
     6     2    13    1
     7    21    18    2
     8    17    10    1
     9    13    12   ar
    10    13    14   ar
    11     8    12    1
    12     8    11    1
    13    12     9   ar
    14    11    18    1
    15    14    10    1
    16    14     7   ar
    17    18    19    1
    18    18    20    1
    19    10    15    1
    20    10    16    1
    21     9     7   ar
