@<TRIPOS>MOLECULE
1n0u_SO1_A_1.pdb
 35 39 0 0 0
SMALL
GASTEIGER

@<TRIPOS>ATOM
      1  O14       73.5780   56.4450   17.8940 O.co2 843  SO1843     -0.2457
      2  C5        74.7810   56.1340   18.0310 C.2   843  SO1843      0.3643
      3  O15       75.7690   56.9160   18.0860 O.co2 843  SO1843     -0.2457
      4  C1        75.0880   54.5970   18.1300 C.3   843  SO1843      0.1025
      5  C4        75.6900   54.0340   16.7740 C.3   843  SO1843      0.0107
      6  C12       75.5400   52.6650   16.8680 C.3   843  SO1843      0.0006
      7  C6        74.9070   52.4090   18.2170 C.3   843  SO1843      0.0033
      8  C10       76.0400   52.6070   19.2760 C.3   843  SO1843      0.0080
      9  C3        76.0060   54.1740   19.4040 C.3   843  SO1843      0.0681
     10  C11       77.4090   54.7920   19.2660 C.2   843  SO1843      0.2071
     11  O19       78.4330   54.1740   19.0560 O.2   843  SO1843     -0.2883
     12  C9        75.2860   54.7010   20.7060 C.3   843  SO1843      0.0075
     13  C18       75.9060   54.5300   22.0760 C.3   843  SO1843      0.0004
     14  C24       74.7430   54.9410   22.9870 C.3   843  SO1843      0.0000
     15  C22       73.4380   54.5230   22.2550 C.3   843  SO1843      0.0000
     16  C25       72.5480   55.7540   22.0350 C.3   843  SO1843      0.0000
     17  C16       73.9770   53.8780   20.9560 C.3   843  SO1843      0.0005
     18  C7        73.0930   53.8050   19.7130 C.3   843  SO1843      0.0030
     19  C2        73.8990   53.6000   18.3410 C.3   843  SO1843      0.0376
     20  C8        72.7480   53.5740   17.2740 C.3   843  SO1843      0.1453
     21  O17       72.0730   52.3450   17.3850 O.3   843  SO1843     -0.3286
     22  C52       70.9840   52.2120   16.5240 C.3   843  SO1843      0.2694
     23  O56       70.0070   53.2670   16.7900 O.3   843  SO1843     -0.3285
     24  C56       68.9220   53.2750   15.8440 C.3   843  SO1843      0.1475
     25  C61       68.0010   54.4470   16.2080 C.3   843  SO1843      0.0348
     26  C55       68.1750   51.9010   15.8900 C.3   843  SO1843      0.1752
     27  O64       67.0910   51.8670   14.9390 O.3   843  SO1843     -0.3484
     28  C65       65.8060   51.6550   15.5250 C.3   843  SO1843      0.1742
     29  C54       69.1510   50.7520   15.5710 C.3   843  SO1843      0.2165
     30  O60       69.6330   50.8670   14.2330 O.3   843  SO1843     -0.2175
     31  C53       70.3440   50.7920   16.5400 C.3   843  SO1843      0.2404
     32  O57       69.8840   50.4540   17.8470 O.3   843  SO1843     -0.2149
     33  C13       76.3000   54.8350   15.6410 C.3   843  SO1843      0.0005
     34  C20       77.4120   54.0600   14.9040 C.3   843  SO1843      0.0000
     35  C21       75.2290   55.2730   14.6170 C.3   843  SO1843      0.0000
@<TRIPOS>BOND
     1    30    29    1
     2    35    33    1
     3    34    33    1
     4    27    28    1
     5    27    26    1
     6    29    26    1
     7    29    31    1
     8    33     5    1
     9    24    26    1
    10    24    25    1
    11    24    23    1
    12    22    31    1
    13    22    23    1
    14    22    21    1
    15    31    32    1
    16     5     6    1
    17     5     4    1
    18     6     7    1
    19    20    21    1
    20    20    19    1
    21     1     2   ar
    22     2     3   ar
    23     2     4    1
    24     4    19    1
    25     4     9    1
    26     7    19    1
    27     7     8    1
    28    19    18    1
    29    11    10    2
    30    10     9    1
    31     8     9    1
    32     9    12    1
    33    18    17    1
    34    12    17    1
    35    12    13    1
    36    17    15    1
    37    16    15    1
    38    13    14    1
    39    15    14    1
