@<TRIPOS>MOLECULE
1n15_HEC_A_1.pdb
 43 50 0 0 0
SMALL
GASTEIGER

@<TRIPOS>ATOM
      1 FE         42.8890    9.9800    7.0020 Fe    601  HEC601      0.0000
      2  CHA       42.6320    6.6490    7.1670 C.2   601  HEC601      0.0000
      3  CHB       45.8890    9.8530    8.5520 C.2   601  HEC601      0.0000
      4  CHC       43.3060   13.3180    6.5930 C.2   601  HEC601      0.0000
      5  CHD       39.6980   10.2690    5.8860 C.2   601  HEC601      0.0000
      6  NA        44.0320    8.5420    7.6540 N.2   601  HEC601      0.0000
      7  C1A       43.7980    7.2040    7.6170 C.2   601  HEC601      0.0000
      8  C2A       44.8940    6.4840    8.1410 C.2   601  HEC601      0.0000
      9  C3A       45.8240    7.3740    8.5190 C.2   601  HEC601      0.0000
     10  C4A       45.2680    8.6560    8.2370 C.2   601  HEC601      0.0000
     11  CMA       47.1820    7.0980    9.1310 C.3   601  HEC601      0.0000
     12  CAA       45.0410    4.9750    8.1520 C.3   601  HEC601      0.0000
     13  CBA       44.3460    4.3340    9.3270 C.3   601  HEC601      0.0000
     14  CGA       44.7200    2.8720    9.4880 C.2   601  HEC601      0.0000
     15  O1A       44.2000    2.0370    8.7200 O.co2 601  HEC601      0.0000
     16  O2A       45.5380    2.5740   10.3830 O.co2 601  HEC601      0.0000
     17  NB        44.2250   11.3090    7.5590 N.ar  601  HEC601      0.0000
     18  C1B       45.3960   11.1080    8.2560 C.ar  601  HEC601      0.0000
     19  C2B       46.2040   12.2960    8.3540 C.ar  601  HEC601      0.0000
     20  C3B       45.5210   13.2390    7.6770 C.ar  601  HEC601      0.0000
     21  C4B       44.2880   12.6380    7.2410 C.ar  601  HEC601      0.0000
     22  CMB       47.4840   12.4030    9.1540 C.3   601  HEC601      0.0000
     23  CAB       45.8060   14.7210    7.5210 C.3   601  HEC601      0.0000
     24  CBB       47.1250   15.2930    7.0080 C.3   601  HEC601      0.0000
     25  NC        41.7900   11.4660    6.3150 N.2   601  HEC601      0.0000
     26  C1C       42.1410   12.7820    6.1220 C.2   601  HEC601      0.0000
     27  C2C       41.0220   13.5530    5.5740 C.2   601  HEC601      0.0000
     28  C3C       39.9870   12.6850    5.4470 C.2   601  HEC601      0.0000
     29  C4C       40.4450   11.4280    5.9410 C.2   601  HEC601      0.0000
     30  CMC       41.0440   15.0670    5.3150 C.3   601  HEC601      0.0000
     31  CAC       38.6000   12.9980    4.9940 C.3   601  HEC601      0.0000
     32  CBC       38.2320   13.8970    3.7600 C.3   601  HEC601      0.0000
     33  ND        41.4870    8.7070    6.5210 N.ar  601  HEC601      0.0000
     34  C1D       40.1840    8.9790    6.0930 C.ar  601  HEC601      0.0000
     35  C2D       39.4130    7.7520    5.9340 C.ar  601  HEC601      0.0000
     36  C3D       40.2260    6.7550    6.3010 C.ar  601  HEC601      0.0000
     37  C4D       41.5270    7.3400    6.6610 C.ar  601  HEC601      0.0000
     38  CMD       38.0100    7.5860    5.4700 C.3   601  HEC601      0.0000
     39  CAD       39.9460    5.2690    6.1660 C.3   601  HEC601      0.0000
     40  CBD       40.6590    4.8570    4.8850 C.3   601  HEC601      0.0000
     41  CGD       40.6200    3.3630    4.6170 C.2   601  HEC601      0.0000
     42  O1D       40.8350    2.9780    3.4400 O.co2 601  HEC601      0.0000
     43  O2D       40.3880    2.5850    5.5800 O.co2 601  HEC601      0.0000
@<TRIPOS>BOND
     1    42    41   ar
     2    32    31    1
     3    41    40    1
     4    41    43   ar
     5    40    39    1
     6    31    28    1
     7    30    27    1
     8    28    27    2
     9    28    29    1
    10    38    35    1
    11    27    26    1
    12     5    29    1
    13     5    34    2
    14    35    34   ar
    15    35    36   ar
    16    29    25    2
    17    34    33   ar
    18    26    25    1
    19    26     4    2
    20    39    36    1
    21    36    37   ar
    22    25     1    1
    23    33    37   ar
    24    33     1    1
    25     4    21    1
    26    37     2    2
    27     1    17    1
    28     1     6    1
    29    24    23    1
    30     2     7    1
    31    21    17   ar
    32    21    20   ar
    33    23    20    1
    34    17    18   ar
    35     7     6    2
    36     7     8    1
    37     6    10    1
    38    20    19   ar
    39     8    12    1
    40     8     9    2
    41    12    13    1
    42    10     9    1
    43    10     3    2
    44    18    19   ar
    45    18     3    1
    46    19    22    1
    47     9    11    1
    48    15    14   ar
    49    13    14    1
    50    14    16   ar
