@<TRIPOS>MOLECULE
1n15_DHE_A_1.pdb
 49 56 0 0 0
SMALL
GASTEIGER

@<TRIPOS>ATOM
      1 FE         27.5310   22.2640    5.7760 Fe    602  DHE602      0.0000
      2  CHA       24.2100   22.4110    6.4590 C.2   602  DHE602      0.0000
      3  CHB       28.0920   20.3620    8.5620 C.2   602  DHE602      0.0000
      4  CHC       30.6210   21.5880    4.6640 C.2   602  DHE602      0.0000
      5  CHD       27.3400   25.0240    3.8030 C.2   602  DHE602      0.0000
      6  NA        26.3120   21.4230    7.2410 N.2   602  DHE602      0.0000
      7  C1A       24.9460   21.6170    7.3460 C.2   602  DHE602      0.0000
      8  C2A       24.4870   20.8970    8.4920 C.2   602  DHE602      0.0000
      9  C3A       25.5860   20.2940    9.0860 C.2   602  DHE602      0.0000
     10  C4A       26.7510   20.6740    8.3190 C.2   602  DHE602      0.0000
     11  CMA       25.6170   19.4020   10.3060 C.3   602  DHE602      0.0000
     12  CAA       23.0560   20.8150    8.9510 C.2   602  DHE602      0.0000
     13  CBA       22.5580   21.9760    9.6950 C.2   602  DHE602      0.0000
     14  CGA       21.1200   21.9680   10.0560 C.2   602  DHE602      0.0000
     15  O1A       20.2830   21.6070    9.1860 O.co2 602  DHE602      0.0000
     16  O2A       20.7660   22.3150   11.2140 O.co2 602  DHE602      0.0000
     17  NB        29.1060   21.0630    6.4200 N.pl3 602  DHE602      0.0000
     18  C1B       29.1330   20.4630    7.6600 C.2   602  DHE602      0.0000
     19  C2B       30.4860   19.9040    7.8970 C.2   602  DHE602      0.0000
     20  OMB       30.9390   19.4960    8.9470 O.2   602  DHE602      0.0000
     21  C3B       31.2080   19.9320    6.5580 C.2   602  DHE602      0.0000
     22  CGB       31.0290   18.4730    5.9270 C.3   602  DHE602      0.0000
     23  CAB       32.6590   20.2350    6.6620 C.3   602  DHE602      0.0000
     24  CBB       33.0170   21.6130    6.9660 C.2   602  DHE602      0.0000
     25  O1B       34.0400   22.1150    6.4150 O.co2 602  DHE602      0.0000
     26  O2B       32.3000   22.2450    7.7610 O.co2 602  DHE602      0.0000
     27  C4B       30.3020   20.9270    5.8070 C.2   602  DHE602      0.0000
     28  NC        28.7940   23.1750    4.4160 N.2   602  DHE602      0.0000
     29  C1C       30.0090   22.6500    4.0810 C.2   602  DHE602      0.0000
     30  C2C       30.6140   23.4250    2.9860 C.2   602  DHE602      0.0000
     31  OMC       31.6390   23.1220    2.3710 O.2   602  DHE602      0.0000
     32  C3C       29.7360   24.6850    2.7950 C.2   602  DHE602      0.0000
     33  CGC       29.2210   24.7160    1.2650 C.3   602  DHE602      0.0000
     34  CAC       30.4400   25.9550    3.0790 C.3   602  DHE602      0.0000
     35  CBC       30.9830   26.1120    4.4260 C.2   602  DHE602      0.0000
     36  O1C       30.6600   27.1450    5.0790 O.co2 602  DHE602      0.0000
     37  O2C       31.7590   25.2160    4.8840 O.co2 602  DHE602      0.0000
     38  C4C       28.5390   24.3170    3.7110 C.2   602  DHE602      0.0000
     39  ND        25.9900   23.5020    5.1810 N.ar  602  DHE602      0.0000
     40  C1D       26.1160   24.5680    4.3210 C.ar  602  DHE602      0.0000
     41  C2D       24.8000   25.0840    4.0740 C.ar  602  DHE602      0.0000
     42  C3D       23.9150   24.3500    4.8270 C.ar  602  DHE602      0.0000
     43  C4D       24.6700   23.3660    5.5460 C.ar  602  DHE602      0.0000
     44  CMD       24.4930   26.2130    3.1470 C.3   602  DHE602      0.0000
     45  CAD       22.4530   24.5050    4.8800 C.3   602  DHE602      0.0000
     46  CBD       21.6430   24.6110    3.8730 C.3   602  DHE602      0.0000
     47  CGD       20.2110   24.2500    3.8640 C.2   602  DHE602      0.0000
     48  O1D       19.5710   24.3680    2.7950 O.co2 602  DHE602      0.0000
     49  O2D       19.6780   23.8310    4.9300 O.co2 602  DHE602      0.0000
@<TRIPOS>BOND
     1    33    32    1
     2    31    30    1
     3    48    47   ar
     4    32    30    2
     5    32    34    1
     6    32    38    1
     7    30    29    1
     8    34    35    1
     9    44    41    1
    10    38     5    1
    11    38    28    2
    12     5    40    2
    13    47    46    1
    14    47    49   ar
    15    46    45    1
    16    41    40   ar
    17    41    42   ar
    18    29    28    1
    19    29     4    2
    20    40    39   ar
    21    28     1    1
    22    35    37   ar
    23    35    36   ar
    24     4    27    1
    25    42    45    1
    26    42    43   ar
    27    39    43   ar
    28    39     1    1
    29    43     2    2
    30     1    17    1
    31     1     6    1
    32    27    17    1
    33    27    21    2
    34    22    21    1
    35    25    24   ar
    36    17    18    1
    37     2     7    1
    38    21    23    1
    39    21    19    1
    40    23    24    1
    41    24    26   ar
    42     6     7    2
    43     6    10    1
    44     7     8    1
    45    18    19    2
    46    18     3    1
    47    19    20    1
    48    10     3    2
    49    10     9    1
    50     8    12    1
    51     8     9    2
    52    12    13    2
    53     9    11    1
    54    15    14   ar
    55    13    14    1
    56    14    16   ar
