@<TRIPOS>MOLECULE
1n1d_C2G_A_1.pdb
 30 31 0 0 0
SMALL
GASTEIGER

@<TRIPOS>ATOM
      1  N1        21.0140   61.1750   27.7970 N.am  130  C2G130     -0.1778
      2  C2        20.0070   61.8300   28.4890 C.1   130  C2G130      0.2756
      3  N3        20.2060   62.9990   29.1460 N.2   130  C2G130     -0.3024
      4  C4        21.4340   63.5660   29.1370 C.2   130  C2G130      0.2346
      5  C5        22.4920   62.9670   28.4570 C.2   130  C2G130      0.0687
      6  C6        22.2130   61.7750   27.8090 C.2   130  C2G130      0.0836
      7  O2        18.8480   61.3840   28.5490 O.2   130  C2G130     -0.1925
      8  N4        21.5870   64.7060   29.7980 N.pl3 130  C2G130     -0.0921
      9  C1'       20.7820   59.8530   27.1500 C.3   130  C2G130      0.2400
     10  C2'       20.8250   59.9360   25.6660 C.3   130  C2G130      0.2319
     11  O2'       19.6230   60.5200   25.2040 O.3   130  C2G130     -0.2157
     12  C3'       21.0370   58.5030   25.2700 C.3   130  C2G130      0.2158
     13  C4'       21.8010   57.9090   26.4610 C.3   130  C2G130      0.1799
     14  O4'       21.8630   58.9880   27.4050 O.3   130  C2G130     -0.3320
     15  O3'       19.8540   57.7340   25.1320 O.3   130  C2G130     -0.2175
     16  C5'       23.1170   57.6000   25.7810 C.3   130  C2G130      0.1813
     17  O5'       24.1780   58.4920   26.0870 O.3   130  C2G130     -0.3112
     18  PA        25.4000   58.6000   24.9540 P.3   130  C2G130      0.2189
     19  O1A       26.6880   58.2480   25.7670 O.3   130  C2G130     -0.4371
     20  O2A       25.4650   60.0700   24.4260 O.2   130  C2G130     -0.5170
     21  O3A       25.2230   57.4480   23.7980 O.3   130  C2G130     -0.2703
     22  PB        24.8060   57.9550   22.2800 P.3   130  C2G130      0.2189
     23  O1B       26.0770   58.5740   21.6000 O.2   130  C2G130     -0.5170
     24  O2B       23.6050   58.9680   22.3520 O.3   130  C2G130     -0.4371
     25  O3B       24.4440   56.5630   21.4620 O.3   130  C2G130     -0.3111
     26  O1G       22.6960   53.6840   18.3860 O.3   130  C2G130     -0.2175
     27  C1G       22.6680   54.9200   19.1090 C.3   130  C2G130      0.2174
     28  C2G       24.1080   55.2210   19.3720 C.3   130  C2G130      0.2146
     29  O2G       24.7210   54.1940   20.1760 O.3   130  C2G130     -0.2176
     30  C3G       24.3280   56.5600   20.0410 C.3   130  C2G130      0.1846
@<TRIPOS>BOND
     1    26    27    1
     2    27    28    1
     3    28    30    1
     4    28    29    1
     5    30    25    1
     6    25    22    1
     7    23    22    2
     8    22    24    1
     9    22    21    1
    10    21    18    1
    11    20    18    2
    12    18    19    1
    13    18    17    1
    14    15    12    1
    15    11    10    1
    16    12    10    1
    17    12    13    1
    18    10     9    1
    19    16    17    1
    20    16    13    1
    21    13    14    1
    22     9    14    1
    23     9     1    1
    24     1     6    1
    25     1     2   am
    26     6     5    2
    27     5     4    1
    28     2     7    2
    29     2     3    2
    30     4     3    2
    31     4     8    1
