@<TRIPOS>MOLECULE
1n1g_BCP_A_1.pdb
 11 12 0 0 0
SMALL
GASTEIGER

@<TRIPOS>ATOM
      1 CL         32.6400   55.9440  -12.3730 Cl    402  BCP402     -0.0449
      2  C6        31.1130   56.0870  -11.4610 C.2   402  BCP402      0.2295
      3  N1        30.5600   57.2940  -11.3200 N.2   402  BCP402     -0.3201
      4  C2        29.4070   57.5050  -10.6430 C.1   402  BCP402      0.1856
      5 BR         28.8030   59.2970  -10.5470 Br    402  BCP402      0.0631
      6  C5        30.3850   54.9610  -10.8270 C.2   402  BCP402      0.1940
      7  C4        29.1520   55.2630  -10.1160 C.1   402  BCP402      0.1190
      8  N3        28.7000   56.5160  -10.0440 N.2   402  BCP402     -0.2788
      9  N7        30.5980   53.6480  -10.7420 N.2   402  BCP402     -0.2293
     10  C8        29.5560   53.1440  -10.0190 C.3   402  BCP402      0.2627
     11  N9        28.6720   54.1170   -9.6350 N.2   402  BCP402     -0.1807
@<TRIPOS>BOND
     1     1     2    1
     2     2     3    2
     3     2     6    1
     4     3     4    2
     5     6     9    2
     6     6     7    1
     7     9    10    1
     8     4     5    1
     9     4     8    2
    10     7     8    2
    11     7    11    2
    12    10    11    1
