@<TRIPOS>MOLECULE
1n1h_GDP_A_1.pdb
 27 29 0 0 0
SMALL
GASTEIGER

@<TRIPOS>ATOM
      1  PB       -33.8550   84.4340   43.6220 P.3   1425  GDP1425     0.3991
      2  O1B      -32.5380   85.3580   43.4310 O.3   1425  GDP1425    -0.1422
      3  O2B      -33.1530   83.9540   44.8160 O.3   1425  GDP1425    -0.1422
      4  O3A      -34.9470   85.6210   43.3890 O.3   1425  GDP1425    -0.2513
      5  PA       -35.5590   86.6480   44.5430 P.3   1425  GDP1425     0.2204
      6  O1A      -36.9220   87.0140   43.8340 O.2   1425  GDP1425    -0.5170
      7  O2A      -34.2620   87.3460   44.4050 O.3   1425  GDP1425    -0.4371
      8  O5'      -35.2520   86.3690   46.2130 O.3   1425  GDP1425    -0.3112
      9  C5'      -36.5510   86.4280   46.8760 C.3   1425  GDP1425     0.1813
     10  C4'      -37.0410   87.1700   48.1250 C.3   1425  GDP1425     0.1799
     11  O4'      -36.3670   86.7770   49.2640 O.3   1425  GDP1425    -0.3326
     12  C3'      -36.8890   88.6920   48.0240 C.3   1425  GDP1425     0.2158
     13  O3'      -37.8310   89.3110   47.0850 O.3   1425  GDP1425    -0.2175
     14  C2'      -37.0710   89.0230   49.4080 C.3   1425  GDP1425     0.2310
     15  O2'      -38.4550   89.3900   49.5880 O.3   1425  GDP1425    -0.2158
     16  C1'      -36.7160   87.7540   50.2340 C.3   1425  GDP1425     0.2293
     17  N9       -35.5080   87.8200   51.1800 N.pl3 1425  GDP1425    -0.2354
     18  C8       -34.1420   88.0460   50.8840 C.3   1425  GDP1425     0.2246
     19  N7       -33.2810   88.0410   51.9180 N.2   1425  GDP1425    -0.2322
     20  C5       -34.1550   87.7930   53.0010 C.2   1425  GDP1425     0.2182
     21  C6       -33.8640   87.6530   54.4450 C.1   1425  GDP1425     0.2372
     22  O6       -32.7710   87.7440   54.9250 O.2   1425  GDP1425    -0.2069
     23  N1       -35.0360   87.3980   55.2620 N.2   1425  GDP1425    -0.2485
     24  C2       -36.3710   87.2790   54.7410 C.1   1425  GDP1425     0.2531
     25  N2       -37.3830   87.0450   55.5770 N.pl3 1425  GDP1425    -0.0226
     26  N3       -36.6240   87.4070   53.3930 N.2   1425  GDP1425    -0.3074
     27  C4       -35.5030   87.6540   52.5800 C.2   1425  GDP1425     0.2300
@<TRIPOS>BOND
     1     4     1    1
     2     4     5    1
     3     2     1    1
     4     1     3    1
     5     6     5    2
     6     7     5    1
     7     5     8    1
     8     8     9    1
     9     9    10    1
    10    13    12    1
    11    12    10    1
    12    12    14    1
    13    10    11    1
    14    11    16    1
    15    14    15    1
    16    14    16    1
    17    16    17    1
    18    18    17    1
    19    18    19    1
    20    17    27    1
    21    19    20    2
    22    27    20    1
    23    27    26    2
    24    20    21    1
    25    26    24    2
    26    21    22    2
    27    21    23    2
    28    24    23    2
    29    24    25    1
