@<TRIPOS>MOLECULE
1n1h_G7M_A_1.pdb
 25 27 0 0 0
SMALL
GASTEIGER

@<TRIPOS>ATOM
      1  OP3      -35.3770   84.5210   40.6830 O.2   1424  G7M1424    -0.2224
      2  P        -34.2230   83.5990   41.0840 P.3   1424  G7M1424     0.5327
      3  OP1      -34.6540   82.0870   41.1850 O.3   1424  G7M1424    -0.1145
      4  OP2      -33.4030   83.5050   42.3270 O.3   1424  G7M1424    -0.1145
      5  O5'      -33.0040   83.4880   40.3460 O.3   1424  G7M1424    -0.2675
      6  C5'      -31.8750   83.8630   39.5220 C.3   1424  G7M1424     0.1859
      7  C4'      -30.7630   83.8830   40.4700 C.3   1424  G7M1424     0.1801
      8  O4'      -30.6850   83.6030   41.8520 O.3   1424  G7M1424    -0.3326
      9  C3'      -29.7910   83.1770   39.6530 C.3   1424  G7M1424     0.2158
     10  O3'      -28.9190   83.6860   38.7380 O.3   1424  G7M1424    -0.2175
     11  C2'      -29.0640   82.3970   40.5850 C.3   1424  G7M1424     0.2310
     12  O2'      -27.7380   82.7410   40.5300 O.3   1424  G7M1424    -0.2158
     13  C1'      -29.6130   82.6560   42.0290 C.3   1424  G7M1424     0.2287
     14  N9       -30.0520   81.4790   43.0030 N.pl3 1424  G7M1424    -0.2454
     15  C8       -31.3710   81.1210   43.2500 C.3   1424  G7M1424     0.1735
     16  N7       -31.5080   80.1500   44.0830 N.3   1424  G7M1424    -0.2343
     17  CN7      -32.7810   79.5850   44.5070 C.3   1424  G7M1424     0.0924
     18  C5       -30.2140   79.8260   44.4150 C.3   1424  G7M1424     0.2475
     19  C6       -29.7520   78.8460   45.3040 C.1   1424  G7M1424     0.2145
     20  O6       -30.4240   78.0900   45.9290 O.2   1424  G7M1424    -0.2115
     21  N1       -28.3730   78.7810   45.4200 N.2   1424  G7M1424    -0.2526
     22  C2       -27.4800   79.5850   44.7580 C.1   1424  G7M1424     0.2525
     23  N2       -26.1990   79.3770   44.9930 N.pl3 1424  G7M1424    -0.0226
     24  N3       -27.9170   80.5500   43.8940 N.2   1424  G7M1424    -0.3118
     25  C4       -29.2920   80.6180   43.7800 C.2   1424  G7M1424     0.2086
@<TRIPOS>BOND
     1    10     9    1
     2     6     5    1
     3     6     7    1
     4     9     7    1
     5     9    11    1
     6     5     2    1
     7     7     8    1
     8    12    11    1
     9    11    13    1
    10     1     2    2
    11     2     3    1
    12     2     4    1
    13     8    13    1
    14    13    14    1
    15    14    15    1
    16    14    25    1
    17    15    16    1
    18    25    24    2
    19    25    18    1
    20    24    22    2
    21    16    18    1
    22    16    17    1
    23    18    19    1
    24    22    23    1
    25    22    21    2
    26    19    21    2
    27    19    20    2
