@<TRIPOS>MOLECULE
1n1h_GH3_A_1.pdb
 31 33 0 0 0
SMALL
GASTEIGER

@<TRIPOS>ATOM
      1  PG        -8.6390   97.9860   28.7470 P.3   1293  GH31293     0.5373
      2  O1G      -10.0540   98.5010   28.7840 O.3   1293  GH31293    -0.1143
      3  O2G       -8.2980   97.2050   29.9600 O.3   1293  GH31293    -0.1143
      4  O3G       -7.7230   99.2510   28.6200 O.2   1293  GH31293    -0.2221
      5  O3B       -8.4670   97.1410   27.2880 O.3   1293  GH31293    -0.2258
      6  PB        -7.7960   95.6430   27.1040 P.3   1293  GH31293     0.2277
      7  O1B       -6.3570   95.8950   27.0920 O.2   1293  GH31293    -0.5168
      8  O2B       -8.1680   94.7830   28.1960 O.3   1293  GH31293    -0.4368
      9  O3A       -8.1730   94.8950   25.7730 O.3   1293  GH31293    -0.2700
     10  PA        -8.1840   95.4350   24.1990 P.3   1293  GH31293     0.2189
     11  O1A       -9.2710   94.6610   23.5550 O.2   1293  GH31293    -0.5170
     12  O2A       -8.1980   96.9170   24.1360 O.3   1293  GH31293    -0.4371
     13  O5'       -6.8820   94.9290   23.5020 O.3   1293  GH31293    -0.3113
     14  C5'       -5.5360   95.3520   23.6860 C.3   1293  GH31293     0.1786
     15  C4'       -4.7700   94.4330   22.7550 C.3   1293  GH31293     0.1497
     16  O4'       -4.2790   93.1500   23.3080 O.3   1293  GH31293    -0.3353
     17  C3'       -5.5500   94.1150   21.4470 C.3   1293  GH31293     0.0695
     18  C2'       -4.9530   92.7540   21.0130 C.3   1293  GH31293     0.2010
     19  O2'       -3.8330   92.8170   20.0620 O.3   1293  GH31293    -0.2185
     20  C1'       -4.6300   92.1120   22.3620 C.3   1293  GH31293     0.2266
     21  N9        -5.7320   91.3510   22.9740 N.pl3 1293  GH31293    -0.2354
     22  C8        -6.8020   91.7230   23.7410 C.3   1293  GH31293     0.2246
     23  N7        -7.6110   90.7780   24.1370 N.2   1293  GH31293    -0.2322
     24  C5        -7.0360   89.6550   23.5770 C.2   1293  GH31293     0.2182
     25  C6        -7.3980   88.2550   23.6220 C.1   1293  GH31293     0.2372
     26  O6        -8.3450   87.7090   24.1650 O.2   1293  GH31293    -0.2069
     27  N1        -6.5130   87.4390   22.9040 N.2   1293  GH31293    -0.2485
     28  C2        -5.3720   87.9160   22.2160 C.1   1293  GH31293     0.2531
     29  N2        -4.5890   87.0590   21.5660 N.pl3 1293  GH31293    -0.0226
     30  N3        -5.0380   89.2120   22.1840 N.2   1293  GH31293    -0.3074
     31  C4        -5.8820   90.0260   22.8740 C.2   1293  GH31293     0.2300
@<TRIPOS>BOND
     1    19    18    1
     2    18    17    1
     3    18    20    1
     4    17    15    1
     5    29    28    1
     6    30    28    2
     7    30    31    2
     8    28    27    2
     9    20    21    1
    10    20    16    1
    11    15    16    1
    12    15    14    1
    13    31    21    1
    14    31    24    1
    15    27    25    2
    16    21    22    1
    17    13    14    1
    18    13    10    1
    19    11    10    2
    20    24    25    1
    21    24    23    2
    22    25    26    2
    23    22    23    1
    24    12    10    1
    25    10     9    1
    26     9     6    1
    27     7     6    2
    28     6     5    1
    29     6     8    1
    30     5     1    1
    31     4     1    2
    32     1     2    1
    33     1     3    1
