@<TRIPOS>MOLECULE
1n1h_CH1_A_1.pdb
 28 29 0 0 0
SMALL
GASTEIGER

@<TRIPOS>ATOM
      1  N1        -7.6370   90.0160   18.8390 N.am  1291  CH11291    -0.1779
      2  C2        -7.8470   88.7040   19.2450 C.1   1291  CH11291     0.2756
      3  N3        -8.7420   88.3760   20.2010 N.2   1291  CH11291    -0.3024
      4  C4        -9.4920   89.3440   20.8150 C.2   1291  CH11291     0.2346
      5  C5        -9.3450   90.6880   20.4680 C.2   1291  CH11291     0.0687
      6  C6        -8.4020   90.9730   19.4710 C.2   1291  CH11291     0.0836
      7  O2        -7.2180   87.7360   18.7550 O.2   1291  CH11291    -0.1925
      8  N4       -10.3590   88.9530   21.7540 N.pl3 1291  CH11291    -0.0921
      9  C1'       -6.6250   90.3550   17.7730 C.3   1291  CH11291     0.2373
     10  C2'       -7.2550   90.4560   16.3860 C.3   1291  CH11291     0.2019
     11  O2'       -7.3250   89.1490   15.8570 O.3   1291  CH11291    -0.2185
     12  C3'       -6.3320   91.3560   15.6270 C.3   1291  CH11291     0.0695
     13  C4'       -5.5290   92.0860   16.7080 C.3   1291  CH11291     0.1498
     14  O4'       -6.0200   91.6280   17.9730 O.3   1291  CH11291    -0.3347
     15  C5'       -5.7010   93.5770   16.4350 C.3   1291  CH11291     0.1786
     16  O5'       -6.3300   94.2800   17.4910 O.3   1291  CH11291    -0.3113
     17  PA        -7.5230   95.3920   17.2320 P.3   1291  CH11291     0.2189
     18  O1A       -6.8720   96.7500   16.8710 O.2   1291  CH11291    -0.5170
     19  O2A       -8.2850   95.4980   18.5620 O.3   1291  CH11291    -0.4371
     20  O3A       -8.4150   94.7500   15.9590 O.3   1291  CH11291    -0.2700
     21  PB        -8.7160   95.6430   14.6010 P.3   1291  CH11291     0.2277
     22  O1B       -9.5540   94.7340   13.6270 O.2   1291  CH11291    -0.5168
     23  O2B       -7.3780   96.0600   13.9110 O.3   1291  CH11291    -0.4368
     24  O3B       -9.6950   96.9220   15.0160 O.3   1291  CH11291    -0.2258
     25  PG        -9.9880   98.1670   13.9860 P.3   1291  CH11291     0.5373
     26  O1G       -9.0720   98.5500   12.7770 O.2   1291  CH11291    -0.2221
     27  O2G      -10.9590   99.2750   14.5910 O.3   1291  CH11291    -0.1143
     28  O3G       -8.8030   98.8100   14.8140 O.3   1291  CH11291    -0.1143
@<TRIPOS>BOND
     1    26    25    2
     2    22    21    2
     3    23    21    1
     4    25    27    1
     5    25    28    1
     6    25    24    1
     7    21    24    1
     8    21    20    1
     9    12    10    1
    10    12    13    1
    11    11    10    1
    12    20    17    1
    13    10     9    1
    14    15    13    1
    15    15    16    1
    16    13    14    1
    17    18    17    2
    18    17    16    1
    19    17    19    1
    20     9    14    1
    21     9     1    1
    22     7     2    2
    23     1     2   am
    24     1     6    1
    25     2     3    2
    26     6     5    2
    27     3     4    2
    28     5     4    1
    29     4     8    1
