@<TRIPOS>MOLECULE
1n1i_HIS_C_1.pdb
 10 10 0 0 0
SMALL
GASTEIGER

@<TRIPOS>ATOM
      1  N         -1.1000  105.3560   34.1250 N.3   501  HIS501     -0.1241
      2  CA        -0.0610  106.3270   33.7960 C.3   501  HIS501      0.1618
      3  C         -0.3910  107.7290   34.3290 C.2   501  HIS501      0.2264
      4  O         -1.3210  108.3990   33.8640 O.2   501  HIS501     -0.2867
      5  CB         0.1450  106.3790   32.2750 C.3   501  HIS501      0.0704
      6  CG         1.2740  107.2670   31.8440 C.2   501  HIS501      0.0649
      7  ND1        2.5470  107.1440   32.3570 N.2   501  HIS501     -0.2310
      8  CD2        1.3200  108.2940   30.9640 C.3   501  HIS501      0.1683
      9  CE1        3.3270  108.0600   31.8190 C.2   501  HIS501      0.1939
     10  NE2        2.6080  108.7720   30.9690 N.2   501  HIS501     -0.2440
@<TRIPOS>BOND
     1     8    10    1
     2     8     6    1
     3    10     9    2
     4     9     7    1
     5     6     5    1
     6     6     7    2
     7     5     2    1
     8     2     1    1
     9     2     3    1
    10     4     3    2
