@<TRIPOS>MOLECULE
1n1l_TRL_A_1.pdb
 29 29 0 0 0
SMALL
GASTEIGER

@<TRIPOS>ATOM
      1  O1        10.7630   23.9460   13.8470 O.2   200  TRL200     -0.2882
      2  C28       10.3210   25.0840   13.9640 C.2   200  TRL200      0.2087
      3  C27        9.8450   26.1080   12.9240 C.3   200  TRL200      0.0845
      4  C3        10.0920   25.5640   11.5150 C.3   200  TRL200      0.0095
      5  C4        11.4100   26.1090   10.9680 C.3   200  TRL200      0.0005
      6  C8         8.3620   26.4590   13.2740 C.3   200  TRL200      0.1005
      7  N10        7.5270   27.3440   12.4190 N.am  200  TRL200     -0.2779
      8  C9         6.2280   26.7230   12.1120 C.3   200  TRL200      0.0950
      9  C12        6.0330   25.6900   13.2240 C.3   200  TRL200      0.0425
     10  C14        7.4630   25.2210   13.4680 C.3   200  TRL200      0.1175
     11  N3         7.6150   24.7400   14.8220 N.3   200  TRL200     -0.0817
     12  S1         7.4220   23.1660   15.1590 S.O2  200  TRL200      0.0592
     13  O4         8.1430   22.5420   14.0790 O.2   200  TRL200     -0.1561
     14  O5         6.0170   23.0000   15.3740 O.2   200  TRL200     -0.1561
     15  C1         8.1390   22.9040   16.7420 C.3   200  TRL200      0.1975
     16  C2         7.9300   28.5910   12.0060 C.2   200  TRL200      0.2456
     17  O2         9.0370   29.0200   12.3170 O.2   200  TRL200     -0.2730
     18  C5         6.9540   29.4430   11.1150 C.3   200  TRL200      0.1745
     19  C6         7.3620   29.4890    9.6140 C.3   200  TRL200      0.0290
     20  C13        8.2370   28.3520    9.1070 C.3   200  TRL200      0.0023
     21  C7         6.1570   29.6560    8.6680 C.3   200  TRL200      0.0023
     22  N1         7.1450   30.8610   11.3770 N.am  200  TRL200     -0.1611
     23  C11        6.6100   31.7480   12.2030 C.2   200  TRL200      0.4213
     24  O3         5.7580   31.5050   13.0200 O.2   200  TRL200     -0.2246
     25  O6         7.2440   32.9140   11.9350 O.3   200  TRL200     -0.4408
     26  C15        6.9890   34.3210   12.2510 C.3   200  TRL200      0.1379
     27  C21        6.3420   34.5660   13.6360 C.3   200  TRL200      0.0437
     28  C26        8.3650   35.0150   12.2980 C.3   200  TRL200      0.0437
     29  C25        6.2210   35.0160   11.0970 C.3   200  TRL200      0.0437
@<TRIPOS>BOND
     1    21    19    1
     2    20    19    1
     3    19    18    1
     4     5     4    1
     5    29    26    1
     6    18    22    1
     7    18    16    1
     8    22    23   am
     9     4     3    1
    10    25    23    1
    11    25    26    1
    12    16    17    2
    13    16     7   am
    14     8     7    1
    15     8     9    1
    16    23    24    2
    17    26    28    1
    18    26    27    1
    19     7     6    1
    20     3     6    1
    21     3     2    1
    22     9    10    1
    23     6    10    1
    24    10    11    1
    25     1     2    2
    26    13    12    2
    27    11    12    1
    28    12    14    2
    29    12    15    1
