@<TRIPOS>MOLECULE
1n1m_A3M_A_1.pdb
 12 12 0 0 0
SMALL
GASTEIGER

@<TRIPOS>ATOM
      1  C1        84.1890   77.2130   97.3480 C.3   954  A3M954      0.0233
      2  C2        82.8540   76.3810   97.0320 C.3   954  A3M954      0.0935
      3  N3        82.6620   75.5160   98.2090 N.am  954  A3M954     -0.2784
      4  C4        84.0340   75.2340   98.6920 C.3   954  A3M954      0.0935
      5  C5        84.6320   76.6600   98.7760 C.3   954  A3M954      0.0233
      6  C14       81.8000   74.3630   97.9530 C.2   954  A3M954      0.2431
      7  C15       80.4200   74.3850   97.4480 C.3   954  A3M954      0.1677
      8  C16       79.2960   74.2300   98.4320 C.3   954  A3M954      0.0265
      9  C17       79.2210   75.2820   99.4580 C.3   954  A3M954      0.0020
     10  O18       82.3220   73.1150   98.2010 O.2   954  A3M954     -0.2733
     11  N19       80.2150   73.3530   96.3790 N.3   954  A3M954     -0.1231
     12  C26       77.8050   74.2860   97.6340 C.3   954  A3M954      0.0020
@<TRIPOS>BOND
     1    11     7    1
     2     2     1    1
     3     2     3    1
     4     1     5    1
     5     7     6    1
     6     7     8    1
     7    12     8    1
     8     6    10    2
     9     6     3   am
    10     3     4    1
    11     8     9    1
    12     4     5    1
