@<TRIPOS>MOLECULE
1n1t_DAN_A_1.pdb
 20 20 0 0 0
SMALL
GASTEIGER

@<TRIPOS>ATOM
      1  C1        26.7420   -4.0680    8.9050 C.2   700  DAN700      0.3914
      2  C2        25.5060   -3.4670    8.5820 C.3   700  DAN700      0.2203
      3  C3        25.3410   -2.0090    8.8180 C.3   700  DAN700      0.0760
      4  C4        24.0660   -1.4590    8.1740 C.3   700  DAN700      0.1773
      5  C5        22.9720   -2.4970    8.1340 C.3   700  DAN700      0.1552
      6  C6        23.5070   -3.7170    7.3940 C.3   700  DAN700      0.1710
      7  C7        22.4930   -4.8490    7.2510 C.3   700  DAN700      0.2134
      8  C8        23.1030   -6.0910    6.6280 C.3   700  DAN700      0.2173
      9  C9        22.0640   -7.2190    6.5530 C.3   700  DAN700      0.2175
     10  C10       20.5810   -2.1270    7.8090 C.2   700  DAN700      0.2420
     11  C11       19.4610   -1.3550    7.1540 C.3   700  DAN700      0.0964
     12  N5        21.8370   -1.8570    7.4870 N.am  700  DAN700     -0.2020
     13  O1A       27.6530   -3.4570    9.7230 O.co2 700  DAN700     -0.2430
     14  O1B       26.9930   -5.2630    8.4780 O.co2 700  DAN700     -0.2430
     15  O4        23.6650   -0.2960    8.9060 O.3   700  DAN700     -0.2211
     16  O6        24.6210   -4.2480    8.1060 O.3   700  DAN700     -0.3429
     17  O7        21.9760   -5.2570    8.5200 O.3   700  DAN700     -0.2176
     18  O8        23.5510   -5.7960    5.3040 O.3   700  DAN700     -0.2175
     19  O9        20.9620   -6.9020    5.7290 O.3   700  DAN700     -0.2175
     20  O10       20.2520   -3.1040    8.7160 O.2   700  DAN700     -0.2733
@<TRIPOS>BOND
     1    18     8    1
     2    19     9    1
     3     9     8    1
     4     8     7    1
     5    11    10    1
     6     7     6    1
     7     7    17    1
     8     6    16    1
     9     6     5    1
    10    12    10   am
    11    12     5    1
    12    10    20    2
    13    16     2    1
    14     5     4    1
    15     4     3    1
    16     4    15    1
    17    14     1   ar
    18     2     3    1
    19     2     1    1
    20     1    13   ar
