@<TRIPOS>MOLECULE
1n1v_DAN_A_1.pdb
 20 20 0 0 0
SMALL
GASTEIGER

@<TRIPOS>ATOM
      1  C1        26.8420   -3.8040    9.4340 C.2   670  DAN670      0.3914
      2  C2        25.6400   -3.2280    9.0500 C.3   670  DAN670      0.2203
      3  C3        25.5100   -1.7360    9.2070 C.3   670  DAN670      0.0760
      4  C4        24.1940   -1.1850    8.6640 C.3   670  DAN670      0.1773
      5  C5        23.1210   -2.2640    8.6610 C.3   670  DAN670      0.1552
      6  C6        23.6610   -3.4530    7.8730 C.3   670  DAN670      0.1710
      7  C7        22.6000   -4.5430    7.6040 C.3   670  DAN670      0.2134
      8  C8        23.1910   -5.8390    7.0610 C.3   670  DAN670      0.2173
      9  C9        22.1020   -6.9120    6.9920 C.3   670  DAN670      0.2175
     10  C10       20.7050   -2.0340    8.3240 C.2   670  DAN670      0.2420
     11  C11       19.6530   -1.2250    7.6260 C.3   670  DAN670      0.0964
     12  N5        21.9510   -1.6990    8.0310 N.am  670  DAN670     -0.2020
     13  O1A       27.7030   -3.2040   10.3770 O.co2 670  DAN670     -0.2430
     14  O1B       27.1830   -4.9300    8.8970 O.co2 670  DAN670     -0.2430
     15  O4        23.7650   -0.1170    9.4720 O.3   670  DAN670     -0.2211
     16  O6        24.7470   -4.0050    8.5960 O.3   670  DAN670     -0.3429
     17  O7        21.9250   -4.9030    8.7970 O.3   670  DAN670     -0.2176
     18  O8        23.6990   -5.6350    5.7710 O.3   670  DAN670     -0.2175
     19  O9        21.2780   -6.6720    5.8640 O.3   670  DAN670     -0.2175
     20  O10       20.3880   -3.0800    9.2060 O.2   670  DAN670     -0.2733
@<TRIPOS>BOND
     1    18     8    1
     2    19     9    1
     3     9     8    1
     4     8     7    1
     5     7     6    1
     6     7    17    1
     7    11    10    1
     8     6    16    1
     9     6     5    1
    10    12    10   am
    11    12     5    1
    12    10    20    2
    13    16     2    1
    14     5     4    1
    15     4     3    1
    16     4    15    1
    17    14     1   ar
    18     2     3    1
    19     2     1    1
    20     1    13   ar
