@<TRIPOS>MOLECULE
1n1y_SIA_A_1.pdb
 21 21 0 0 0
SMALL
GASTEIGER

@<TRIPOS>ATOM
      1  C1        26.7600   -4.0170    9.7160 C.2   700  SIA700      0.4179
      2  C2        25.2750   -3.6930    9.7320 C.3   700  SIA700      0.3155
      3  C3        25.3690   -2.1740    9.8140 C.3   700  SIA700      0.1056
      4  C4        24.2660   -1.5730    8.9500 C.3   700  SIA700      0.1798
      5  C5        23.1560   -2.5810    8.6650 C.3   700  SIA700      0.1554
      6  C6        23.6610   -3.8460    7.9740 C.3   700  SIA700      0.1734
      7  C7        22.5080   -4.7970    7.6680 C.3   700  SIA700      0.2135
      8  C8        22.6340   -5.4060    6.2760 C.3   700  SIA700      0.2173
      9  C9        21.8910   -6.7350    6.2010 C.3   700  SIA700      0.2175
     10  C10       20.8540   -1.9020    8.3360 C.2   700  SIA700      0.2420
     11  C11       19.8430   -1.2190    7.4650 C.3   700  SIA700      0.0964
     12  N5        22.1040   -1.9550    7.8830 N.am  700  SIA700     -0.2020
     13  O1A       27.1380   -5.0500    9.1210 O.co2 700  SIA700     -0.2401
     14  O1B       27.5470   -3.2410   10.3000 O.co2 700  SIA700     -0.2401
     15  O2        24.6940   -4.1980   10.9150 O.3   700  SIA700     -0.1830
     16  O4        23.7180   -0.4540    9.6120 O.3   700  SIA700     -0.2210
     17  O6        24.6000   -4.5050    8.7970 O.3   700  SIA700     -0.3220
     18  O7        22.4720   -5.8260    8.6310 O.3   700  SIA700     -0.2176
     19  O8        22.0980   -4.5140    5.3250 O.3   700  SIA700     -0.2175
     20  O9        21.5220   -6.9990    4.8660 O.3   700  SIA700     -0.2175
     21  O10       20.5190   -2.3750    9.4210 O.2   700  SIA700     -0.2733
@<TRIPOS>BOND
     1    20     9    1
     2    19     8    1
     3     9     8    1
     4     8     7    1
     5    11    10    1
     6     7     6    1
     7     7    18    1
     8    12    10   am
     9    12     5    1
    10     6     5    1
    11     6    17    1
    12    10    21    2
    13     5     4    1
    14    17     2    1
    15     4    16    1
    16     4     3    1
    17    13     1   ar
    18     1     2    1
    19     1    14   ar
    20     2     3    1
    21     2    15    1
