@<TRIPOS>MOLECULE
1n2a_GTS_A_1.pdb
 23 22 0 0 0
SMALL
GASTEIGER

@<TRIPOS>ATOM
      1  N1        11.5930   54.6900    9.9100 N.3   301  GTS301     -0.1246
      2  CA1       11.8760   55.4890    8.6670 C.3   301  GTS301      0.1836
      3  C1        12.9520   56.4720    9.1140 C.3   301  GTS301      0.4429
      4  O11       12.5600   57.2450   10.2200 O.2   301  GTS301     -0.2654
      5  O12       13.6420   57.2370    8.1600 O.2   301  GTS301     -0.2654
      6  CB1       10.5820   56.1140    8.0900 C.3   301  GTS301      0.0313
      7  CG1       10.8480   56.8840    6.7790 C.3   301  GTS301      0.0531
      8  CD1        9.5180   57.4220    6.1800 C.3   301  GTS301      0.2257
      9  OE1        8.3820   56.7730    6.6730 O.3   301  GTS301     -0.2037
     10  N2         9.5070   57.5010    4.7560 N.3   301  GTS301     -0.1849
     11  CA2        8.2710   57.7850    4.0240 C.3   301  GTS301      0.1423
     12  C2         8.2730   56.5840    3.0890 C.3   301  GTS301      0.2435
     13  O2         9.4360   56.5840    2.3060 O.3   301  GTS301     -0.2020
     14  CB2        8.3030   59.2010    3.5140 C.3   301  GTS301      0.1267
     15  SG2        7.5510   60.3200    4.7700 S.3   301  GTS301     -0.1945
     16  O1S        5.9070   59.9850    4.7190 O.3   301  GTS301     -0.3074
     17  O2S        7.6840   61.8690    4.1720 O.3   301  GTS301     -0.3074
     18  O3S        7.8440   59.8670    6.3480 O.3   301  GTS301     -0.3074
     19  N3         7.1040   56.3350    2.3150 N.3   301  GTS301     -0.1797
     20  CA3        7.0830   55.2180    1.3920 C.3   301  GTS301      0.1909
     21  C3         7.0580   53.8420    2.0500 C.3   301  GTS301      0.4431
     22  O31        6.3060   53.0270    1.1840 O.2   301  GTS301     -0.2654
     23  O32        6.4820   53.7850    3.3750 O.2   301  GTS301     -0.2654
@<TRIPOS>BOND
     1    22    21    1
     2    20    21    1
     3    20    19    1
     4    21    23    1
     5    13    12    1
     6    19    12    1
     7    12    11    1
     8    14    11    1
     9    14    15    1
    10    11    10    1
    11    17    15    1
    12    16    15    1
    13    10     8    1
    14    15    18    1
    15     8     9    1
    16     8     7    1
    17     7     6    1
    18     6     2    1
    19     5     3    1
    20     2     3    1
    21     2     1    1
    22     3     4    1
