@<TRIPOS>MOLECULE
1n2b_PAF_A_1.pdb
 10 9 0 0 0
SMALL
GASTEIGER

@<TRIPOS>ATOM
      1  O1        33.0240   33.1610   45.0820 O.co2 1001  PAF1001    -0.2428
      2  C1        33.3180   34.1050   45.9100 C.2   1001  PAF1001     0.3947
      3  O2        33.6230   35.2750   45.5420 O.co2 1001  PAF1001    -0.2428
      4  C2        33.3020   33.7640   47.4390 C.3   1001  PAF1001     0.2562
      5  O3        33.9820   32.5080   47.6350 O.3   1001  PAF1001    -0.2108
      6  C3        31.8690   33.6700   48.0420 C.3   1001  PAF1001     0.0695
      7  C4        31.1030   35.0020   47.8510 C.3   1001  PAF1001     0.0057
      8  C5        31.0770   32.5020   47.4420 C.3   1001  PAF1001     0.0057
      9  C6        32.1060   33.4170   49.5200 C.3   1001  PAF1001     0.1850
     10  O4        32.8550   34.4840   50.0700 O.3   1001  PAF1001    -0.2203
@<TRIPOS>BOND
     1     1     2   ar
     2     3     2   ar
     3     2     4    1
     4     4     5    1
     5     4     6    1
     6     8     6    1
     7     7     6    1
     8     6     9    1
     9     9    10    1
