@<TRIPOS>MOLECULE
1n2b_APC_A_1.pdb
 31 33 0 0 0
SMALL
GASTEIGER

@<TRIPOS>ATOM
      1  PG        38.8240   36.4380   41.7670 P.3   801  APC801      0.5389
      2  O1G       39.4930   36.0040   40.4230 O.2   801  APC801     -0.2220
      3  O2G       38.4180   35.1790   42.6240 O.3   801  APC801     -0.1143
      4  O3G       39.8290   37.3570   42.5590 O.3   801  APC801     -0.1143
      5  PB        36.0140   36.8140   40.8430 P.3   801  APC801      0.3895
      6  O1B       35.8430   37.2770   39.4090 O.2   801  APC801     -0.2544
      7  O2B       35.9110   35.2730   40.8970 O.3   801  APC801     -0.1388
      8  O3B       37.4640   37.2840   41.4160 O.3   801  APC801     -0.2026
      9  PA        34.4950   36.7630   43.0640 P.3   801  APC801      0.3820
     10  O1A       33.8730   37.8180   43.9820 O.3   801  APC801     -0.1392
     11  O2A       35.6470   35.9550   43.5930 O.2   801  APC801     -0.2548
     12  C3A       34.9000   37.4490   41.7120 C.3   801  APC801      0.2357
     13  O5'       33.2730   35.7200   42.8200 O.3   801  APC801     -0.2896
     14  C5'       31.8910   36.0710   43.1070 C.3   801  APC801      0.1836
     15  C4'       30.9130   35.2720   42.2370 C.3   801  APC801      0.1822
     16  O4'       30.9970   35.6930   40.8430 O.3   801  APC801     -0.3135
     17  C3'       31.1820   33.7560   42.2380 C.3   801  APC801      0.2184
     18  O3'       29.9270   33.0620   42.3300 O.3   801  APC801     -0.2174
     19  C2'       31.8750   33.5400   40.9310 C.3   801  APC801      0.2570
     20  O2'       31.9250   32.1890   40.4310 O.3   801  APC801     -0.2130
     21  C1'       31.1400   34.5130   40.0360 C.3   801  APC801      0.3186
     22  N9        31.9280   34.7620   38.8440 N.pl3 801  APC801     -0.1439
     23  C8        33.2290   35.1320   38.7240 C.3   801  APC801      0.3377
     24  N7        33.6990   35.2850   37.5280 N.2   801  APC801     -0.2095
     25  C5        32.5800   34.9840   36.7420 C.2   801  APC801      0.2526
     26  C6        32.3660   34.9470   35.3470 C.2   801  APC801      0.4393
     27  N6        33.3380   35.2310   34.4700 N.pl3 801  APC801      0.2180
     28  N1        31.0770   34.5940   34.8780 N.2   801  APC801      0.0021
     29  C2        30.0600   34.2960   35.7610 C.3   801  APC801      0.5254
     30  N3        30.1760   34.3040   37.1350 N.2   801  APC801     -0.0055
     31  C4        31.4810   34.6620   37.5520 C.2   801  APC801      0.3518
@<TRIPOS>BOND
     1    27    26    1
     2    28    26    2
     3    28    29    1
     4    26    25    1
     5    29    30    1
     6    25    24    2
     7    25    31    1
     8    30    31    2
     9    24    23    1
    10    31    22    1
    11    23    22    1
    12    22    21    1
    13     6     5    2
    14    21    16    1
    15    21    19    1
    16     2     1    2
    17    20    19    1
    18    16    15    1
    19     5     7    1
    20     5     8    1
    21     5    12    1
    22    19    17    1
    23     8     1    1
    24    12     9    1
    25     1     4    1
    26     1     3    1
    27    15    17    1
    28    15    14    1
    29    17    18    1
    30    13     9    1
    31    13    14    1
    32     9    11    2
    33     9    10    1
