@<TRIPOS>MOLECULE
1n2c_CFM_A_1.pdb
 17 35 0 0 0
SMALL
GASTEIGER

@<TRIPOS>ATOM
      1 FE1        27.7820  111.9560   55.6180 Fe    496  CFM496      0.0000
      2 FE2        25.7720  112.5740   54.0540 Fe    496  CFM496      0.0000
      3 FE3        26.1050  110.1980   54.9200 Fe    496  CFM496      0.0000
      4 FE4        27.7590  111.1470   53.1660 Fe    496  CFM496      0.0000
      5 FE5        26.1220  110.4410   51.4590 Fe    496  CFM496      0.0000
      6 FE6        24.2210  111.8560   52.2700 Fe    496  CFM496      0.0000
      7 FE7        24.5770  109.3990   53.1130 Fe    496  CFM496      0.0000
      8 MO1        23.6520  109.9100   50.6160 Mo    496  CFM496      0.0000
      9  S1A       27.9280  113.3400   53.7540 S.3   496  CFM496      0.0000
     10  S4A       28.3660  109.8510   54.9800 S.3   496  CFM496      0.0000
     11  S3A       28.3730  110.5350   51.0790 S.3   496  CFM496      0.0000
     12  S2A       25.6010  111.9430   56.2630 S.3   496  CFM496      0.0000
     13  S1B       24.8700  111.8910   50.1230 S.3   496  CFM496      0.0000
     14  S2B       24.0320  113.8450   53.2950 S.3   496  CFM496      0.0000
     15  S3B       22.5410  110.2950   52.5770 S.3   496  CFM496      0.0000
     16  S4B       25.2560  108.3300   51.2550 S.3   496  CFM496      0.0000
     17  S5        24.8650  108.3050   55.0930 S.3   496  CFM496      0.0000
@<TRIPOS>BOND
     1    13     8    1
     2    13     5    1
     3    13     6    1
     4     8    16    1
     5     8     6    1
     6     8    15    1
     7     8     7    1
     8    11     5    1
     9    11     4    1
    10    16     5    1
    11    16     7    1
    12     5     6    1
    13     5     7    1
    14     5     4    1
    15     6    15    1
    16     6    14    1
    17     6     2    1
    18    15     7    1
    19     7     3    1
    20     7    17    1
    21     4     9    1
    22     4     2    1
    23     4    10    1
    24     4     1    1
    25    14     2    1
    26     9     2    1
    27     9     1    1
    28     2     3    1
    29     2    12    1
    30     3    10    1
    31     3    17    1
    32     3     1    1
    33     3    12    1
    34    10     1    1
    35     1    12    1
