@<TRIPOS>MOLECULE
1n2c_CLF_B_1.pdb
 15 34 0 0 0
SMALL
GASTEIGER

@<TRIPOS>ATOM
      1 FE1        11.4390  120.7760   47.8270 Fe    525  CLF525      0.0000
      2 FE2        11.7930  122.5450   49.6580 Fe    525  CLF525      0.0000
      3 FE3        13.0490  120.1750   49.8880 Fe    525  CLF525      0.0000
      4 FE4        10.5160  120.2230   50.1720 Fe    525  CLF525      0.0000
      5  S1         9.7250  121.8700   48.8000 S.3   525  CLF525      0.0000
      6  S2A       13.4520  121.7800   48.3260 S.3   525  CLF525      0.0000
      7  S4A       11.9900  121.3040   51.5510 S.3   525  CLF525      0.0000
      8  S3A       11.6010  118.7120   48.8290 S.3   525  CLF525      0.0000
      9 FE5         7.7530  119.1420   48.9070 Fe    525  CLF525      0.0000
     10 FE6         6.6000  121.2680   47.7460 Fe    525  CLF525      0.0000
     11 FE7         6.5830  118.7850   46.5940 Fe    525  CLF525      0.0000
     12 FE8         8.7040  120.4520   46.9510 Fe    525  CLF525      0.0000
     13  S2B        5.5180  119.3870   48.5460 S.3   525  CLF525      0.0000
     14  S3B        6.9100  120.7750   45.5630 S.3   525  CLF525      0.0000
     15  S4B        8.7610  118.1500   47.1100 S.3   525  CLF525      0.0000
@<TRIPOS>BOND
     1    14    11    1
     2    14    12    1
     3    14    10    1
     4    11    12    1
     5    11    15    1
     6    11    10    1
     7    11    13    1
     8    11     9    1
     9    12    15    1
    10    12    10    1
    11    12     5    1
    12    12     9    1
    13    15     9    1
    14    10    13    1
    15    10     9    1
    16     1     6    1
    17     1     5    1
    18     1     8    1
    19     1     2    1
    20     1     3    1
    21     1     4    1
    22     6     2    1
    23     6     3    1
    24    13     9    1
    25     5     2    1
    26     5     4    1
    27     8     3    1
    28     8     4    1
    29     2     3    1
    30     2     4    1
    31     2     7    1
    32     3     4    1
    33     3     7    1
    34     4     7    1
