@<TRIPOS>MOLECULE
1n2c_ADP_E_1.pdb
 27 29 0 0 0
SMALL
GASTEIGER

@<TRIPOS>ATOM
      1  PB        -5.2270  153.1810   51.8630 P.3   291  ADP291      0.5373
      2  O1B       -5.3210  151.8630   52.5250 O.3   291  ADP291     -0.1143
      3  O2B       -5.8250  153.1980   50.5380 O.2   291  ADP291     -0.2221
      4  O3B       -3.8670  153.5050   51.3660 O.3   291  ADP291     -0.1143
      5  PA        -7.2060  154.4950   52.9030 P.3   291  ADP291      0.2231
      6  O1A       -7.8690  154.5640   51.5820 O.2   291  ADP291     -0.5169
      7  O2A       -7.8220  153.4030   53.7060 O.3   291  ADP291     -0.4370
      8  O3A       -5.7510  154.2950   52.7010 O.3   291  ADP291     -0.2261
      9  O5'       -7.4760  155.9080   53.5940 O.3   291  ADP291     -0.3111
     10  C5'       -6.9240  156.1330   54.8810 C.3   291  ADP291      0.1813
     11  C4'       -7.4080  157.3700   55.6730 C.3   291  ADP291      0.1821
     12  O4'       -7.1170  158.5900   54.8900 O.3   291  ADP291     -0.3135
     13  C3'       -8.9510  157.3390   55.9120 C.3   291  ADP291      0.2184
     14  O3'       -9.4680  158.2270   56.9110 O.3   291  ADP291     -0.2174
     15  C2'       -9.2480  158.0890   54.6220 C.3   291  ADP291      0.2570
     16  O2'      -10.6280  158.4770   54.5770 O.3   291  ADP291     -0.2130
     17  C1'       -8.3600  159.3150   54.7700 C.3   291  ADP291      0.3186
     18  N9        -8.4910  160.1330   53.5340 N.pl3 291  ADP291     -0.1439
     19  C8        -8.2490  159.7350   52.2420 C.3   291  ADP291      0.3377
     20  N7        -8.3390  160.6980   51.3680 N.2   291  ADP291     -0.2095
     21  C5        -8.6700  161.8260   52.1190 C.2   291  ADP291      0.2526
     22  C6        -8.9060  163.1690   51.7590 C.2   291  ADP291      0.4393
     23  N6        -8.7840  163.6190   50.5070 N.pl3 291  ADP291      0.2180
     24  N1        -9.2540  164.0280   52.7320 N.2   291  ADP291      0.0021
     25  C2        -9.3270  163.5670   53.9620 C.3   291  ADP291      0.5254
     26  N3        -9.1180  162.3400   54.4460 N.2   291  ADP291     -0.0055
     27  C4        -8.7820  161.4940   53.4440 C.2   291  ADP291      0.3518
@<TRIPOS>BOND
     1    23    22    1
     2     3     1    2
     3     4     1    1
     4    20    21    2
     5    20    19    1
     6     6     5    2
     7    22    21    1
     8    22    24    2
     9     1     2    1
    10     1     8    1
    11    21    27    1
    12    19    18    1
    13     8     5    1
    14    24    25    1
    15     5     9    1
    16     5     7    1
    17    27    18    1
    18    27    26    2
    19    18    17    1
    20     9    10    1
    21    25    26    1
    22    16    15    1
    23    15    17    1
    24    15    13    1
    25    17    12    1
    26    10    11    1
    27    12    11    1
    28    11    13    1
    29    13    14    1
