@<TRIPOS>MOLECULE
1n2e_APC_A_1.pdb
 31 33 0 0 0
SMALL
GASTEIGER

@<TRIPOS>ATOM
      1  PG        39.0400   36.6440   41.7720 P.3   801  APC801      0.5389
      2  O1G       38.9060   35.1930   42.3040 O.3   801  APC801     -0.1143
      3  O2G       39.9350   37.5220   42.7200 O.3   801  APC801     -0.1143
      4  O3G       39.6770   36.6480   40.3470 O.2   801  APC801     -0.2220
      5  PB        36.1490   36.9170   41.0010 P.3   801  APC801      0.3895
      6  O1B       36.1270   37.5560   39.6060 O.2   801  APC801     -0.2544
      7  O2B       36.0020   35.4090   40.8400 O.3   801  APC801     -0.1388
      8  O3B       37.5520   37.3080   41.7280 O.3   801  APC801     -0.2026
      9  PA        34.4970   36.8340   43.1730 P.3   801  APC801      0.3820
     10  O1A       33.8250   37.9050   44.0220 O.3   801  APC801     -0.1392
     11  O2A       35.6550   36.0940   43.7510 O.2   801  APC801     -0.2548
     12  C3A       34.9500   37.4950   41.8210 C.3   801  APC801      0.2357
     13  O5'       33.2870   35.7650   42.9290 O.3   801  APC801     -0.2896
     14  C5'       31.8880   36.0710   43.1880 C.3   801  APC801      0.1836
     15  C4'       30.9390   35.2540   42.3040 C.3   801  APC801      0.1822
     16  O4'       30.9820   35.6850   40.9060 O.3   801  APC801     -0.3135
     17  C3'       31.2670   33.7680   42.2900 C.3   801  APC801      0.2184
     18  O3'       30.0420   33.0080   42.3960 O.3   801  APC801     -0.2174
     19  C2'       31.9520   33.5790   40.9800 C.3   801  APC801      0.2570
     20  O2'       31.9930   32.2250   40.5020 O.3   801  APC801     -0.2130
     21  C1'       31.1980   34.5370   40.0900 C.3   801  APC801      0.3186
     22  N9        32.0020   34.8450   38.9110 N.pl3 801  APC801     -0.1439
     23  C8        33.2750   35.3460   38.8100 C.3   801  APC801      0.3377
     24  N7        33.7570   35.5180   37.6050 N.2   801  APC801     -0.2095
     25  C5        32.6850   35.0830   36.8170 C.2   801  APC801      0.2526
     26  C6        32.4910   34.9790   35.4210 C.2   801  APC801      0.4393
     27  N6        33.4240   35.3150   34.5430 N.pl3 801  APC801      0.2180
     28  N1        31.2630   34.4950   34.9650 N.2   801  APC801      0.0021
     29  C2        30.2730   34.1290   35.8320 C.3   801  APC801      0.5254
     30  N3        30.3590   34.1830   37.1970 N.2   801  APC801     -0.0055
     31  C4        31.6030   34.6750   37.6210 C.2   801  APC801      0.3518
@<TRIPOS>BOND
     1    27    26    1
     2    28    26    2
     3    28    29    1
     4    26    25    1
     5    29    30    1
     6    25    24    2
     7    25    31    1
     8    30    31    2
     9    24    23    1
    10    31    22    1
    11    23    22    1
    12    22    21    1
    13     6     5    2
    14    21    16    1
    15    21    19    1
    16     4     1    2
    17    20    19    1
    18     7     5    1
    19    16    15    1
    20    19    17    1
    21     5     8    1
    22     5    12    1
    23     8     1    1
    24     1     2    1
    25     1     3    1
    26    12     9    1
    27    17    15    1
    28    17    18    1
    29    15    14    1
    30    13     9    1
    31    13    14    1
    32     9    11    2
    33     9    10    1
