@<TRIPOS>MOLECULE
1n2e_PAF_A_1.pdb
 10 9 0 0 0
SMALL
GASTEIGER

@<TRIPOS>ATOM
      1  O1        32.9120   33.1440   45.1330 O.co2 1001  PAF1001    -0.2428
      2  C1        33.3820   34.0590   45.9220 C.2   1001  PAF1001     0.3947
      3  O2        33.8170   35.1540   45.5110 O.co2 1001  PAF1001    -0.2428
      4  C2        33.3870   33.7670   47.4550 C.3   1001  PAF1001     0.2562
      5  O3        34.0760   32.5220   47.6720 O.3   1001  PAF1001    -0.2108
      6  C3        31.9380   33.6900   48.0710 C.3   1001  PAF1001     0.0695
      7  C4        31.1860   35.0200   47.8420 C.3   1001  PAF1001     0.0057
      8  C5        31.1510   32.5190   47.5000 C.3   1001  PAF1001     0.0057
      9  C6        32.1630   33.4690   49.5660 C.3   1001  PAF1001     0.1850
     10  O4        32.9200   34.5470   50.1110 O.3   1001  PAF1001    -0.2203
@<TRIPOS>BOND
     1     1     2   ar
     2     3     2   ar
     3     2     4    1
     4     4     5    1
     5     4     6    1
     6     8     6    1
     7     7     6    1
     8     6     9    1
     9     9    10    1
