@<TRIPOS>MOLECULE
1n2g_APC_A_1.pdb
 31 33 0 0 0
SMALL
GASTEIGER

@<TRIPOS>ATOM
      1  PG        38.8330   36.8870   41.5910 P.3   801  APC801      0.5389
      2  O1G       38.8900   35.5700   42.4060 O.3   801  APC801     -0.1143
      3  O2G       39.2270   38.1020   42.4820 O.3   801  APC801     -0.1143
      4  O3G       39.8090   36.7800   40.3730 O.2   801  APC801     -0.2220
      5  PB        35.8170   36.7710   41.4220 P.3   801  APC801      0.3895
      6  O1B       34.8630   37.7670   40.7610 O.2   801  APC801     -0.2544
      7  O2B       35.4950   35.3540   40.9200 O.3   801  APC801     -0.1388
      8  O3B       37.3180   37.1680   41.0060 O.3   801  APC801     -0.2026
      9  PA        34.2360   36.5920   43.6650 P.3   801  APC801      0.3820
     10  O1A       33.7120   37.8830   44.2090 O.2   801  APC801     -0.2548
     11  O2A       34.4410   35.4960   44.6310 O.3   801  APC801     -0.1392
     12  C3A       35.6360   36.8490   42.9720 C.3   801  APC801      0.2357
     13  O5'       33.0720   36.0740   42.7340 O.3   801  APC801     -0.2896
     14  C5'       31.7100   36.1080   43.2080 C.3   801  APC801      0.1836
     15  C4'       30.7930   35.2440   42.3430 C.3   801  APC801      0.1822
     16  O4'       30.8170   35.6730   40.9570 O.3   801  APC801     -0.3135
     17  C3'       31.2130   33.7870   42.3460 C.3   801  APC801      0.2184
     18  O3'       30.0650   32.9610   42.5060 O.3   801  APC801     -0.2174
     19  C2'       31.8690   33.6130   41.0190 C.3   801  APC801      0.2570
     20  O2'       31.8680   32.2650   40.5590 O.3   801  APC801     -0.2130
     21  C1'       31.0940   34.5510   40.1390 C.3   801  APC801      0.3186
     22  N9        31.8810   34.9040   38.9580 N.pl3 801  APC801     -0.1439
     23  C8        33.1060   35.4970   38.8530 C.3   801  APC801      0.3377
     24  N7        33.5800   35.6910   37.6600 N.2   801  APC801     -0.2095
     25  C5        32.5670   35.1750   36.8710 C.2   801  APC801      0.2526
     26  C6        32.4060   35.0530   35.4720 C.2   801  APC801      0.4393
     27  N6        33.3400   35.4710   34.6030 N.pl3 801  APC801      0.2180
     28  N1        31.2130   34.4650   34.9910 N.2   801  APC801      0.0021
     29  C2        30.2450   34.0260   35.8530 C.3   801  APC801      0.5254
     30  N3        30.3100   34.0950   37.2200 N.2   801  APC801     -0.0055
     31  C4        31.5110   34.6880   37.6610 C.2   801  APC801      0.3518
@<TRIPOS>BOND
     1    27    26    1
     2    28    26    2
     3    28    29    1
     4    26    25    1
     5    29    30    1
     6    25    24    2
     7    25    31    1
     8    30    31    2
     9    24    23    1
    10    31    22    1
    11    23    22    1
    12    22    21    1
    13    21    16    1
    14    21    19    1
    15     4     1    2
    16    20    19    1
    17     6     5    2
    18     7     5    1
    19    16    15    1
    20     8     5    1
    21     8     1    1
    22    19    17    1
    23     5    12    1
    24     1     2    1
    25     1     3    1
    26    15    17    1
    27    15    14    1
    28    17    18    1
    29    13    14    1
    30    13     9    1
    31    12     9    1
    32     9    10    2
    33     9    11    1
