@<TRIPOS>MOLECULE
1n2h_PAJ_A_1.pdb
 32 34 0 0 0
SMALL
GASTEIGER

@<TRIPOS>ATOM
      1  P         33.6000   36.2930   43.9360 P.3   1001  PAJ1001     0.2723
      2  O1P       34.9310   35.9310   43.5180 O.2   1001  PAJ1001    -0.5082
      3  O2P       33.2810   37.7290   44.1540 O.3   1001  PAJ1001    -0.4273
      4  O5'       32.6100   35.6360   42.8200 O.3   1001  PAJ1001    -0.3024
      5  C5'       31.4260   35.7980   43.2610 C.3   1001  PAJ1001     0.1823
      6  C4'       30.5360   34.9320   42.3720 C.3   1001  PAJ1001     0.1822
      7  O4'       30.6130   35.3950   40.9860 O.3   1001  PAJ1001    -0.3135
      8  C3'       30.9370   33.4350   42.3280 C.3   1001  PAJ1001     0.2184
      9  O3'       29.7580   32.6660   42.4090 O.3   1001  PAJ1001    -0.2174
     10  C2'       31.6180   33.2820   41.0270 C.3   1001  PAJ1001     0.2570
     11  O2'       31.6680   31.9450   40.4960 O.3   1001  PAJ1001    -0.2130
     12  C1'       30.8780   34.2710   40.1530 C.3   1001  PAJ1001     0.3186
     13  N9        31.6960   34.6100   39.0340 N.pl3 1001  PAJ1001    -0.1439
     14  C8        32.9480   35.1530   38.9610 C.3   1001  PAJ1001     0.3377
     15  N7        33.4490   35.3470   37.7720 N.2   1001  PAJ1001    -0.2095
     16  C5        32.4600   34.9030   36.9520 C.2   1001  PAJ1001     0.2526
     17  C6        32.3400   34.8260   35.5340 C.2   1001  PAJ1001     0.4393
     18  N6        33.3090   35.2300   34.7110 N.pl3 1001  PAJ1001     0.2180
     19  N1        31.1630   34.3050   34.9960 N.2   1001  PAJ1001     0.0021
     20  C2        30.1230   33.8690   35.8150 C.3   1001  PAJ1001     0.5254
     21  N3        30.1410   33.9050   37.2170 N.2   1001  PAJ1001    -0.0055
     22  C4        31.3460   34.4350   37.7090 C.2   1001  PAJ1001     0.3518
     23  O11       33.1180   33.1930   45.0120 O.2   1001  PAJ1001    -0.2470
     24  C11       33.2600   34.1520   45.8990 C.2   1001  PAJ1001     0.3518
     25  O12       33.3670   35.6140   45.3150 O.3   1001  PAJ1001    -0.4083
     26  C12       33.3210   33.8010   47.3840 C.3   1001  PAJ1001     0.2522
     27  O13       33.9230   32.4580   47.4950 O.3   1001  PAJ1001    -0.2110
     28  C13       31.8800   33.8530   48.0670 C.3   1001  PAJ1001     0.0693
     29  C14       31.2070   35.2560   47.9000 C.3   1001  PAJ1001     0.0057
     30  C15       30.9470   32.6990   47.4940 C.3   1001  PAJ1001     0.0057
     31  C16       32.1210   33.5470   49.5620 C.3   1001  PAJ1001     0.1850
     32  O14       32.9890   34.5120   50.1540 O.3   1001  PAJ1001    -0.2203
@<TRIPOS>BOND
     1    18    17    1
     2    19    17    2
     3    19    20    1
     4    17    16    1
     5    20    21    1
     6    16    22    1
     7    16    15    2
     8    21    22    2
     9    22    13    1
    10    15    14    1
    11    14    13    1
    12    13    12    1
    13    12     7    1
    14    12    10    1
    15    11    10    1
    16     7     6    1
    17    10     8    1
    18     8     6    1
    19     8     9    1
    20     6     5    1
    21     4     5    1
    22     4     1    1
    23     2     1    2
    24     1     3    1
    25     1    25    1
    26    23    24    2
    27    25    24    1
    28    24    26    1
    29    26    27    1
    30    26    28    1
    31    30    28    1
    32    29    28    1
    33    28    31    1
    34    31    32    1
