@<TRIPOS>MOLECULE
1n2i_PAJ_A_1.pdb
 32 34 0 0 0
SMALL
GASTEIGER

@<TRIPOS>ATOM
      1  P         33.5130   36.3290   43.8270 P.3   1001  PAJ1001     0.2723
      2  O1P       34.8390   36.1240   43.2730 O.2   1001  PAJ1001    -0.5082
      3  O2P       33.1070   37.7600   44.1310 O.3   1001  PAJ1001    -0.4273
      4  O5'       32.4530   35.6350   42.7710 O.3   1001  PAJ1001    -0.3024
      5  C5'       31.2880   35.8660   43.1800 C.3   1001  PAJ1001     0.1823
      6  C4'       30.3600   34.9670   42.2830 C.3   1001  PAJ1001     0.1822
      7  O4'       30.3520   35.4090   40.8750 O.3   1001  PAJ1001    -0.3135
      8  C3'       30.7600   33.4730   42.2300 C.3   1001  PAJ1001     0.2184
      9  O3'       29.5710   32.7220   42.2540 O.3   1001  PAJ1001    -0.2174
     10  C2'       31.4890   33.3590   40.9490 C.3   1001  PAJ1001     0.2570
     11  O2'       31.6670   32.0380   40.4250 O.3   1001  PAJ1001    -0.2130
     12  C1'       30.7030   34.2950   40.0420 C.3   1001  PAJ1001     0.3186
     13  N9        31.5480   34.6740   38.9220 N.pl3 1001  PAJ1001    -0.1439
     14  C8        32.8250   35.2380   38.8900 C.3   1001  PAJ1001     0.3377
     15  N7        33.3500   35.4640   37.7260 N.2   1001  PAJ1001    -0.2095
     16  C5        32.3310   35.0130   36.8660 C.2   1001  PAJ1001     0.2526
     17  C6        32.2000   34.9440   35.4430 C.2   1001  PAJ1001     0.4393
     18  N6        33.1610   35.3480   34.6100 N.pl3 1001  PAJ1001     0.2180
     19  N1        30.9850   34.4130   34.8990 N.2   1001  PAJ1001     0.0021
     20  C2        29.9640   33.9720   35.7080 C.3   1001  PAJ1001     0.5254
     21  N3        29.9980   33.9920   37.0970 N.2   1001  PAJ1001    -0.0055
     22  C4        31.2140   34.5280   37.6080 C.2   1001  PAJ1001     0.3518
     23  O11       33.1020   33.1890   44.9470 O.2   1001  PAJ1001    -0.2470
     24  C11       33.2410   34.1490   45.8190 C.2   1001  PAJ1001     0.3518
     25  O12       33.4360   35.5750   45.2360 O.3   1001  PAJ1001    -0.4083
     26  C12       33.2390   33.8000   47.3320 C.3   1001  PAJ1001     0.2522
     27  O13       33.8670   32.4920   47.5070 O.3   1001  PAJ1001    -0.2110
     28  C13       31.7650   33.8080   47.9790 C.3   1001  PAJ1001     0.0693
     29  C14       31.0590   35.1730   47.8240 C.3   1001  PAJ1001     0.0057
     30  C15       30.8890   32.6740   47.3810 C.3   1001  PAJ1001     0.0057
     31  C16       31.9960   33.4990   49.4530 C.3   1001  PAJ1001     0.1850
     32  O14       32.8460   34.4870   50.0210 O.3   1001  PAJ1001    -0.2203
@<TRIPOS>BOND
     1    18    17    1
     2    19    17    2
     3    19    20    1
     4    17    16    1
     5    20    21    1
     6    16    22    1
     7    16    15    2
     8    21    22    2
     9    22    13    1
    10    15    14    1
    11    14    13    1
    12    13    12    1
    13    12     7    1
    14    12    10    1
    15    11    10    1
    16     7     6    1
    17    10     8    1
    18     8     9    1
    19     8     6    1
    20     6     5    1
    21     4     5    1
    22     4     1    1
    23     2     1    2
    24     1     3    1
    25     1    25    1
    26    23    24    2
    27    25    24    1
    28    24    26    1
    29    26    27    1
    30    26    28    1
    31    30    28    1
    32    29    28    1
    33    28    31    1
    34    31    32    1
