@<TRIPOS>MOLECULE
1n2j_PAF_A_1.pdb
 10 9 0 0 0
SMALL
GASTEIGER

@<TRIPOS>ATOM
      1  O1        33.3200   33.2000   44.9730 O.co2 1001  PAF1001    -0.2428
      2  C1        33.3260   34.2000   45.8110 C.2   1001  PAF1001     0.3947
      3  O2        33.2480   35.3780   45.4420 O.co2 1001  PAF1001    -0.2428
      4  C2        33.4000   33.8580   47.3360 C.3   1001  PAF1001     0.2562
      5  O3        34.1460   32.6030   47.4910 O.3   1001  PAF1001    -0.2108
      6  C3        31.9500   33.7180   47.9770 C.3   1001  PAF1001     0.0695
      7  C4        31.1660   35.0230   47.8550 C.3   1001  PAF1001     0.0057
      8  C5        31.1820   32.5830   47.3280 C.3   1001  PAF1001     0.0057
      9  C6        32.1890   33.4150   49.4770 C.3   1001  PAF1001     0.1850
     10  O4        32.9210   34.4570   50.1000 O.3   1001  PAF1001    -0.2203
@<TRIPOS>BOND
     1     1     2   ar
     2     3     2   ar
     3     2     4    1
     4     8     6    1
     5     4     5    1
     6     4     6    1
     7     7     6    1
     8     6     9    1
     9     9    10    1
