@<TRIPOS>MOLECULE
1n2n_H4B_A_1.pdb
 17 18 0 0 0
SMALL
GASTEIGER

@<TRIPOS>ATOM
      1  N1       -64.8170  125.8770  -15.9090 N.2   901  H4B901     -0.2683
      2  C2       -63.9020  126.8500  -15.6400 C.1   901  H4B901      0.2608
      3  N2       -63.3600  127.6000  -16.5780 N.pl3 901  H4B901     -0.0220
      4  N3       -63.5500  127.0310  -14.3400 N.2   901  H4B901     -0.2474
      5  C4       -64.0560  126.2940  -13.2440 C.1   901  H4B901      0.2441
      6  O4       -63.6520  126.5600  -12.1140 O.2   901  H4B901     -0.2063
      7  C4A      -65.0030  125.2980  -13.6030 C.2   901  H4B901      0.2463
      8  C8A      -65.3860  125.0890  -14.9190 C.1   901  H4B901      0.1270
      9  N5       -65.5900  124.4800  -12.5380 N.2   901  H4B901     -0.2460
     10  N8       -66.2830  124.1480  -15.2650 N.2   901  H4B901     -0.2054
     11  C6       -66.0250  123.1090  -13.0320 C.3   901  H4B901      0.1627
     12  C7       -66.9110  123.2880  -14.2450 C.3   901  H4B901      0.1643
     13  C9       -66.6510  122.4000  -11.8180 C.3   901  H4B901      0.2063
     14  O9       -67.7400  123.1300  -11.2860 O.3   901  H4B901     -0.2183
     15  C10      -67.1600  120.9820  -12.1560 C.3   901  H4B901      0.1842
     16  C11      -67.7540  120.2950  -10.9830 C.3   901  H4B901      0.0383
     17  O10      -66.0250  120.2820  -12.6780 O.3   901  H4B901     -0.2204
@<TRIPOS>BOND
     1     3     2    1
     2     1     2    2
     3     1     8    2
     4     2     4    2
     5    10     8    2
     6    10    12    1
     7     8     7    1
     8     4     5    2
     9    12    11    1
    10     7     5    1
    11     7     9    2
    12     5     6    2
    13    11     9    1
    14    11    13    1
    15    17    15    1
    16    15    13    1
    17    15    16    1
    18    13    14    1
