@<TRIPOS>MOLECULE
1n2n_ARG_A_1.pdb
 11 10 0 0 0
SMALL
GASTEIGER

@<TRIPOS>ATOM
      1  N        -60.7120  132.8700  -12.8890 N.3   902  ARG902     -0.1245
      2  CA       -59.5540  133.1860  -12.0550 C.3   902  ARG902      0.1563
      3  C        -59.8460  134.3390  -11.0840 C.2   902  ARG902      0.2260
      4  O        -60.7490  135.1560  -11.3020 O.2   902  ARG902     -0.2867
      5  CB       -58.3340  133.5470  -12.9300 C.3   902  ARG902      0.0307
      6  CG       -57.5980  132.3650  -13.5610 C.3   902  ARG902      0.0489
      7  CD       -56.6990  132.8260  -14.6970 C.3   902  ARG902      0.2205
      8  NE       -57.4740  133.4890  -15.7470 N.pl3 902  ARG902     -0.0865
      9  CZ       -56.9600  134.0700  -16.8350 C.cat 902  ARG902      0.5346
     10  NH1      -55.6460  134.0810  -17.0480 N.pl3 902  ARG902      0.1354
     11  NH2      -57.7680  134.6690  -17.7060 N.pl3 902  ARG902      0.1354
@<TRIPOS>BOND
     1    11     9    1
     2    10     9    1
     3     9     8    2
     4     8     7    1
     5     7     6    1
     6     6     5    1
     7     5     2    1
     8     1     2    1
     9     2     3    1
    10     4     3    2
