@<TRIPOS>MOLECULE
1n2n_HEM_A_1.pdb
 43 50 0 0 0
SMALL
GASTEIGER

@<TRIPOS>ATOM
      1  CHA      -57.0490  128.5880  -17.5960 C.2   900  HEM900      0.0000
      2  CHB      -57.9190  132.5160  -20.1730 C.2   900  HEM900      0.0000
      3  CHC      -53.2010  133.0820  -20.7560 C.2   900  HEM900      0.0000
      4  CHD      -52.4430  128.7180  -18.8990 C.2   900  HEM900      0.0000
      5  C1A      -57.6550  129.7140  -18.0880 C.ar  900  HEM900      0.0000
      6  C2A      -59.0120  130.1200  -17.8070 C.ar  900  HEM900      0.0000
      7  C3A      -59.2920  131.1550  -18.6080 C.ar  900  HEM900      0.0000
      8  C4A      -58.0750  131.4520  -19.3080 C.ar  900  HEM900      0.0000
      9  CMA      -60.6570  131.7790  -18.7930 C.3   900  HEM900      0.0000
     10  CAA      -59.9510  129.5950  -16.7470 C.3   900  HEM900      0.0000
     11  CBA      -59.6080  130.0510  -15.3390 C.3   900  HEM900      0.0000
     12  CGA      -60.6290  129.5840  -14.3320 C.2   900  HEM900      0.0000
     13  O1A      -60.4410  129.8160  -13.1230 O.co2 900  HEM900      0.0000
     14  O2A      -61.6300  128.9800  -14.7550 O.co2 900  HEM900      0.0000
     15  C1B      -56.7250  132.9330  -20.7150 C.2   900  HEM900      0.0000
     16  C2B      -56.5740  134.1410  -21.4680 C.2   900  HEM900      0.0000
     17  C3B      -55.2620  134.3550  -21.5890 C.2   900  HEM900      0.0000
     18  C4B      -54.5870  133.2340  -20.9370 C.2   900  HEM900      0.0000
     19  CMB      -57.6720  135.0160  -22.0610 C.3   900  HEM900      0.0000
     20  CAB      -54.7330  135.5280  -22.0970 C.3   900  HEM900      0.0000
     21  CBB      -54.0690  135.6220  -23.3680 C.3   900  HEM900      0.0000
     22  C1C      -52.5560  131.9740  -20.2030 C.ar  900  HEM900      0.0000
     23  C2C      -51.1190  131.7950  -20.0930 C.ar  900  HEM900      0.0000
     24  C3C      -50.9040  130.5180  -19.6620 C.ar  900  HEM900      0.0000
     25  C4C      -52.2110  129.9490  -19.4700 C.ar  900  HEM900      0.0000
     26  CMC      -50.0390  132.8190  -20.4550 C.3   900  HEM900      0.0000
     27  CAC      -49.7060  129.8540  -19.4250 C.3   900  HEM900      0.0000
     28  CBC      -48.4130  130.1550  -19.9870 C.3   900  HEM900      0.0000
     29  C1D      -53.6560  128.2330  -18.4760 C.2   900  HEM900      0.0000
     30  C2D      -53.8040  127.1040  -17.5830 C.2   900  HEM900      0.0000
     31  C3D      -55.0860  127.0970  -17.1680 C.2   900  HEM900      0.0000
     32  C4D      -55.7310  128.2100  -17.8010 C.2   900  HEM900      0.0000
     33  CMD      -52.6900  126.1830  -17.0960 C.3   900  HEM900      0.0000
     34  CAD      -55.6650  126.1630  -16.1380 C.3   900  HEM900      0.0000
     35  CBD      -55.8070  126.9010  -14.8200 C.3   900  HEM900      0.0000
     36  CGD      -56.4080  126.0340  -13.7430 C.2   900  HEM900      0.0000
     37  O1D      -56.7030  126.5500  -12.6470 O.co2 900  HEM900      0.0000
     38  O2D      -56.5850  124.8280  -13.9900 O.co2 900  HEM900      0.0000
     39  NA       -57.0620  130.5650  -18.9760 N.ar  900  HEM900      0.0000
     40  NB       -55.5140  132.3290  -20.4580 N.2   900  HEM900      0.0000
     41  NC       -53.2150  130.8370  -19.8110 N.ar  900  HEM900      0.0000
     42  ND       -54.8440  128.9120  -18.6070 N.2   900  HEM900      0.0000
     43 FE        -55.2040  130.5740  -19.6550 Fe    900  HEM900      0.0000
@<TRIPOS>BOND
     1    21    20    1
     2    20    17    1
     3    19    16    1
     4    17    16    2
     5    17    18    1
     6    16    15    1
     7    18     3    2
     8    18    40    1
     9     3    22    1
    10    15    40    2
    11    15     2    1
    12    40    43    1
    13    26    23    1
    14    22    23   ar
    15    22    41   ar
    16     2     8    2
    17    23    24   ar
    18    28    27    1
    19    41    43    1
    20    41    25   ar
    21    24    25   ar
    22    24    27    1
    23    43    39    1
    24    43    42    1
    25    25     4    1
    26     8    39   ar
    27     8     7   ar
    28    39     5   ar
    29     4    29    2
    30     9     7    1
    31     7     6   ar
    32    42    29    1
    33    42    32    2
    34    29    30    1
    35     5     6   ar
    36     5     1    2
    37     6    10    1
    38    32     1    1
    39    32    31    1
    40    30    31    2
    41    30    33    1
    42    31    34    1
    43    10    11    1
    44    34    35    1
    45    11    12    1
    46    35    36    1
    47    14    12   ar
    48    12    13   ar
    49    38    36   ar
    50    36    37   ar
