@<TRIPOS>MOLECULE
1n2s_NAD_A_1.pdb
 44 48 0 0 0
SMALL
GASTEIGER

@<TRIPOS>ATOM
      1  PA         8.8150  -13.8630   14.9400 P.3   901  NAD901      0.2189
      2  O1A        9.1120  -15.0550   14.1740 O.2   901  NAD901     -0.5170
      3  O2A        8.0460  -12.7880   14.3520 O.3   901  NAD901     -0.4371
      4  O5B       10.0920  -13.1560   15.5380 O.3   901  NAD901     -0.3112
      5  C5B       11.2360  -13.9310   15.7540 C.3   901  NAD901      0.1813
      6  C4B       12.2910  -13.0890   16.4690 C.3   901  NAD901      0.1821
      7  O4B       13.3720  -13.9430   16.8370 O.3   901  NAD901     -0.3135
      8  C3B       12.7930  -11.9820   15.4880 C.3   901  NAD901      0.2184
      9  O3B       13.0340  -10.7270   16.1270 O.3   901  NAD901     -0.2174
     10  C2B       14.0320  -12.6810   15.0070 C.3   901  NAD901      0.2570
     11  O2B       15.0090  -11.8120   14.5680 O.3   901  NAD901     -0.2130
     12  C1B       14.4830  -13.3070   16.2880 C.3   901  NAD901      0.3186
     13  N9A       15.5880  -14.1860   15.9870 N.pl3 901  NAD901     -0.1439
     14  C8A       15.6970  -15.1500   14.9950 C.3   901  NAD901      0.3377
     15  N7A       16.8870  -15.7190   15.0700 N.2   901  NAD901     -0.2095
     16  C5A       17.5350  -15.1550   16.0870 C.2   901  NAD901      0.2526
     17  C6A       18.7890  -15.3810   16.5430 C.2   901  NAD901      0.4393
     18  N6A       19.6500  -16.3230   16.0120 N.pl3 901  NAD901      0.2180
     19  N1A       19.1740  -14.6500   17.6340 N.2   901  NAD901      0.0021
     20  C2A       18.3600  -13.6960   18.1870 C.3   901  NAD901      0.5254
     21  N3A       17.0850  -13.4460   17.7020 N.2   901  NAD901     -0.0055
     22  C4A       16.7230  -14.1880   16.6610 C.2   901  NAD901      0.3518
     23  O3         8.3060  -14.2720   16.3930 O.3   901  NAD901     -0.2703
     24  PN         6.9660  -13.8250   17.0430 P.3   901  NAD901      0.2189
     25  O1N        6.9620  -12.3530   17.3510 O.3   901  NAD901     -0.4371
     26  O2N        5.9290  -14.5140   16.3050 O.2   901  NAD901     -0.5170
     27  O5D        7.0100  -14.6480   18.4360 O.3   901  NAD901     -0.3112
     28  C5D        7.4300  -14.0680   19.5930 C.3   901  NAD901      0.1813
     29  C4D        7.4060  -15.0050   20.7650 C.3   901  NAD901      0.1799
     30  O4D        6.0780  -15.4710   20.8940 O.3   901  NAD901     -0.3327
     31  C3D        8.3930  -16.1160   20.6690 C.3   901  NAD901      0.2158
     32  O3D        8.6700  -16.4300   21.9600 O.3   901  NAD901     -0.2175
     33  C2D        7.5420  -17.1910   20.1650 C.3   901  NAD901      0.2309
     34  O2D        8.1130  -18.4810   20.2940 O.3   901  NAD901     -0.2158
     35  C1D        6.2290  -16.8470   20.8800 C.3   901  NAD901      0.2263
     36  N1N        5.0720  -17.4390   20.1600 N.pl3 901  NAD901     -0.2787
     37  C2N        4.8300  -17.2320   18.8290 C.3   901  NAD901      0.1244
     38  C3N        3.7720  -17.7620   18.2330 C.2   901  NAD901      0.0544
     39  C7N        3.4930  -17.5610   16.8430 C.2   901  NAD901      0.2818
     40  O7N        2.5450  -18.2080   16.3370 O.2   901  NAD901     -0.2670
     41  N7N        4.3530  -16.7050   16.2440 N.am  901  NAD901     -0.0839
     42  C4N        2.8170  -18.7520   18.8760 C.2   901  NAD901      0.0033
     43  C5N        3.0900  -18.8070   20.3240 C.2   901  NAD901      0.0157
     44  C6N        4.1720  -18.2270   20.8370 C.2   901  NAD901      0.0633
@<TRIPOS>BOND
     1     2     1    2
     2     3     1    1
     3    11    10    1
     4     1     4    1
     5     1    23    1
     6    14    15    1
     7    14    13    1
     8    10     8    1
     9    10    12    1
    10    15    16    2
    11     8     9    1
    12     8     6    1
    13     4     5    1
    14     5     6    1
    15    13    12    1
    16    13    22    1
    17    18    17    1
    18    16    17    1
    19    16    22    1
    20    41    39   am
    21    12     7    1
    22    26    24    2
    23    40    39    2
    24    23    24    1
    25     6     7    1
    26    17    19    2
    27    22    21    2
    28    39    38    1
    29    24    25    1
    30    24    27    1
    31    19    20    1
    32    21    20    1
    33    38    37    1
    34    38    42    2
    35    27    28    1
    36    37    36    1
    37    42    43    1
    38    28    29    1
    39    36    44    1
    40    36    35    1
    41    33    34    1
    42    33    31    1
    43    33    35    1
    44    43    44    2
    45    31    29    1
    46    31    32    1
    47    29    30    1
    48    35    30    1
