@<TRIPOS>MOLECULE
1n2t_PLP_A_1.pdb
 15 15 0 0 0
SMALL
GASTEIGER

@<TRIPOS>ATOM
      1  N1       -59.0710  -11.5810  -27.1850 N.ar  3001  PLP3001    -0.2452
      2  C2       -60.0230  -12.3160  -26.4950 C.ar  3001  PLP3001     0.0978
      3  C2A      -60.5550  -13.6130  -27.1550 C.3   3001  PLP3001     0.0555
      4  C3       -60.4520  -11.8740  -25.2460 C.ar  3001  PLP3001     0.2049
      5  O3       -61.3960  -12.5920  -24.5230 O.3   3001  PLP3001    -0.2857
      6  C4       -59.8880  -10.6560  -24.7140 C.ar  3001  PLP3001     0.0182
      7  C4A      -60.3590  -10.1540  -23.3280 C.3   3001  PLP3001     0.0342
      8  C5       -58.8950   -9.9400  -25.4830 C.ar  3001  PLP3001     0.0261
      9  C6       -58.5180  -10.4330  -26.7030 C.ar  3001  PLP3001     0.0965
     10  C5A      -58.1570   -8.6500  -25.0690 C.3   3001  PLP3001     0.1815
     11  O4P      -57.0810   -8.7840  -24.1670 O.3   3001  PLP3001    -0.2653
     12  P        -56.1010   -7.6270  -23.7500 P.3   3001  PLP3001     0.5329
     13  O1P      -55.2930   -7.3380  -24.9530 O.2   3001  PLP3001    -0.2224
     14  O2P      -55.2200   -8.5730  -22.8000 O.3   3001  PLP3001    -0.1145
     15  O3P      -56.7080   -6.5170  -22.9660 O.3   3001  PLP3001    -0.1145
@<TRIPOS>BOND
     1     1     9   ar
     2     1     2   ar
     3     3     2    1
     4     9     8   ar
     5     2     4   ar
     6     8    10    1
     7     8     6   ar
     8     4     6   ar
     9     4     5    1
    10    10    11    1
    11    13    12    2
    12     6     7    1
    13    11    12    1
    14    12    15    1
    15    12    14    1
