@<TRIPOS>MOLECULE
1n2v_BDI_A_1.pdb
 15 16 0 0 0
SMALL
GASTEIGER

@<TRIPOS>ATOM
      1  N1        15.4350   16.8530   20.4090 N.2   900  BDI900     -0.3284
      2  C1        16.5900   17.0760   19.8060 C.1   900  BDI900      0.1153
      3  C6        16.7440   17.0260   18.2840 C.3   900  BDI900      0.1249
      4  C7        15.6650   17.7690   17.4320 C.3   900  BDI900      0.0181
      5  C8        16.3420   18.3730   16.1580 C.3   900  BDI900      0.0012
      6  C9        15.3430   19.1170   15.2380 C.3   900  BDI900      0.0000
      7  N2        17.4900   17.3220   20.6050 N.2   900  BDI900     -0.3284
      8  C2        17.0380   17.3010   21.9580 C.2   900  BDI900      0.2682
      9  C4        17.7020   17.5270   23.2770 C.1   900  BDI900      0.2079
     10  N5        16.8750   17.4100   24.4010 N.2   900  BDI900     -0.0598
     11  N4        15.4120   17.0790   24.3150 N.2   900  BDI900     -0.0598
     12  C5        14.7400   16.8560   23.0980 C.1   900  BDI900      0.2079
     13  O1        13.5080   16.5760   23.0100 O.2   900  BDI900     -0.2177
     14  C3        15.6460   16.9830   21.8390 C.2   900  BDI900      0.2682
     15  O3        18.9000   17.7960   23.3310 O.2   900  BDI900     -0.2177
@<TRIPOS>BOND
     1     6     5    1
     2     5     4    1
     3     4     3    1
     4     3     2    1
     5     2     1    2
     6     2     7    2
     7     1    14    2
     8     7     8    2
     9    14     8    1
    10    14    12    1
    11     8     9    1
    12    13    12    2
    13    12    11    2
    14     9    15    2
    15     9    10    2
    16    11    10    1
