@<TRIPOS>MOLECULE
1n2x_SAM_A_1.pdb
 27 29 0 0 0
SMALL
GASTEIGER

@<TRIPOS>ATOM
      1  N        -44.1230  -13.5680   -2.1020 N.3   401  SAM401     -0.1208
      2  CA       -43.4060  -12.7150   -1.1600 C.3   401  SAM401      0.1952
      3  C        -44.3360  -12.2420   -0.0350 C.2   401  SAM401      0.3819
      4  O        -43.8130  -11.7340    0.9800 O.co2 401  SAM401     -0.2441
      5  OXT      -45.5360  -12.5920   -0.0820 O.co2 401  SAM401     -0.2441
      6  CB       -42.7880  -11.5090   -1.8960 C.3   401  SAM401      0.0414
      7  CG       -41.6570  -11.8770   -2.8770 C.3   401  SAM401      0.0503
      8  SD       -40.8550  -10.4240   -3.6710 S.3   401  SAM401     -0.1761
      9  CE       -42.0240   -9.7180   -4.8550 C.3   401  SAM401      0.0590
     10  C5'      -39.6450  -11.2510   -4.8040 C.3   401  SAM401      0.0806
     11  C4'      -38.5700  -11.9120   -3.9700 C.3   401  SAM401      0.1622
     12  O4'      -37.7340  -12.7830   -4.7920 O.3   401  SAM401     -0.3153
     13  C3'      -37.6040  -10.9690   -3.2470 C.3   401  SAM401      0.2168
     14  O3'      -37.5670  -11.2920   -1.8680 O.3   401  SAM401     -0.2175
     15  C2'      -36.2480  -11.2820   -3.9000 C.3   401  SAM401      0.2569
     16  O2'      -35.1500  -11.1410   -3.0210 O.3   401  SAM401     -0.2130
     17  C1'      -36.4240  -12.7500   -4.2780 C.3   401  SAM401      0.3185
     18  N9       -35.5010  -13.2530   -5.2970 N.pl3 401  SAM401     -0.1439
     19  C8       -34.9430  -12.5760   -6.3590 C.3   401  SAM401      0.3377
     20  N7       -34.1670  -13.3230   -7.1150 N.2   401  SAM401     -0.2095
     21  C5       -34.2110  -14.5710   -6.5100 C.2   401  SAM401      0.2526
     22  C6       -33.6000  -15.7980   -6.8330 C.2   401  SAM401      0.4393
     23  N6       -32.7780  -15.9630   -7.8890 N.pl3 401  SAM401      0.2180
     24  N1       -33.8560  -16.8580   -6.0330 N.2   401  SAM401      0.0021
     25  C2       -34.6660  -16.6840   -4.9660 C.3   401  SAM401      0.5254
     26  N3       -35.2910  -15.5670   -4.5570 N.2   401  SAM401     -0.0055
     27  C4       -35.0230  -14.5430   -5.3830 C.2   401  SAM401      0.3518
@<TRIPOS>BOND
     1    23    22    1
     2    20    21    2
     3    20    19    1
     4    22    21    1
     5    22    24    2
     6    21    27    1
     7    19    18    1
     8    24    25    1
     9    27    18    1
    10    27    26    2
    11    18    17    1
    12    25    26    1
    13     9     8    1
    14    10    11    1
    15    10     8    1
    16    12    17    1
    17    12    11    1
    18    17    15    1
    19    11    13    1
    20    15    13    1
    21    15    16    1
    22     8     7    1
    23    13    14    1
    24     7     6    1
    25     1     2    1
    26     6     2    1
    27     2     3    1
    28     5     3   ar
    29     3     4   ar
