@<TRIPOS>MOLECULE
1n31_PLP_A_1.pdb
 15 15 0 0 0
SMALL
GASTEIGER

@<TRIPOS>ATOM
      1  N1       -58.9090  -11.4790  -27.2350 N.ar  2001  PLP2001    -0.2452
      2  C2       -59.9150  -12.1930  -26.6170 C.ar  2001  PLP2001     0.0978
      3  C2A      -60.4540  -13.4570  -27.3200 C.3   2001  PLP2001     0.0555
      4  C3       -60.3990  -11.7610  -25.3890 C.ar  2001  PLP2001     0.2049
      5  O3       -61.3980  -12.4630  -24.7530 O.3   2001  PLP2001    -0.2857
      6  C4       -59.8500  -10.5620  -24.8100 C.ar  2001  PLP2001     0.0182
      7  C4A      -60.3860  -10.0420  -23.4600 C.3   2001  PLP2001     0.0342
      8  C5       -58.8060   -9.8720  -25.4910 C.ar  2001  PLP2001     0.0261
      9  C6       -58.3670  -10.3470  -26.6950 C.ar  2001  PLP2001     0.0965
     10  C5A      -58.0750   -8.6040  -25.0140 C.3   2001  PLP2001     0.1815
     11  O4P      -57.0380   -8.7700  -24.0650 O.3   2001  PLP2001    -0.2653
     12  P        -56.0720   -7.6140  -23.6080 P.3   2001  PLP2001     0.5329
     13  O1P      -55.2180   -7.3280  -24.7730 O.2   2001  PLP2001    -0.2224
     14  O2P      -55.2330   -8.5670  -22.6290 O.3   2001  PLP2001    -0.1145
     15  O3P      -56.7080   -6.5090  -22.8550 O.3   2001  PLP2001    -0.1145
@<TRIPOS>BOND
     1     3     2    1
     2     1     9   ar
     3     1     2   ar
     4     9     8   ar
     5     2     4   ar
     6     8    10    1
     7     8     6   ar
     8     4     6   ar
     9     4     5    1
    10    10    11    1
    11     6     7    1
    12    13    12    2
    13    11    12    1
    14    12    15    1
    15    12    14    1
