@<TRIPOS>MOLECULE
1n35_CH1_A_1.pdb
 28 29 0 0 0
SMALL
GASTEIGER

@<TRIPOS>ATOM
      1  N1        -7.2900   89.7260   19.0590 N.am  1291  CH11291    -0.1779
      2  C2        -7.5640   88.3650   19.2600 C.1   1291  CH11291     0.2756
      3  N3        -8.4050   87.9240   20.2120 N.2   1291  CH11291    -0.3024
      4  C4        -9.0410   88.8020   21.0390 C.2   1291  CH11291     0.2346
      5  C5        -8.8300   90.1840   20.9160 C.2   1291  CH11291     0.0687
      6  C6        -7.9430   90.5980   19.9070 C.2   1291  CH11291     0.0836
      7  O2        -7.0430   87.4560   18.5710 O.2   1291  CH11291    -0.1925
      8  N4        -9.8620   88.2880   21.9580 N.pl3 1291  CH11291    -0.0921
      9  C1'       -6.3280   90.1940   17.9740 C.3   1291  CH11291     0.2373
     10  C2'       -6.9590   90.2160   16.5790 C.3   1291  CH11291     0.2019
     11  O2'       -7.0280   88.8960   16.0720 O.3   1291  CH11291    -0.2185
     12  C3'       -6.0520   91.1200   15.8050 C.3   1291  CH11291     0.0695
     13  C4'       -5.3630   91.9720   16.8770 C.3   1291  CH11291     0.1498
     14  O4'       -5.8890   91.5380   18.1430 O.3   1291  CH11291    -0.3347
     15  C5'       -5.6870   93.4050   16.5070 C.3   1291  CH11291     0.1786
     16  O5'       -6.4670   94.0500   17.4890 O.3   1291  CH11291    -0.3113
     17  PA        -7.6810   95.1190   17.1330 P.3   1291  CH11291     0.2189
     18  O1A       -7.0360   96.5010   16.8060 O.2   1291  CH11291    -0.5170
     19  O2A       -8.5380   95.2140   18.4140 O.3   1291  CH11291    -0.4371
     20  O3A       -8.4840   94.4550   15.8150 O.3   1291  CH11291    -0.2700
     21  PB        -8.7720   95.3570   14.4530 P.3   1291  CH11291     0.2277
     22  O1B       -9.5260   94.4000   13.4580 O.2   1291  CH11291    -0.5168
     23  O2B       -7.4190   95.8290   13.8180 O.3   1291  CH11291    -0.4368
     24  O3B       -9.8260   96.6130   14.8220 O.3   1291  CH11291    -0.2258
     25  PG        -9.9180   97.9940   13.9170 P.3   1291  CH11291     0.5373
     26  O1G       -8.7820   98.4930   12.9670 O.2   1291  CH11291    -0.2221
     27  O2G      -10.9880   99.0420   14.4550 O.3   1291  CH11291    -0.1143
     28  O3G       -8.9270   98.5270   15.0190 O.3   1291  CH11291    -0.1143
@<TRIPOS>BOND
     1    26    25    2
     2    22    21    2
     3    23    21    1
     4    25    27    1
     5    25    24    1
     6    25    28    1
     7    21    24    1
     8    21    20    1
     9    12    10    1
    10    12    13    1
    11    20    17    1
    12    11    10    1
    13    15    13    1
    14    15    16    1
    15    10     9    1
    16    18    17    2
    17    13    14    1
    18    17    16    1
    19    17    19    1
    20     9    14    1
    21     9     1    1
    22     7     2    2
    23     1     2   am
    24     1     6    1
    25     2     3    2
    26     6     5    2
    27     3     4    2
    28     5     4    1
    29     4     8    1
