@<TRIPOS>MOLECULE
1n38_U3H_A_1.pdb
 28 29 0 0 0
SMALL
GASTEIGER

@<TRIPOS>ATOM
      1  N1        -6.9420   90.5220   18.8390 N.am  1291  U3H1291    -0.1767
      2  C6        -7.5980   91.3030   19.7670 C.2   1291  U3H1291     0.0929
      3  C2        -7.2710   88.9570   19.1300 C.1   1291  U3H1291     0.2845
      4  O2        -6.7900   88.0680   18.4270 O.2   1291  U3H1291    -0.1918
      5  N3        -8.1220   88.6680   20.1930 N.2   1291  U3H1291    -0.2452
      6  C4        -8.7210   89.5850   21.0590 C.1   1291  U3H1291     0.2182
      7  O4        -9.4500   89.1700   21.9640 O.2   1291  U3H1291    -0.2085
      8  C5        -8.4220   90.9800   20.7930 C.2   1291  U3H1291     0.1242
      9  C1'       -6.0020   90.8240   17.6730 C.3   1291  U3H1291     0.2373
     10  C2'       -6.5720   90.5630   16.2650 C.3   1291  U3H1291     0.2019
     11  O2'       -5.7330   89.6530   15.5720 O.3   1291  U3H1291    -0.2185
     12  C3'       -6.7080   91.8890   15.5750 C.3   1291  U3H1291     0.0695
     13  C4'       -5.8060   92.8000   16.3750 C.3   1291  U3H1291     0.1498
     14  O4'       -5.4690   92.1850   17.6380 O.3   1291  U3H1291    -0.3347
     15  C5'       -6.3310   94.2470   16.2750 C.3   1291  U3H1291     0.1786
     16  O5'       -6.5100   95.0090   17.4550 O.3   1291  U3H1291    -0.3113
     17  PA        -7.7400   96.1260   17.4780 P.3   1291  U3H1291     0.2189
     18  O1A       -7.1600   97.5380   17.1320 O.2   1291  U3H1291    -0.5170
     19  O2A       -8.3410   96.1050   18.9110 O.3   1291  U3H1291    -0.4371
     20  O3A       -8.7490   95.5150   16.2600 O.3   1291  U3H1291    -0.2700
     21  PB        -9.0710   96.3460   14.8580 P.3   1291  U3H1291     0.2277
     22  O1B      -10.0090   95.4150   13.9950 O.2   1291  U3H1291    -0.5168
     23  O2B       -7.7510   96.6340   14.0570 O.3   1291  U3H1291    -0.4368
     24  O3B       -9.9880   97.7030   15.2610 O.3   1291  U3H1291    -0.2258
     25  PG       -10.1800   99.0070   14.2720 P.3   1291  U3H1291     0.5373
     26  O1G       -9.4170   99.2120   12.9190 O.2   1291  U3H1291    -0.2221
     27  O2G      -11.1020  100.1710   14.8710 O.3   1291  U3H1291    -0.1143
     28  O3G       -8.8950   99.5980   14.9930 O.3   1291  U3H1291    -0.1143
@<TRIPOS>BOND
     1    26    25    2
     2    22    21    2
     3    23    21    1
     4    25    27    1
     5    25    28    1
     6    25    24    1
     7    21    24    1
     8    21    20    1
     9    11    10    1
    10    12    10    1
    11    12    13    1
    12    20    17    1
    13    10     9    1
    14    15    13    1
    15    15    16    1
    16    13    14    1
    17    18    17    2
    18    16    17    1
    19    17    19    1
    20    14     9    1
    21     9     1    1
    22     4     3    2
    23     1     3   am
    24     1     2    1
    25     3     5    2
    26     2     8    2
    27     5     6    2
    28     8     6    1
    29     6     7    2
