@<TRIPOS>MOLECULE
1n38_NUC_B_1.pdb
 43 47 0 0 0
SMALL
GASTEIGER

@<TRIPOS>ATOM
      1  OP3      -11.1120   95.6930   32.6290 O.3   1275  RG1275     -0.1145
      2  P        -11.5910   95.6340   31.1760 P.3   1275  RG1275      0.5327
      3  OP1      -12.7930   96.5370   30.9360 O.3   1275  RG1275     -0.1145
      4  OP2      -11.8150   94.2160   30.6640 O.2   1275  RG1275     -0.2224
      5  O5'      -10.3680   96.2520   30.2870 O.3   1275  RG1275     -0.2675
      6  C5'      -10.1820   95.8800   28.9030 C.3   1275  RG1275      0.1858
      7  C4'       -8.7320   95.5390   28.6540 C.3   1275  RG1275      0.1772
      8  O4'       -8.3540   94.4400   29.5350 O.3   1275  RG1275     -0.3327
      9  C3'       -8.3730   95.0230   27.2670 C.3   1275  RG1275      0.1857
     10  O3'       -8.1310   96.0610   26.3180 O.3   1275  RG1275     -0.3112
     11  C2'       -7.0740   94.2910   27.5510 C.3   1275  RG1275      0.2282
     12  O2'       -6.0370   95.2280   27.7290 O.3   1275  RG1275     -0.2159
     13  C1'       -7.3870   93.6230   28.8910 C.3   1275  RG1275      0.2292
     14  N9        -7.9320   92.2720   28.7420 N.pl3 1275  RG1275     -0.2354
     15  C8        -9.2390   91.8790   28.9160 C.3   1275  RG1275      0.2246
     16  N7        -9.4240   90.6030   28.7030 N.2   1275  RG1275     -0.2322
     17  C5        -8.1650   90.1200   28.3680 C.2   1275  RG1275      0.2182
     18  C6        -7.7410   88.8010   28.0250 C.1   1275  RG1275      0.2372
     19  O6        -8.4160   87.7690   27.9370 O.2   1275  RG1275     -0.2069
     20  N1        -6.3780   88.7530   27.7620 N.2   1275  RG1275     -0.2485
     21  C2        -5.5250   89.8260   27.8120 C.1   1275  RG1275      0.2531
     22  N2        -4.2410   89.5590   27.5140 N.pl3 1275  RG1275     -0.0226
     23  N3        -5.9020   91.0610   28.1260 N.2   1275  RG1275     -0.3074
     24  C4        -7.2280   91.1340   28.3910 C.2   1275  RG1275      0.2300
     25  P         -8.1950   95.7210   24.7430 P.3   1276  RC1276      0.2141
     26  OP1       -9.0830   96.7100   24.0780 O.2   1276  RC1276     -0.5172
     27  OP2       -8.4960   94.2700   24.6190 O.3   1276  RC1276     -0.4373
     28  O5'       -6.7230   95.9670   24.1810 O.3   1276  RC1276     -0.3115
     29  C5'       -6.5190   96.0790   22.7720 C.3   1276  RC1276      0.1786
     30  C4'       -5.3140   95.2780   22.3290 C.3   1276  RC1276      0.1498
     31  O4'       -4.9590   94.2740   23.3140 O.3   1276  RC1276     -0.3347
     32  C3'       -5.5460   94.5120   21.0350 C.3   1276  RC1276      0.0695
     33  C2'       -4.5660   93.3480   21.1400 C.3   1276  RC1276      0.2019
     34  O2'       -3.2940   93.7000   20.6410 O.3   1276  RC1276     -0.2185
     35  C1'       -4.5020   93.1020   22.6540 C.3   1276  RC1276      0.2373
     36  N1        -5.2290   91.9340   23.2140 N.am  1276  RC1276     -0.1779
     37  C2        -5.1750   90.6640   22.5610 C.1   1276  RC1276      0.2756
     38  O2        -4.5610   90.5430   21.4790 O.2   1276  RC1276     -0.1925
     39  N3        -5.8050   89.6000   23.1360 N.2   1276  RC1276     -0.3024
     40  C4        -6.4670   89.7500   24.2830 C.2   1276  RC1276      0.2346
     41  N4        -7.0380   88.6700   24.8090 N.pl3 1276  RC1276     -0.0921
     42  C5        -6.5640   91.0170   24.9450 C.2   1276  RC1276      0.0687
     43  C6        -5.9350   92.0680   24.3810 C.2   1276  RC1276      0.0836
@<TRIPOS>BOND
     1    34    33    1
     2    32    33    1
     3    32    30    1
     4    33    35    1
     5    38    37    2
     6    30    29    1
     7    30    31    1
     8    37    39    2
     9    37    36   am
    10    35    36    1
    11    35    31    1
    12    29    28    1
    13    39    40    2
    14    36    43    1
    15    26    25    2
    16    28    25    1
    17    40    41    1
    18    40    42    1
    19    43    42    2
    20    27    25    1
    21    25    10    1
    22    10     9    1
    23     9    11    1
    24     9     7    1
    25    22    21    1
    26    11    12    1
    27    11    13    1
    28    20    21    2
    29    20    18    2
    30    21    23    2
    31    19    18    2
    32    18    17    1
    33    23    24    2
    34    17    24    1
    35    17    16    2
    36    24    14    1
    37     7     6    1
    38     7     8    1
    39    16    15    1
    40    14    13    1
    41    14    15    1
    42    13     8    1
    43     6     5    1
    44     5     2    1
    45     4     2    2
    46     3     2    1
    47     2     1    1
