@<TRIPOS>MOLECULE
1n38_CH1_A_1.pdb
 28 29 0 0 0
SMALL
GASTEIGER

@<TRIPOS>ATOM
      1  N1       -34.5870   88.0030   52.0610 N.am  1294  CH11294    -0.1779
      2  C2       -33.4020   88.0820   52.8090 C.1   1294  CH11294     0.2756
      3  N3       -33.3420   87.8020   54.1230 N.2   1294  CH11294    -0.3024
      4  C4       -34.4620   87.4460   54.8140 C.2   1294  CH11294     0.2346
      5  C5       -35.7050   87.3470   54.1550 C.2   1294  CH11294     0.0687
      6  C6       -35.7120   87.6460   52.7790 C.2   1294  CH11294     0.0836
      7  O2       -32.3040   88.3930   52.3090 O.2   1294  CH11294    -0.1925
      8  N4       -34.3240   87.1830   56.1180 N.pl3 1294  CH11294    -0.0921
      9  C1'      -34.6180   88.3210   50.5560 C.3   1294  CH11294     0.2373
     10  C2'      -34.1780   87.1190   49.7040 C.3   1294  CH11294     0.2019
     11  O2'      -32.7600   87.0330   49.6890 O.3   1294  CH11294    -0.2185
     12  C3'      -34.7870   87.3760   48.3530 C.3   1294  CH11294     0.0695
     13  C4'      -35.9390   88.3480   48.6270 C.3   1294  CH11294     0.1498
     14  O4'      -35.9280   88.5980   50.0560 O.3   1294  CH11294    -0.3347
     15  C5'      -37.1780   87.6300   48.1150 C.3   1294  CH11294     0.1786
     16  O5'      -38.0800   87.3240   49.1620 O.3   1294  CH11294    -0.3113
     17  PA       -39.0980   88.3750   49.9580 P.3   1294  CH11294     0.2189
     18  O1A      -40.5640   88.0030   49.5540 O.3   1294  CH11294    -0.4371
     19  O2A      -38.7320   89.7950   49.4470 O.2   1294  CH11294    -0.5170
     20  O3A      -38.7900   88.1480   51.6100 O.3   1294  CH11294    -0.2700
     21  PB       -39.9770   88.2800   52.7810 P.3   1294  CH11294     0.2277
     22  O1B      -39.2530   87.9910   54.1550 O.3   1294  CH11294    -0.4368
     23  O2B      -41.1060   87.2150   52.5390 O.2   1294  CH11294    -0.5168
     24  O3B      -40.5620   89.8570   52.8520 O.3   1294  CH11294    -0.2258
     25  PG       -40.6540   90.7030   54.2780 P.3   1294  CH11294     0.5373
     26  O1G      -40.6770   90.0290   55.6970 O.3   1294  CH11294    -0.1143
     27  O2G      -41.2310   92.1760   54.1130 O.2   1294  CH11294    -0.2221
     28  O3G      -42.1410   90.1850   54.2540 O.3   1294  CH11294    -0.1143
@<TRIPOS>BOND
     1    15    13    1
     2    15    16    1
     3    12    13    1
     4    12    10    1
     5    13    14    1
     6    16    17    1
     7    19    17    2
     8    18    17    1
     9    11    10    1
    10    10     9    1
    11    17    20    1
    12    14     9    1
    13     9     1    1
    14    20    21    1
    15     1     6    1
    16     1     2   am
    17     7     2    2
    18    23    21    2
    19     6     5    2
    20    21    24    1
    21    21    22    1
    22     2     3    2
    23    24    25    1
    24    27    25    2
    25     3     4    2
    26     5     4    1
    27    28    25    1
    28    25    26    1
    29     4     8    1
