@<TRIPOS>MOLECULE
1n3i_DIH_A_1.pdb
 19 21 0 0 0
SMALL
GASTEIGER

@<TRIPOS>ATOM
      1  O5'       54.7860   13.5760   44.0320 O.3   401  DIH401     -0.2203
      2  C5'       54.9630   14.9140   44.4710 C.3   401  DIH401      0.1860
      3  C4'       56.2460   15.6180   44.7340 C.3   401  DIH401      0.0807
      4  C6'       57.0460   15.6340   43.5030 C.3   401  DIH401      0.0776
      5  C3'       56.0710   17.0320   45.1720 C.3   401  DIH401      0.1717
      6  O3'       56.9050   17.4660   46.2280 O.3   401  DIH401     -0.2215
      7  C2'       56.2120   17.6320   43.8270 C.3   401  DIH401      0.1057
      8  N1'       57.3550   17.0200   43.2100 N.3   401  DIH401     -0.2665
      9  C10       57.5110   17.2290   41.7890 C.3   401  DIH401      0.1023
     10  C9        56.6420   16.7970   40.6660 C.2   401  DIH401      0.0325
     11  C8        56.7440   15.6870   39.8370 C.2   401  DIH401      0.0983
     12  N7        55.8070   15.5800   38.9250 N.2   401  DIH401     -0.2310
     13  C5        54.9980   16.6890   39.1290 C.2   401  DIH401      0.1804
     14  C6        53.7860   17.1310   38.4300 C.1   401  DIH401      0.1716
     15  O6        53.2380   16.5700   37.4840 O.2   401  DIH401     -0.2206
     16  N1        53.2170   18.3510   38.9360 N.2   401  DIH401     -0.1739
     17  C2        53.7530   19.1040   40.0300 C.3   401  DIH401      0.2626
     18  N3        54.9020   18.6860   40.6950 N.2   401  DIH401     -0.2415
     19  C4        55.4900   17.4660   40.2070 C.2   401  DIH401      0.1058
@<TRIPOS>BOND
     1    15    14    2
     2    14    16    2
     3    14    13    1
     4    12    13    2
     5    12    11    1
     6    16    17    1
     7    13    19    1
     8    11    10    2
     9    17    18    1
    10    19    10    1
    11    19    18    2
    12    10     9    1
    13     9     8    1
    14     8     4    1
    15     8     7    1
    16     4     3    1
    17     7     5    1
    18     1     2    1
    19     2     3    1
    20     3     5    1
    21     5     6    1
