@<TRIPOS>MOLECULE
1n3o_GYP_A_1.pdb
 13 13 0 0 0
SMALL
GASTEIGER

@<TRIPOS>ATOM
      1  C1         4.4940   41.8900   25.4120 C.3   1001  GYP1001     0.2695
      2  C2         3.4370   40.9350   24.8510 C.3   1001  GYP1001     0.2406
      3  C3         2.8970   40.0630   25.9780 C.3   1001  GYP1001     0.2198
      4  C4         4.0440   39.3190   26.6550 C.3   1001  GYP1001     0.2144
      5  C5         5.0930   40.3240   27.1430 C.3   1001  GYP1001     0.1835
      6  C6         6.3140   39.6440   27.7440 C.3   1001  GYP1001     0.2142
      7  C7         4.7120   43.7690   26.8840 C.3   1001  GYP1001     0.1769
      8  O1         3.9080   42.7170   26.3630 O.3   1001  GYP1001    -0.3259
      9  O2         2.3740   41.6790   24.2770 O.3   1001  GYP1001    -0.2149
     10  O3         1.9560   39.1390   25.4630 O.3   1001  GYP1001    -0.2174
     11  O4         3.5410   38.5790   27.7540 O.3   1001  GYP1001    -0.2176
     12  O5         5.5540   41.1430   26.0420 O.3   1001  GYP1001    -0.3256
     13  O6         6.9970   38.8540   26.7790 O.3   1001  GYP1001    -0.2176
@<TRIPOS>BOND
     1     9     2    1
     2     2     1    1
     3     2     3    1
     4     1    12    1
     5     1     8    1
     6    10     3    1
     7     3     4    1
     8    12     5    1
     9     8     7    1
    10     4     5    1
    11     4    11    1
    12    13     6    1
    13     5     6    1
