@<TRIPOS>MOLECULE
1n3p_FRU_A_1.pdb
 12 12 0 0 0
SMALL
GASTEIGER

@<TRIPOS>ATOM
      1  C1         2.8840   44.7480   27.5300 C.3   254  FRU254      0.2434
      2  C2         3.9590   43.9460   28.3880 C.3   254  FRU254      0.2807
      3  C3         3.8150   44.0350   29.8990 C.3   254  FRU254      0.2409
      4  C4         5.2040   43.6870   30.4700 C.3   254  FRU254      0.2168
      5  C5         6.0860   44.2530   29.3800 C.3   254  FRU254      0.1836
      6  C6         7.1540   43.2470   28.9690 C.3   254  FRU254      0.2142
      7  O1         2.9320   46.1740   27.8030 O.3   254  FRU254     -0.2148
      8  O2         3.8560   42.5010   28.0730 O.3   254  FRU254     -0.1896
      9  O3         2.8170   43.4780   30.7510 O.3   254  FRU254     -0.2149
     10  O4         5.4070   44.2940   31.7380 O.3   254  FRU254     -0.2175
     11  O5         5.1800   44.6800   28.2730 O.3   254  FRU254     -0.3253
     12  O6         8.2640   43.9930   28.6770 O.3   254  FRU254     -0.2176
@<TRIPOS>BOND
     1     1     7    1
     2     1     2    1
     3     8     2    1
     4    11     2    1
     5    11     5    1
     6     2     3    1
     7    12     6    1
     8     6     5    1
     9     5     4    1
    10     3     4    1
    11     3     9    1
    12     4    10    1
