@<TRIPOS>MOLECULE
1n3p_GLC_A_1.pdb
 11 11 0 0 0
SMALL
GASTEIGER

@<TRIPOS>ATOM
      1  C1         4.4530   42.0930   26.8690 C.3   253  GLC253      0.1777
      2  C2         3.3860   41.4170   25.9950 C.3   253  GLC253      0.2141
      3  C3         2.8220   40.2050   26.7420 C.3   253  GLC253      0.2173
      4  C4         3.9390   39.2500   27.1810 C.3   253  GLC253      0.2142
      5  C5         5.0600   40.0090   27.9040 C.3   253  GLC253      0.1810
      6  C6         6.2760   39.1480   28.1850 C.3   253  GLC253      0.2141
      7  O2         2.3330   42.3270   25.7100 O.3   253  GLC253     -0.2176
      8  O3         1.9020   39.5160   25.9140 O.3   253  GLC253     -0.2175
      9  O4         3.3940   38.2870   28.0650 O.3   253  GLC253     -0.2176
     10  O5         5.4900   41.1450   27.1140 O.3   253  GLC253     -0.3481
     11  O6         6.9930   38.8570   26.9950 O.3   253  GLC253     -0.2176
@<TRIPOS>BOND
     1     7     2    1
     2     8     3    1
     3     2     3    1
     4     2     1    1
     5     3     4    1
     6     1    10    1
     7    11     6    1
     8    10     5    1
     9     4     5    1
    10     4     9    1
    11     5     6    1
