@<TRIPOS>MOLECULE
1n3q_FRU_A_1.pdb
 12 12 0 0 0
SMALL
GASTEIGER

@<TRIPOS>ATOM
      1  C1         5.8280   43.3680   29.7700 C.3   254  FRU254      0.2434
      2  C2         4.7700   44.2350   28.9870 C.3   254  FRU254      0.2807
      3  C3         4.5400   43.8330   27.5410 C.3   254  FRU254      0.2409
      4  C4         3.9850   45.1090   26.8760 C.3   254  FRU254      0.2168
      5  C5         4.8380   46.1350   27.5780 C.3   254  FRU254      0.1836
      6  C6         3.9040   47.2870   27.9720 C.3   254  FRU254      0.2142
      7  O1         7.0750   43.2710   29.0410 O.3   254  FRU254     -0.2148
      8  O2         3.6300   44.2500   29.8250 O.3   254  FRU254     -0.1896
      9  O3         3.8360   42.7060   27.0160 O.3   254  FRU254     -0.2149
     10  O4         4.3080   44.9700   25.5070 O.3   254  FRU254     -0.2175
     11  O5         5.4710   45.4420   28.7240 O.3   254  FRU254     -0.3253
     12  O6         4.7310   48.3400   28.2640 O.3   254  FRU254     -0.2176
@<TRIPOS>BOND
     1    10     4    1
     2     4     3    1
     3     4     5    1
     4     9     3    1
     5     3     2    1
     6     5     6    1
     7     5    11    1
     8     6    12    1
     9    11     2    1
    10     2     1    1
    11     2     8    1
    12     7     1    1
