@<TRIPOS>MOLECULE
1n3q_BDF_B_1.pdb
 12 12 0 0 0
SMALL
GASTEIGER

@<TRIPOS>ATOM
      1  C1        -2.8830  -16.8580  -16.4490 C.3   254  BDF254      0.2434
      2  C2        -1.9620  -16.4250  -17.5790 C.3   254  BDF254      0.2807
      3  C3        -1.9420  -14.8770  -17.7380 C.3   254  BDF254      0.2410
      4  C4        -1.2120  -14.4990  -19.0320 C.3   254  BDF254      0.2198
      5  C5        -1.7650  -15.2280  -20.2540 C.3   254  BDF254      0.2143
      6  C6        -1.7600  -16.7210  -19.9760 C.3   254  BDF254      0.1803
      7  O1        -4.2210  -16.4130  -16.6310 O.3   254  BDF254     -0.2148
      8  O2        -0.6340  -16.9180  -17.3820 O.3   254  BDF254     -0.1896
      9  O3        -1.2500  -14.2690  -16.6330 O.3   254  BDF254     -0.2149
     10  O4        -1.2790  -13.0850  -19.2440 O.3   254  BDF254     -0.2174
     11  O5        -3.1150  -14.8050  -20.5340 O.3   254  BDF254     -0.2176
     12  O6        -2.5180  -17.0030  -18.7690 O.3   254  BDF254     -0.3254
@<TRIPOS>BOND
     1    11     5    1
     2     5     6    1
     3     5     4    1
     4     6    12    1
     5    10     4    1
     6     4     3    1
     7    12     2    1
     8     3     2    1
     9     3     9    1
    10     2     8    1
    11     2     1    1
    12     7     1    1
