@<TRIPOS>MOLECULE
1n3q_GLC_A_1.pdb
 11 11 0 0 0
SMALL
GASTEIGER

@<TRIPOS>ATOM
      1  C1         4.5170   41.9970   26.0190 C.3   253  GLC253      0.1777
      2  C2         3.4980   41.1170   25.2900 C.3   253  GLC253      0.2141
      3  C3         2.9560   40.0480   26.2470 C.3   253  GLC253      0.2173
      4  C4         4.0930   39.2480   26.8830 C.3   253  GLC253      0.2142
      5  C5         5.1210   40.1910   27.5120 C.3   253  GLC253      0.1810
      6  C6         6.3530   39.4660   28.0290 C.3   253  GLC253      0.2141
      7  O2         2.4210   41.9260   24.8420 O.3   253  GLC253     -0.2176
      8  O3         2.0950   39.1700   25.5430 O.3   253  GLC253     -0.2175
      9  O4         3.5600   38.4010   27.8870 O.3   253  GLC253     -0.2176
     10  O5         5.5610   41.1760   26.5450 O.3   253  GLC253     -0.3481
     11  O6         7.0440   38.7920   26.9850 O.3   253  GLC253     -0.2176
@<TRIPOS>BOND
     1     7     2    1
     2     2     1    1
     3     2     3    1
     4     8     3    1
     5     1    10    1
     6     3     4    1
     7    10     5    1
     8     4     5    1
     9     4     9    1
    10    11     6    1
    11     5     6    1
