@<TRIPOS>MOLECULE
1n3r_GTP_A_1.pdb
 32 34 0 0 0
SMALL
GASTEIGER

@<TRIPOS>ATOM
      1  PG       224.8550   62.8820    6.6080 P.3   1415  GTP1415     0.5373
      2  O1G      224.7480   62.7670    5.1110 O.2   1415  GTP1415    -0.2221
      3  O2G      224.6200   61.6090    7.3980 O.3   1415  GTP1415    -0.1143
      4  O3G      224.0410   63.9940    7.0330 O.3   1415  GTP1415    -0.1143
      5  O3B      226.3690   63.3070    6.8330 O.3   1415  GTP1415    -0.2258
      6  PB       227.1530   64.6270    6.3120 P.3   1415  GTP1415     0.2277
      7  O1B      227.9100   64.2260    5.0450 O.2   1415  GTP1415    -0.5168
      8  O2B      226.2100   65.7340    6.1150 O.3   1415  GTP1415    -0.4368
      9  O3A      228.1030   64.8810    7.5220 O.3   1415  GTP1415    -0.2700
     10  PA       228.2690   66.1020    8.5540 P.3   1415  GTP1415     0.2189
     11  O1A      229.4380   65.8660    9.3690 O.3   1415  GTP1415    -0.4371
     12  O2A      228.2620   67.3170    7.6610 O.2   1415  GTP1415    -0.5170
     13  O5'      226.9820   66.0650    9.6340 O.3   1415  GTP1415    -0.3112
     14  C5'      225.6290   66.3400    9.0540 C.3   1415  GTP1415     0.1813
     15  C4'      224.8110   65.8490   10.3480 C.3   1415  GTP1415     0.1799
     16  O4'      224.0600   66.8480   11.1480 O.3   1415  GTP1415    -0.3326
     17  C3'      223.8470   64.7600   10.1410 C.3   1415  GTP1415     0.2158
     18  O3'      223.9800   63.7140   11.0690 O.3   1415  GTP1415    -0.2175
     19  C2'      222.4270   65.4080   10.1300 C.3   1415  GTP1415     0.2310
     20  O2'      221.4210   64.5610   10.2620 O.3   1415  GTP1415    -0.2158
     21  C1'      222.7620   66.3250   11.4740 C.3   1415  GTP1415     0.2293
     22  N9       221.6660   67.3680   11.6810 N.pl3 1415  GTP1415    -0.2354
     23  C8       221.1420   68.2020   10.6970 C.3   1415  GTP1415     0.2246
     24  N7       220.2210   68.8550   11.4600 N.2   1415  GTP1415    -0.2322
     25  C5       220.1650   68.4750   12.8010 C.2   1415  GTP1415     0.2182
     26  C6       219.4050   68.9030   13.7380 C.1   1415  GTP1415     0.2372
     27  O6       218.4710   69.7420   13.9190 O.2   1415  GTP1415    -0.2069
     28  N1       219.7000   68.1830   15.0740 N.2   1415  GTP1415    -0.2485
     29  C2       220.6400   67.2870   15.0280 C.1   1415  GTP1415     0.2531
     30  N2       220.9170   66.5980   16.3290 N.pl3 1415  GTP1415    -0.0226
     31  N3       221.4280   66.8400   14.0420 N.2   1415  GTP1415    -0.3074
     32  C4       221.0930   67.5360   12.9070 C.2   1415  GTP1415     0.2300
@<TRIPOS>BOND
     1     7     6    2
     2     2     1    2
     3     8     6    1
     4     6     5    1
     5     6     9    1
     6     1     5    1
     7     1     4    1
     8     1     3    1
     9     9    10    1
    10    12    10    2
    11    10    11    1
    12    10    13    1
    13    14    13    1
    14    14    15    1
    15    19    17    1
    16    19    20    1
    17    19    21    1
    18    17    15    1
    19    17    18    1
    20    15    16    1
    21    23    24    1
    22    23    22    1
    23    16    21    1
    24    24    25    2
    25    21    22    1
    26    22    32    1
    27    25    32    1
    28    25    26    1
    29    32    31    2
    30    26    27    2
    31    26    28    2
    32    31    29    2
    33    29    28    2
    34    29    30    1
