@<TRIPOS>MOLECULE
1n3s_GTP_A_1.pdb
 32 34 0 0 0
SMALL
GASTEIGER

@<TRIPOS>ATOM
      1  PG        59.7950   34.8600   23.8090 P.3   4411  GTP4411     0.5373
      2  O1G       59.0430   35.1610   22.5210 O.2   4411  GTP4411    -0.2221
      3  O2G       61.2810   35.1880   23.7900 O.3   4411  GTP4411    -0.1143
      4  O3G       59.5040   33.4870   24.1790 O.3   4411  GTP4411    -0.1143
      5  O3B       59.0530   35.8070   24.9340 O.3   4411  GTP4411    -0.2258
      6  PB        58.5000   37.3520   24.8120 P.3   4411  GTP4411     0.2277
      7  O1B       58.0630   37.5720   23.3680 O.2   4411  GTP4411    -0.5168
      8  O2B       57.4370   37.5670   25.7850 O.3   4411  GTP4411    -0.4368
      9  O3A       59.7930   38.1900   25.1460 O.3   4411  GTP4411    -0.2700
     10  PA        60.1820   39.2500   26.3170 P.3   4411  GTP4411     0.2189
     11  O1A       61.2500   40.1060   25.8480 O.2   4411  GTP4411    -0.5170
     12  O2A       58.8670   39.9260   26.7210 O.3   4411  GTP4411    -0.4371
     13  O5'       60.8560   38.3470   27.5510 O.3   4411  GTP4411    -0.3112
     14  C5'       59.8830   37.4210   28.1890 C.3   4411  GTP4411     0.1813
     15  C4'       60.9470   36.4760   28.9200 C.3   4411  GTP4411     0.1799
     16  O4'       60.6710   36.1060   30.3200 O.3   4411  GTP4411    -0.3326
     17  C3'       61.2160   35.2060   28.2650 C.3   4411  GTP4411     0.2158
     18  O3'       62.5870   34.9070   28.2050 O.3   4411  GTP4411    -0.2175
     19  C2'       60.3760   34.1350   28.9990 C.3   4411  GTP4411     0.2310
     20  O2'       60.7180   32.8880   28.7440 O.3   4411  GTP4411    -0.2158
     21  C1'       60.8310   34.7010   30.4840 C.3   4411  GTP4411     0.2293
     22  N9        59.9570   34.0900   31.5550 N.pl3 4411  GTP4411    -0.2354
     23  C8        58.5920   33.8250   31.4430 C.3   4411  GTP4411     0.2246
     24  N7        58.4000   33.2820   32.6640 N.2   4411  GTP4411    -0.2322
     25  C5        59.5380   33.1990   33.4770 C.2   4411  GTP4411     0.2182
     26  C6        59.6650   32.7390   34.6610 C.1   4411  GTP4411     0.2372
     27  O6        58.9670   32.1880   35.5560 O.2   4411  GTP4411    -0.2069
     28  N1        61.1180   32.8620   35.1720 N.2   4411  GTP4411    -0.2485
     29  C2        61.9530   33.4060   34.3410 C.1   4411  GTP4411     0.2531
     30  N2        63.3630   33.5290   34.8300 N.pl3 4411  GTP4411    -0.0226
     31  N3        61.8140   33.8890   33.0930 N.2   4411  GTP4411    -0.3074
     32  C4        60.4960   33.7330   32.7460 C.2   4411  GTP4411     0.2300
@<TRIPOS>BOND
     1     2     1    2
     2     7     6    2
     3     3     1    1
     4     1     4    1
     5     1     5    1
     6     6     5    1
     7     6     9    1
     8     6     8    1
     9     9    10    1
    10    11    10    2
    11    10    12    1
    12    10    13    1
    13    13    14    1
    14    14    15    1
    15    18    17    1
    16    17    15    1
    17    17    19    1
    18    20    19    1
    19    15    16    1
    20    19    21    1
    21    16    21    1
    22    21    22    1
    23    23    22    1
    24    23    24    1
    25    22    32    1
    26    24    25    2
    27    32    31    2
    28    32    25    1
    29    31    29    2
    30    25    26    1
    31    29    30    1
    32    29    28    2
    33    26    28    2
    34    26    27    2
