@<TRIPOS>MOLECULE
1n3t_GTP_A_1.pdb
 32 34 0 0 0
SMALL
GASTEIGER

@<TRIPOS>ATOM
      1  PG       133.8300   -5.8590   75.8510 P.3   425  GTP425      0.5373
      2  O1G      132.8430   -5.9390   74.7340 O.2   425  GTP425     -0.2221
      3  O2G      134.3050   -4.4590   76.1830 O.3   425  GTP425     -0.1143
      4  O3G      134.9210   -6.7700   75.6010 O.3   425  GTP425     -0.1143
      5  O3B      132.9950   -6.4980   77.1010 O.3   425  GTP425     -0.2258
      6  PB       131.6790   -7.5410   77.1850 P.3   425  GTP425      0.2277
      7  O1B      130.6050   -7.0820   76.1880 O.2   425  GTP425     -0.5168
      8  O2B      132.1030   -8.9580   77.0120 O.3   425  GTP425     -0.4368
      9  O3A      131.3110   -7.2680   78.6580 O.3   425  GTP425     -0.2700
     10  PA       131.2990   -8.2320   79.9340 P.3   425  GTP425      0.2189
     11  O1A      130.4260   -7.6420   80.9110 O.3   425  GTP425     -0.4371
     12  O2A      130.9650   -9.6230   79.3900 O.2   425  GTP425     -0.5170
     13  O5'      132.8050   -8.1480   80.6220 O.3   425  GTP425     -0.3112
     14  C5'      133.8770   -8.7470   79.8190 C.3   425  GTP425      0.1813
     15  C4'      135.0470   -7.9440   80.5610 C.3   425  GTP425      0.1799
     16  O4'      136.1150   -8.7380   81.2310 O.3   425  GTP425     -0.3326
     17  C3'      135.7740   -6.9970   79.7230 C.3   425  GTP425      0.2158
     18  O3'      135.9670   -5.7700   80.3440 O.3   425  GTP425     -0.2175
     19  C2'      137.0910   -7.7110   79.2820 C.3   425  GTP425      0.2310
     20  O2'      137.9870   -6.9110   78.7570 O.3   425  GTP425     -0.2158
     21  C1'      137.4080   -8.2350   80.8430 C.3   425  GTP425      0.2293
     22  N9       138.5580   -9.2710   80.8760 N.pl3 425  GTP425     -0.2354
     23  C8       138.8460  -10.2430   79.9000 C.3   425  GTP425      0.2246
     24  N7       139.9640  -10.7970   80.4710 N.2   425  GTP425     -0.2322
     25  C5       140.3610  -10.2160   81.6790 C.2   425  GTP425      0.2182
     26  C6       141.3610  -10.5080   82.4860 C.1   425  GTP425      0.2372
     27  O6       142.3730  -11.2980   82.5460 O.2   425  GTP425     -0.2069
     28  N1       141.3690   -9.5810   83.7230 N.2   425  GTP425     -0.2485
     29  C2       140.3970   -8.7100   83.7790 C.1   425  GTP425      0.2531
     30  N2       140.4010   -7.8340   84.9940 N.pl3 425  GTP425     -0.0226
     31  N3       139.3710   -8.4260   82.9740 N.2   425  GTP425     -0.3074
     32  C4       139.4460   -9.2630   81.9100 C.2   425  GTP425      0.2300
@<TRIPOS>BOND
     1     2     1    2
     2     4     1    1
     3     1     3    1
     4     1     5    1
     5     7     6    2
     6     8     6    1
     7     5     6    1
     8     6     9    1
     9     9    10    1
    10    20    19    1
    11    19    17    1
    12    19    21    1
    13    12    10    2
    14    17    18    1
    15    17    15    1
    16    14    15    1
    17    14    13    1
    18    23    24    1
    19    23    22    1
    20    10    13    1
    21    10    11    1
    22    24    25    2
    23    15    16    1
    24    21    22    1
    25    21    16    1
    26    22    32    1
    27    25    32    1
    28    25    26    1
    29    32    31    2
    30    26    27    2
    31    26    28    2
    32    31    29    2
    33    28    29    2
    34    29    30    1
