@<TRIPOS>MOLECULE
1n3u_HEM_A_1.pdb
 43 50 0 0 0
SMALL
GASTEIGER

@<TRIPOS>ATOM
      1 FE         27.2910   17.3500  -36.7140 Fe    300  HEM300      0.0000
      2  CHA       26.0360   14.7120  -38.5530 C.2   300  HEM300      0.0000
      3  CHB       30.5020   16.1780  -37.2090 C.2   300  HEM300      0.0000
      4  CHC       28.4470   19.6100  -34.3880 C.2   300  HEM300      0.0000
      5  CHD       24.0990   18.5780  -36.3310 C.2   300  HEM300      0.0000
      6  NA        28.0950   15.7950  -37.6730 N.ar  300  HEM300      0.0000
      7  C1A       27.4280   14.7620  -38.3510 C.ar  300  HEM300      0.0000
      8  C2A       28.3830   13.7920  -38.9020 C.ar  300  HEM300      0.0000
      9  C3A       29.6310   14.2950  -38.6700 C.ar  300  HEM300      0.0000
     10  C4A       29.4590   15.4880  -37.8400 C.ar  300  HEM300      0.0000
     11  CMA       30.9370   13.7970  -39.2810 C.3   300  HEM300      0.0000
     12  CAA       28.0020   12.4280  -39.4780 C.3   300  HEM300      0.0000
     13  CBA       27.4770   12.5320  -40.9080 C.3   300  HEM300      0.0000
     14  CGA       26.6340   11.3310  -41.3200 C.2   300  HEM300      0.0000
     15  O1A       26.2310   11.2660  -42.5050 O.co2 300  HEM300      0.0000
     16  O2A       26.3690   10.4560  -40.4590 O.co2 300  HEM300      0.0000
     17  NB        29.0690   17.8060  -35.9650 N.2   300  HEM300      0.0000
     18  C1B       30.3170   17.2590  -36.3200 C.2   300  HEM300      0.0000
     19  C2B       31.3970   17.8890  -35.5550 C.2   300  HEM300      0.0000
     20  C3B       30.8170   18.7700  -34.6660 C.2   300  HEM300      0.0000
     21  C4B       29.3700   18.7260  -34.9410 C.2   300  HEM300      0.0000
     22  CMB       32.9020   17.7070  -35.8060 C.3   300  HEM300      0.0000
     23  CAB       31.4810   19.5570  -33.7170 C.3   300  HEM300      0.0000
     24  CBB       32.2430   18.9610  -32.6220 C.3   300  HEM300      0.0000
     25  NC        26.4880   18.8290  -35.6740 N.ar  300  HEM300      0.0000
     26  C1C       27.1210   19.6910  -34.7790 C.ar  300  HEM300      0.0000
     27  C2C       26.2230   20.7120  -34.3210 C.ar  300  HEM300      0.0000
     28  C3C       25.0120   20.4550  -34.8940 C.ar  300  HEM300      0.0000
     29  C4C       25.1570   19.2530  -35.6910 C.ar  300  HEM300      0.0000
     30  CMC       26.5620   21.8730  -33.3980 C.3   300  HEM300      0.0000
     31  CAC       23.8680   21.2210  -34.7620 C.3   300  HEM300      0.0000
     32  CBC       23.2050   21.3780  -33.4750 C.3   300  HEM300      0.0000
     33  ND        25.4540   16.7660  -37.3080 N.2   300  HEM300      0.0000
     34  C1D       24.2390   17.4250  -37.1150 C.2   300  HEM300      0.0000
     35  C2D       23.1620   16.7560  -37.8620 C.2   300  HEM300      0.0000
     36  C3D       23.6840   15.6550  -38.4530 C.2   300  HEM300      0.0000
     37  C4D       25.1110   15.6570  -38.0960 C.2   300  HEM300      0.0000
     38  CMD       21.7180   17.2180  -38.0310 C.3   300  HEM300      0.0000
     39  CAD       22.9380   14.6810  -39.3740 C.3   300  HEM300      0.0000
     40  CBD       23.0040   15.1270  -40.8320 C.3   300  HEM300      0.0000
     41  CGD       22.4020   14.1180  -41.7940 C.2   300  HEM300      0.0000
     42  O1D       21.1720   13.9040  -41.7550 O.co2 300  HEM300      0.0000
     43  O2D       23.1640   13.5320  -42.5930 O.co2 300  HEM300      0.0000
@<TRIPOS>BOND
     1    43    41   ar
     2    15    14   ar
     3    41    42   ar
     4    41    40    1
     5    14    13    1
     6    14    16   ar
     7    13    12    1
     8    40    39    1
     9    12     8    1
    10    39    36    1
    11    11     9    1
    12     8     9   ar
    13     8     7   ar
    14     9    10   ar
    15     2     7    2
    16     2    37    1
    17    36    37    1
    18    36    35    2
    19     7     6   ar
    20    37    33    2
    21    38    35    1
    22    35    34    1
    23    10     6   ar
    24    10     3    2
    25     6     1    1
    26    33    34    1
    27    33     1    1
    28     3    18    1
    29    34     5    2
    30     1    17    1
    31     1    25    1
    32     5    29    1
    33    18    17    2
    34    18    19    1
    35    17    21    1
    36    22    19    1
    37    29    25   ar
    38    29    28   ar
    39    25    26   ar
    40    19    20    2
    41    21    20    1
    42    21     4    2
    43    28    31    1
    44    28    27   ar
    45    26     4    1
    46    26    27   ar
    47    31    32    1
    48    20    23    1
    49    27    30    1
    50    23    24    1
