@<TRIPOS>MOLECULE
1n3w_MAL_A_1.pdb
 23 24 0 0 0
SMALL
GASTEIGER

@<TRIPOS>ATOM
      1  C1       113.0970   31.5320   22.6810 C.3   371  MAL371      0.2695
      2  C2       113.9960   30.4370   22.0870 C.3   371  MAL371      0.2406
      3  C3       115.4480   30.9430   22.1000 C.3   371  MAL371      0.2198
      4  C4       115.5440   32.2230   21.2760 C.3   371  MAL371      0.2144
      5  C5       114.5600   33.2570   21.8170 C.3   371  MAL371      0.1835
      6  C6       114.5100   34.4890   20.9370 C.3   371  MAL371      0.2142
      7  O1       113.4690   31.7870   24.0220 O.3   371  MAL371     -0.3257
      8  O2       113.8760   29.2370   22.8370 O.3   371  MAL371     -0.2149
      9  O3       116.3250   29.9670   21.5730 O.3   371  MAL371     -0.2174
     10  O4       116.8630   32.7370   21.3430 O.3   371  MAL371     -0.2176
     11  O5       113.2210   32.6980   21.8660 O.3   371  MAL371     -0.3256
     12  O6       113.8560   35.5660   21.5940 O.3   371  MAL371     -0.2176
     13  C1'      111.8420   31.5770   27.8970 C.3   371  MAL371      0.3023
     14  C2'      111.5170   30.4090   26.9570 C.3   371  MAL371      0.2433
     15  C3'      112.4320   30.4220   25.7250 C.3   371  MAL371      0.2168
     16  C4'      112.4390   31.7840   25.0380 C.3   371  MAL371      0.1804
     17  C5'      112.7400   32.8800   26.0840 C.3   371  MAL371      0.1804
     18  C6'      112.6580   34.2900   25.5140 C.3   371  MAL371      0.2141
     19  O1'      113.1140   31.4280   28.4040 O.3   371  MAL371     -0.1869
     20  O2'      111.6790   29.1820   27.6570 O.3   371  MAL371     -0.2148
     21  O3'      112.0080   29.4350   24.7980 O.3   371  MAL371     -0.2175
     22  O5'      111.7960   32.8180   27.1870 O.3   371  MAL371     -0.3237
     23  O6'      113.4460   35.2010   26.2730 O.3   371  MAL371     -0.2176
@<TRIPOS>BOND
     1     6    12    1
     2     6     5    1
     3     4    10    1
     4     4     5    1
     5     4     3    1
     6     9     3    1
     7     5    11    1
     8    11     1    1
     9     2     3    1
    10     2     1    1
    11     2     8    1
    12     1     7    1
    13     7    16    1
    14    21    15    1
    15    16    15    1
    16    16    17    1
    17    18    17    1
    18    18    23    1
    19    15    14    1
    20    17    22    1
    21    14    20    1
    22    14    13    1
    23    22    13    1
    24    13    19    1
