@<TRIPOS>MOLECULE
1n3z_U3P_A_1.pdb
 21 22 0 0 0
SMALL
GASTEIGER

@<TRIPOS>ATOM
      1  N1        23.4930    4.3230   11.3480 N.am  125  U3P125     -0.1766
      2  C2        24.3360    3.2660   11.0820 C.1   125  U3P125      0.2845
      3  N3        25.4780    3.6130   10.4060 N.2   125  U3P125     -0.2452
      4  C4        25.8460    4.8790   10.0000 C.1   125  U3P125      0.2182
      5  C5        24.9270    5.9080   10.3500 C.2   125  U3P125      0.1242
      6  C6        23.8050    5.6020   10.9900 C.2   125  U3P125      0.0929
      7  O2        24.1120    2.1140   11.4260 O.2   125  U3P125     -0.1918
      8  O4        26.8660    5.0230    9.3400 O.2   125  U3P125     -0.2085
      9  P         18.7860    3.5040   15.1950 P.3   125  U3P125      0.5327
     10  O1P       18.9850    2.3130   16.0760 O.3   125  U3P125     -0.1145
     11  O2P       17.5210    3.6400   14.4190 O.2   125  U3P125     -0.2224
     12  O3P       19.0180    4.8100   16.0720 O.3   125  U3P125     -0.1145
     13  O5'       20.3970    7.1690   12.1770 O.3   125  U3P125     -0.2176
     14  C5'       19.4330    6.1260   11.9040 C.3   125  U3P125      0.2141
     15  C4'       20.0600    4.7800   12.1770 C.3   125  U3P125      0.1802
     16  O4'       21.1760    4.5930   11.2870 O.3   125  U3P125     -0.3319
     17  C3'       20.5700    4.6610   13.6060 C.3   125  U3P125      0.1903
     18  O3'       20.0290    3.4620   14.1790 O.3   125  U3P125     -0.2674
     19  C2'       22.0740    4.4180   13.4780 C.3   125  U3P125      0.2293
     20  O2'       22.6270    3.4570   14.3290 O.3   125  U3P125     -0.2158
     21  C1'       22.2180    4.0130   12.0130 C.3   125  U3P125      0.2400
@<TRIPOS>BOND
     1     8     4    2
     2     4     5    1
     3     4     3    2
     4     5     6    2
     5     3     2    2
     6     6     1    1
     7     2     1   am
     8     2     7    2
     9    16    21    1
    10    16    15    1
    11     1    21    1
    12    14    13    1
    13    14    15    1
    14    21    19    1
    15    15    17    1
    16    19    17    1
    17    19    20    1
    18    17    18    1
    19    18     9    1
    20    11     9    2
    21     9    12    1
    22     9    10    1
