@<TRIPOS>MOLECULE
1n3z_ADN_A_1.pdb
 19 21 0 0 0
SMALL
GASTEIGER

@<TRIPOS>ATOM
      1  O5'       19.5320    2.4220   23.2370 O.3   126  ADN126     -0.2176
      2  C5'       19.5690    3.1300   21.9970 C.3   126  ADN126      0.2143
      3  C4'       19.7660    4.5860   22.2650 C.3   126  ADN126      0.1851
      4  O4'       20.1860    5.2860   21.0710 O.3   126  ADN126     -0.3134
      5  C3'       18.5090    5.2850   22.7390 C.3   126  ADN126      0.2186
      6  O3'       18.4050    5.1450   24.1530 O.3   126  ADN126     -0.2174
      7  C2'       18.7530    6.7340   22.3420 C.3   126  ADN126      0.2570
      8  O2'       19.4880    7.4130   23.3350 O.3   126  ADN126     -0.2130
      9  C1'       19.6140    6.5750   21.0860 C.3   126  ADN126      0.3186
     10  N9        20.5740    7.5950   20.6910 N.pl3 126  ADN126     -0.1439
     11  C8        20.6770    8.3250   19.5300 C.3   126  ADN126      0.3377
     12  N7        21.6320    9.2230   19.5520 N.2   126  ADN126     -0.2095
     13  C5        22.2070    9.0670   20.8120 C.2   126  ADN126      0.2526
     14  C6        23.2500    9.7370   21.4650 C.2   126  ADN126      0.4393
     15  N6        23.9290   10.7520   20.9360 N.pl3 126  ADN126      0.2180
     16  N1        23.5720    9.3290   22.7110 N.2   126  ADN126      0.0021
     17  C2        22.8850    8.3120   23.2530 C.3   126  ADN126      0.5254
     18  N3        21.8820    7.6090   22.7420 N.2   126  ADN126     -0.0055
     19  C4        21.5820    8.0500   21.5020 C.2   126  ADN126      0.3518
@<TRIPOS>BOND
     1    11    12    1
     2    11    10    1
     3    12    13    2
     4    10     9    1
     5    10    19    1
     6    13    14    1
     7    13    19    1
     8    15    14    1
     9     4     9    1
    10     4     3    1
    11     9     7    1
    12    14    16    2
    13    19    18    2
    14     2     3    1
    15     2     1    1
    16     3     5    1
    17     7     5    1
    18     7     8    1
    19    16    17    1
    20     5     6    1
    21    18    17    1
