@<TRIPOS>MOLECULE
1n40_HEM_A_1.pdb
 43 50 0 0 0
SMALL
GASTEIGER

@<TRIPOS>ATOM
      1 FE         -6.0660   24.8750    7.6320 Fe    462  HEM462      0.0000
      2  CHA       -4.4120   23.5770    4.9660 C.2   462  HEM462      0.0000
      3  CHB       -3.6330   23.6200    9.6880 C.2   462  HEM462      0.0000
      4  CHC       -7.6850   26.2180   10.2740 C.2   462  HEM462      0.0000
      5  CHD       -8.7740   25.4560    5.6780 C.2   462  HEM462      0.0000
      6  NA        -4.3870   23.8240    7.3890 N.2   462  HEM462      0.0000
      7  C1A       -3.7980   23.4660    6.1930 C.2   462  HEM462      0.0000
      8  C2A       -2.4920   22.8490    6.4050 C.2   462  HEM462      0.0000
      9  C3A       -2.3280   22.7910    7.7090 C.2   462  HEM462      0.0000
     10  C4A       -3.4690   23.4370    8.3420 C.2   462  HEM462      0.0000
     11  CMA       -1.1590   22.1780    8.4550 C.3   462  HEM462      0.0000
     12  CAA       -1.5600   22.3600    5.2880 C.3   462  HEM462      0.0000
     13  CBA       -1.8350   20.9870    4.7650 C.3   462  HEM462      0.0000
     14  CGA       -0.8100   20.5070    3.7670 C.2   462  HEM462      0.0000
     15  O1A        0.0660   21.2980    3.3440 O.co2 462  HEM462      0.0000
     16  O2A       -0.8500   19.2700    3.4390 O.co2 462  HEM462      0.0000
     17  NB        -5.7760   24.8140    9.6170 N.ar  462  HEM462      0.0000
     18  C1B       -4.7000   24.2920   10.2730 C.ar  462  HEM462      0.0000
     19  C2B       -4.8220   24.5950   11.6810 C.ar  462  HEM462      0.0000
     20  C3B       -5.9460   25.3430   11.8440 C.ar  462  HEM462      0.0000
     21  C4B       -6.5390   25.4840   10.5600 C.ar  462  HEM462      0.0000
     22  CMB       -3.8430   24.1230   12.7270 C.3   462  HEM462      0.0000
     23  CAB       -6.5360   25.9290   13.1030 C.2   462  HEM462      0.0000
     24  CBB       -5.8280   26.3510   14.1420 C.2   462  HEM462      0.0000
     25  NC        -7.8940   25.6750    7.8970 N.2   462  HEM462      0.0000
     26  C1C       -8.3020   26.3220    9.0330 C.2   462  HEM462      0.0000
     27  C2C       -9.5300   27.0550    8.7440 C.2   462  HEM462      0.0000
     28  C3C       -9.8460   26.7990    7.4910 C.2   462  HEM462      0.0000
     29  C4C       -8.8290   25.9640    6.9400 C.2   462  HEM462      0.0000
     30  CMC      -10.2740   27.9380    9.7410 C.3   462  HEM462      0.0000
     31  CAC      -11.0060   27.3040    6.6620 C.2   462  HEM462      0.0000
     32  CBC      -12.0300   28.0220    7.0750 C.2   462  HEM462      0.0000
     33  ND        -6.5400   24.4960    5.6750 N.ar  462  HEM462      0.0000
     34  C1D       -7.7320   24.8180    5.0650 C.ar  462  HEM462      0.0000
     35  C2D       -7.7260   24.3630    3.7100 C.ar  462  HEM462      0.0000
     36  C3D       -6.3840   23.8420    3.4850 C.ar  462  HEM462      0.0000
     37  C4D       -5.7050   23.9550    4.7180 C.ar  462  HEM462      0.0000
     38  CMD       -8.8500   24.4320    2.7140 C.3   462  HEM462      0.0000
     39  CAD       -5.8540   23.2510    2.2100 C.3   462  HEM462      0.0000
     40  CBD       -4.9540   24.2160    1.4960 C.3   462  HEM462      0.0000
     41  CGD       -4.3200   23.5700    0.2660 C.2   462  HEM462      0.0000
     42  O1D       -3.6110   24.3520   -0.3800 O.co2 462  HEM462      0.0000
     43  O2D       -4.5390   22.3820   -0.0410 O.co2 462  HEM462      0.0000
@<TRIPOS>BOND
     1    42    41   ar
     2    43    41   ar
     3    41    40    1
     4    40    39    1
     5    39    36    1
     6    38    35    1
     7    15    14   ar
     8    16    14   ar
     9    36    35   ar
    10    36    37   ar
    11    35    34   ar
    12    14    13    1
    13    37     2    2
    14    37    33   ar
    15    13    12    1
    16     2     7    1
    17    34    33   ar
    18    34     5    2
    19    12     8    1
    20    33     1    1
    21     5    29    1
    22     7     8    1
    23     7     6    2
    24     8     9    2
    25    31    32    2
    26    31    28    1
    27    29    28    1
    28    29    25    2
    29     6     1    1
    30     6    10    1
    31    28    27    2
    32     1    25    1
    33     1    17    1
    34     9    10    1
    35     9    11    1
    36    25    26    1
    37    10     3    2
    38    27    26    1
    39    27    30    1
    40    26     4    2
    41    17    18   ar
    42    17    21   ar
    43     3    18    1
    44    18    19   ar
    45     4    21    1
    46    21    20   ar
    47    19    20   ar
    48    19    22    1
    49    20    23    1
    50    23    24    2
