@<TRIPOS>MOLECULE
1n43_BTN_A_1.pdb
 16 17 0 0 0
SMALL
GASTEIGER

@<TRIPOS>ATOM
      1  C11        6.4620  -16.3600   24.7060 C.2   5100  BTN5100     0.3649
      2  O11        5.9640  -15.2510   25.0220 O.co2 5100  BTN5100    -0.2457
      3  O12        5.9560  -17.0760   23.8040 O.co2 5100  BTN5100    -0.2457
      4  C10        7.6700  -16.7890   25.4510 C.3   5100  BTN5100     0.1141
      5  C9         8.5460  -15.6250   25.9020 C.3   5100  BTN5100     0.0118
      6  C8         8.9690  -14.7510   24.7220 C.3   5100  BTN5100     0.0015
      7  C7        10.1490  -13.8000   25.0530 C.3   5100  BTN5100     0.0129
      8  C2        10.7860  -13.0660   23.8940 C.3   5100  BTN5100     0.0729
      9  S1        11.9910  -14.0020   22.8870 S.3   5100  BTN5100    -0.1369
     10  C6        12.3740  -12.4820   21.9520 C.3   5100  BTN5100     0.0848
     11  C5        12.4060  -11.3560   22.9710 C.3   5100  BTN5100     0.1509
     12  N1        13.6860  -11.1820   23.6210 N.2   5100  BTN5100    -0.1859
     13  C3        13.6230  -11.4040   24.9380 C.1   5100  BTN5100     0.2386
     14  O3        14.5770  -11.3060   25.7460 O.2   5100  BTN5100    -0.2023
     15  N2        12.3540  -11.7180   25.2760 N.2   5100  BTN5100    -0.1860
     16  C4        11.4590  -11.7300   24.1320 C.3   5100  BTN5100     0.1500
@<TRIPOS>BOND
     1    10     9    1
     2    10    11    1
     3     9     8    1
     4    11    12    1
     5    11    16    1
     6    12    13    2
     7     3     1   ar
     8     8    16    1
     9     8     7    1
    10    16    15    1
    11     1     2   ar
    12     1     4    1
    13     6     7    1
    14     6     5    1
    15    13    15    2
    16    13    14    2
    17     4     5    1
