@<TRIPOS>MOLECULE
1n46_PFA_A_1.pdb
 27 29 0 0 0
SMALL
GASTEIGER

@<TRIPOS>ATOM
      1  O9        17.2230    5.2550    6.1390 O.2   462  PFA462     -0.1902
      2  C14       18.0230    4.3770    6.2680 C.1   462  PFA462      0.3024
      3  N6        17.9770    3.3560    7.1890 N.2   462  PFA462     -0.2424
      4  C10       18.9470    2.3970    7.2460 C.1   462  PFA462      0.2381
      5  O8        18.9550    1.4890    8.0470 O.2   462  PFA462     -0.2069
      6  N5        19.0230    4.4100    5.4000 N.am  462  PFA462     -0.1038
      7  N3        20.0320    3.4130    5.4060 N.2   462  PFA462     -0.1476
      8  C17       20.0190    2.4460    6.2520 C.2   462  PFA462      0.2256
      9  C4        19.2990    5.4070    4.4430 C.ar  462  PFA462      0.0864
     10  C5        20.4930    6.1760    4.7530 C.ar  462  PFA462      0.0163
     11  C6        20.8590    7.2330    3.8770 C.ar  462  PFA462      0.0137
     12  C7        22.0400    8.0590    4.1150 C.3   462  PFA462      0.0343
     13  C3        18.5530    5.7190    3.3210 C.ar  462  PFA462      0.0163
     14  C2        18.9560    6.7020    2.3970 C.ar  462  PFA462      0.0137
     15  C19       18.0880    7.0200    1.1620 C.3   462  PFA462      0.0343
     16  C1        20.1030    7.4820    2.6960 C.ar  462  PFA462      0.1373
     17  O20       20.3800    8.5040    1.8130 O.3   462  PFA462     -0.4541
     18  C21       21.4190    8.3390    0.9100 C.ar  462  PFA462      0.1452
     19  C31       21.6800    7.0750    0.2610 C.ar  462  PFA462      0.0408
     20  C22       22.2200    9.5120    0.6640 C.ar  462  PFA462      0.0364
     21  C24       23.2950    9.4250   -0.2570 C.ar  462  PFA462      0.0194
     22  C25       24.2110   10.6460   -0.5040 C.3   462  PFA462      0.0256
     23  C8        23.2930   11.8890   -0.7160 C.3   462  PFA462      0.0048
     24  C9        25.0970   10.7800    0.7600 C.3   462  PFA462      0.0048
     25  C26       23.5830    8.1750   -0.8550 C.ar  462  PFA462      0.1919
     26  C29       22.7560    7.0450   -0.6370 C.ar  462  PFA462      0.0448
     27  O27       24.6370    8.0360   -1.7310 O.3   462  PFA462     -0.2869
@<TRIPOS>BOND
     1    27    25    1
     2    25    26   ar
     3    25    21   ar
     4    23    22    1
     5    26    19   ar
     6    22    21    1
     7    22    24    1
     8    21    20   ar
     9    19    18   ar
    10    20    18   ar
    11    18    17    1
    12    15    14    1
    13    17    16    1
    14    14    16   ar
    15    14    13   ar
    16    16    11   ar
    17    13     9   ar
    18    11    12    1
    19    11    10   ar
    20     9    10   ar
    21     9     6    1
    22     6     7    1
    23     6     2   am
    24     7     8    2
    25     1     2    2
    26     8     4    1
    27     2     3    2
    28     3     4    2
    29     4     5    2
