@<TRIPOS>MOLECULE
1n47_FUC_A_1.pdb
 10 10 0 0 0
SMALL
GASTEIGER

@<TRIPOS>ATOM
      1  C1        -5.9330   76.1630   -3.7890 C.3   302  FUC302      0.1776
      2  C2        -5.2830   76.2330   -2.4140 C.3   302  FUC302      0.2141
      3  C3        -5.3980   77.6510   -1.8910 C.3   302  FUC302      0.2172
      4  C4        -6.8660   78.0680   -1.7960 C.3   302  FUC302      0.2116
      5  C5        -7.5970   77.8070   -3.1070 C.3   302  FUC302      0.1483
      6  C6        -9.0900   77.8600   -2.7860 C.3   302  FUC302      0.0349
      7  O2        -3.9170   75.9120   -2.5130 O.3   302  FUC302     -0.2176
      8  O3        -4.7230   77.7600   -0.6570 O.3   302  FUC302     -0.2175
      9  O4        -7.5920   77.4300   -0.7610 O.3   302  FUC302     -0.2177
     10  O5        -7.2880   76.5630   -3.7260 O.3   302  FUC302     -0.3508
@<TRIPOS>BOND
     1     1    10    1
     2     1     2    1
     3    10     5    1
     4     5     6    1
     5     5     4    1
     6     7     2    1
     7     2     3    1
     8     3     4    1
     9     3     8    1
    10     4     9    1
