@<TRIPOS>MOLECULE
1n47_TNR_A_1.pdb
 21 21 0 0 0
SMALL
GASTEIGER

@<TRIPOS>ATOM
      1  OXT      -29.6990   58.3950  -34.2740 O.co2 1401  TNR1401    -0.2440
      2  C        -30.8860   58.7060  -34.2880 C.2   1401  TNR1401     0.3844
      3  O        -31.2120   59.8360  -33.9430 O.co2 1401  TNR1401    -0.2440
      4  CA       -31.9500   57.6960  -34.7570 C.3   1401  TNR1401     0.2237
      5  N        -31.3650   56.6410  -35.5850 N.3   1401  TNR1401    -0.1181
      6  CB       -32.6980   57.0750  -33.5700 C.3   1401  TNR1401     0.1753
      7  O1       -31.8150   56.7730  -32.4980 O.3   1401  TNR1401    -0.3270
      8  C1       -32.2950   56.8850  -31.1560 C.3   1401  TNR1401     0.2586
      9  C2       -31.1240   57.2270  -30.2510 C.3   1401  TNR1401     0.1842
     10  N2       -30.5970   58.4780  -30.7230 N.am  1401  TNR1401    -0.1992
     11  C7       -30.3600   59.4580  -29.8690 C.2   1401  TNR1401     0.2420
     12  C8       -29.8490   60.7480  -30.4500 C.3   1401  TNR1401     0.0964
     13  O7       -30.5530   59.2970  -28.6810 O.2   1401  TNR1401    -0.2733
     14  C3       -30.0940   56.1310  -30.3270 C.3   1401  TNR1401     0.2094
     15  O3       -29.0410   56.4490  -29.4260 O.3   1401  TNR1401    -0.2183
     16  C4       -30.7520   54.8570  -29.8580 C.3   1401  TNR1401     0.2136
     17  O4       -31.1410   55.0620  -28.5020 O.3   1401  TNR1401    -0.2176
     18  C5       -31.9970   54.5550  -30.6810 C.3   1401  TNR1401     0.1834
     19  O5       -32.9060   55.6640  -30.7580 O.3   1401  TNR1401    -0.3262
     20  C6       -32.7350   53.3960  -30.0380 C.3   1401  TNR1401     0.2142
     21  O6       -33.5360   52.7630  -31.0380 O.3   1401  TNR1401    -0.2176
@<TRIPOS>BOND
     1     5     4    1
     2     4     2    1
     3     4     6    1
     4     2     1   ar
     5     2     3   ar
     6     6     7    1
     7     7     8    1
     8     8    19    1
     9     8     9    1
    10    21    20    1
    11    19    18    1
    12    10     9    1
    13    10    11   am
    14    18    20    1
    15    18    16    1
    16    12    11    1
    17    14     9    1
    18    14    16    1
    19    14    15    1
    20    11    13    2
    21    16    17    1
