@<TRIPOS>MOLECULE
1n48_ATP_B_1.pdb
 29 31 0 0 0
SMALL
GASTEIGER

@<TRIPOS>ATOM
      1  PG        17.9300    0.3440   11.4160 P.3   1814  ATP1814     0.5373
      2  O1G       19.0090   -0.0560   10.4400 O.2   1814  ATP1814    -0.2221
      3  O2G       18.3970    1.0920   12.5510 O.3   1814  ATP1814    -0.1143
      4  O3G       16.8630    1.1760   10.7640 O.3   1814  ATP1814    -0.1143
      5  PB        16.4540   -2.0460   12.7230 P.3   1814  ATP1814     0.2277
      6  O1B       15.0270   -1.7510   12.6270 O.3   1814  ATP1814    -0.4368
      7  O2B       16.7290   -3.3840   12.1960 O.2   1814  ATP1814    -0.5168
      8  O3B       16.8930   -0.7410   11.9680 O.3   1814  ATP1814    -0.2258
      9  PA        17.9460   -2.4640   15.2580 P.3   1814  ATP1814     0.2189
     10  O1A       17.4920   -3.8990   15.2400 O.3   1814  ATP1814    -0.4371
     11  O2A       19.3510   -2.1940   15.1120 O.2   1814  ATP1814    -0.5170
     12  O3A       16.9630   -1.7970   14.2240 O.3   1814  ATP1814    -0.2700
     13  O5'       17.4620   -1.5950   16.3880 O.3   1814  ATP1814    -0.3113
     14  C5'       16.0600   -1.5240   16.7400 C.3   1814  ATP1814     0.1786
     15  C4'       15.6640   -0.9420   18.0540 C.3   1814  ATP1814     0.1493
     16  O4'       16.0500   -1.8140   19.1380 O.3   1814  ATP1814    -0.3183
     17  C3'       16.1750    0.4430   18.4280 C.3   1814  ATP1814     0.0392
     18  C2'       17.2420    0.1960   19.4930 C.3   1814  ATP1814     0.0823
     19  C1'       16.9450   -1.1910   20.0330 C.3   1814  ATP1814     0.2847
     20  N9        18.1690   -2.0480   20.1860 N.pl3 1814  ATP1814    -0.1461
     21  C8        18.7040   -2.9650   19.2890 C.3   1814  ATP1814     0.3377
     22  N7        19.7440   -3.6170   19.7420 N.2   1814  ATP1814    -0.2095
     23  C5        19.8840   -3.1030   21.0360 C.2   1814  ATP1814     0.2526
     24  C6        20.7880   -3.3660   22.0660 C.2   1814  ATP1814     0.4393
     25  N6        21.7270   -4.2550   21.9460 N.pl3 1814  ATP1814     0.2180
     26  N1        20.6670   -2.6770   23.2520 N.2   1814  ATP1814     0.0021
     27  C2        19.7030   -1.7860   23.3890 C.3   1814  ATP1814     0.5254
     28  N3        18.8020   -1.4380   22.4900 N.2   1814  ATP1814    -0.0055
     29  C4        18.9200   -2.1620   21.3300 C.2   1814  ATP1814     0.3518
@<TRIPOS>BOND
     1     2     1    2
     2     4     1    1
     3     1     8    1
     4     1     3    1
     5     8     5    1
     6     7     5    2
     7     6     5    1
     8     5    12    1
     9    12     9    1
    10    11     9    2
    11    10     9    1
    12     9    13    1
    13    13    14    1
    14    14    15    1
    15    15    17    1
    16    15    16    1
    17    17    18    1
    18    16    19    1
    19    21    22    1
    20    21    20    1
    21    18    19    1
    22    22    23    2
    23    19    20    1
    24    20    29    1
    25    23    29    1
    26    23    24    1
    27    29    28    2
    28    25    24    1
    29    24    26    2
    30    28    27    1
    31    26    27    1
