@<TRIPOS>MOLECULE
1n49_RIT_B_1.pdb
 50 53 0 0 0
SMALL
GASTEIGER

@<TRIPOS>ATOM
      1  C1         4.0550    4.2610   24.8710 C.ar  301  RIT301      0.1053
      2  C2         5.0680    3.4680   24.4260 C.ar  301  RIT301      0.0714
      3  S3         5.5880    3.7480   22.7420 S.2   301  RIT301     -0.0652
      4  C4         4.2850    4.9480   22.9250 C.ar  301  RIT301      0.1343
      5  N5         3.6180    5.0980   24.0100 N.ar  301  RIT301     -0.2350
      6  C6         5.9120    2.4200   24.8980 C.3   301  RIT301      0.2448
      7  O7         6.8510    2.9930   25.7770 O.3   301  RIT301     -0.4279
      8  C10        7.8710    2.3170   26.4260 C.2   301  RIT301      0.4215
      9  O24        8.0750    1.0940   26.2860 O.2   301  RIT301     -0.2246
     10  N11        8.6020    3.1790   27.1930 N.am  301  RIT301     -0.1675
     11  C12        9.7810    2.7900   27.9820 C.3   301  RIT301      0.1333
     12  C13        9.7150    2.9870   29.5010 C.3   301  RIT301      0.1739
     13  C14        8.5050    2.3870   30.1610 C.3   301  RIT301      0.0567
     14  C15        8.4120    0.8570   30.3460 C.3   301  RIT301      0.1023
     15  C26       11.0960    3.3970   27.4090 C.3   301  RIT301      0.0507
     16  C28       11.3340    3.3640   25.9740 C.ar  301  RIT301     -0.0204
     17  C31       11.4190    2.0150   25.5100 C.ar  301  RIT301     -0.0042
     18  C32       11.6290    1.7930   24.1160 C.ar  301  RIT301     -0.0003
     19  C33       11.7550    2.8750   23.1930 C.ar  301  RIT301     -0.0000
     20  C34       11.6690    4.2270   23.6820 C.ar  301  RIT301     -0.0003
     21  C35       11.4590    4.4690   25.0630 C.ar  301  RIT301     -0.0042
     22  O41        9.7270    4.3840   29.7030 O.3   301  RIT301     -0.2212
     23  C44        7.1670    0.6050   31.1420 C.3   301  RIT301      0.0481
     24  C45        6.8280   -0.8160   31.0170 C.ar  301  RIT301     -0.0205
     25  C48        7.1110   -1.6500   32.1460 C.ar  301  RIT301     -0.0042
     26  C49        6.8130   -3.0480   32.1150 C.ar  301  RIT301     -0.0003
     27  C50        6.2290   -3.5930   30.9420 C.ar  301  RIT301     -0.0000
     28  C51        5.9410   -2.7780   29.8180 C.ar  301  RIT301     -0.0003
     29  C52        6.2370   -1.3800   29.8410 C.ar  301  RIT301     -0.0042
     30  N58        9.5510    0.2990   31.0610 N.am  301  RIT301     -0.2053
     31  N20       11.1190   -2.1570   32.2470 N.am  301  RIT301     -0.1808
     32  C19       11.5540   -0.9520   31.5240 C.3   301  RIT301      0.1742
     33  C18       10.4690   -0.5200   30.5200 C.2   301  RIT301      0.2612
     34  O61       10.4380   -0.8980   29.3190 O.2   301  RIT301     -0.2715
     35  C62       12.9750   -1.2470   30.8920 C.3   301  RIT301      0.0290
     36  C64       13.5940   -0.0770   30.0780 C.3   301  RIT301      0.0023
     37  C68       13.9890   -1.6860   31.9800 C.3   301  RIT301      0.0023
     38  C21       10.7300   -2.1120   33.5440 C.2   301  RIT301      0.3240
     39  N74       10.2650   -3.2990   34.0330 N.am  301  RIT301     -0.2546
     40  C75        9.8290   -3.3710   35.4280 C.3   301  RIT301      0.1504
     41  O76       10.8090   -1.0580   34.2120 O.2   301  RIT301     -0.2507
     42  C77        8.4030   -3.3330   35.6630 C.2   301  RIT301      0.1182
     43  C80        7.8590   -2.1850   36.1510 C.3   301  RIT301      0.1202
     44  S81        6.1150   -2.5270   36.3010 S.3   301  RIT301     -0.0795
     45  C82        6.3930   -4.1620   35.6850 C.2   301  RIT301      0.1335
     46  N83        7.6370   -4.3450   35.4280 N.2   301  RIT301     -0.4061
     47  C85        5.1870   -4.8500   35.6180 C.3   301  RIT301      0.0585
     48  C86        4.1230   -5.0970   36.6860 C.3   301  RIT301      0.0080
     49  C90        5.4650   -6.1870   35.0830 C.3   301  RIT301      0.0080
     50  C95       10.1360   -4.4930   33.4120 C.3   301  RIT301      0.1169
@<TRIPOS>BOND
     1     3     4   ar
     2     3     2   ar
     3     4     5   ar
     4    19    20   ar
     5    19    18   ar
     6    20    21   ar
     7     5     1   ar
     8    18    17   ar
     9     2     1   ar
    10     2     6    1
    11     6     7    1
    12    21    16   ar
    13    17    16   ar
    14     7     8    1
    15    16    15    1
    16     9     8    2
    17     8    10   am
    18    10    11    1
    19    15    11    1
    20    11    12    1
    21    34    33    2
    22    12    22    1
    23    12    13    1
    24    28    29   ar
    25    28    27   ar
    26    29    24   ar
    27    36    35    1
    28    13    14    1
    29    14    30    1
    30    14    23    1
    31    33    30   am
    32    33    32    1
    33    35    32    1
    34    35    37    1
    35    27    26   ar
    36    24    23    1
    37    24    25   ar
    38    32    31    1
    39    26    25   ar
    40    31    38   am
    41    50    39    1
    42    38    39   am
    43    38    41    2
    44    39    40    1
    45    49    47    1
    46    40    42    1
    47    46    42    2
    48    46    45    2
    49    47    45    1
    50    47    48    1
    51    42    43    1
    52    45    44    1
    53    43    44    1
