@<TRIPOS>MOLECULE
1n4f_ASR_A_1.pdb
 11 10 0 0 0
SMALL
GASTEIGER

@<TRIPOS>ATOM
      1 AS         19.1780    9.9470   25.8270 As    140  ASR140      0.0000
      2  O1        19.8110   10.5890   24.3420 O.3   140  ASR140      0.0000
      3  O2        17.7100    9.0870   25.4830 O.3   140  ASR140      0.0000
      4  O3        18.8960   11.2170   26.9540 O.3   140  ASR140      0.0000
      5  C1        20.5670    8.7930   26.5620 C.ar  140  ASR140      0.0000
      6  C2        21.0230    7.6890   25.7920 C.ar  140  ASR140      0.0000
      7  C3        22.0220    6.8260   26.2880 C.ar  140  ASR140      0.0000
      8  C4        22.5730    7.0490   27.5870 C.ar  140  ASR140      0.0000
      9  C5        22.1220    8.1900   28.3670 C.ar  140  ASR140      0.0000
     10  C6        21.1200    9.0640   27.8480 C.ar  140  ASR140      0.0000
     11  N7        23.5970    6.1070   28.1510 N.pl3 140  ASR140      0.0000
@<TRIPOS>BOND
     1     2     1    1
     2     3     1    1
     3     6     7   ar
     4     6     5   ar
     5     1     4    1
     6     7     8   ar
     7     5    10   ar
     8     8    11    1
     9     8     9   ar
    10    10     9   ar
