@<TRIPOS>MOLECULE
1n4g_HEM_A_1.pdb
 43 50 0 0 0
SMALL
GASTEIGER

@<TRIPOS>ATOM
      1 FE         -6.2020   25.2920    7.6540 Fe    462  HEM462      0.0000
      2  CHA       -4.3930   24.0680    5.0690 C.2   462  HEM462      0.0000
      3  CHB       -3.7740   23.9620    9.8230 C.2   462  HEM462      0.0000
      4  CHC       -7.7990   26.6390   10.4180 C.2   462  HEM462      0.0000
      5  CHD       -8.8890   25.9060    5.7580 C.2   462  HEM462      0.0000
      6  NA        -4.4070   24.1860    7.5000 N.2   462  HEM462      0.0000
      7  C1A       -3.8290   23.8810    6.2920 C.2   462  HEM462      0.0000
      8  C2A       -2.5120   23.2700    6.5110 C.2   462  HEM462      0.0000
      9  C3A       -2.3570   23.1780    7.8490 C.2   462  HEM462      0.0000
     10  C4A       -3.5250   23.8170    8.4660 C.2   462  HEM462      0.0000
     11  CMA       -1.1510   22.6530    8.6320 C.3   462  HEM462      0.0000
     12  CAA       -1.5400   22.7650    5.3940 C.3   462  HEM462      0.0000
     13  CBA       -1.8570   21.3780    4.8190 C.3   462  HEM462      0.0000
     14  CGA       -0.8180   20.9000    3.8010 C.2   462  HEM462      0.0000
     15  O1A        0.0520   21.6670    3.3700 O.co2 462  HEM462      0.0000
     16  O2A       -0.8600   19.6560    3.4120 O.co2 462  HEM462      0.0000
     17  NB        -5.9030   25.2220    9.6990 N.ar  462  HEM462      0.0000
     18  C1B       -4.8070   24.7180   10.4090 C.ar  462  HEM462      0.0000
     19  C2B       -4.9020   25.0470   11.8510 C.ar  462  HEM462      0.0000
     20  C3B       -6.0600   25.7570   12.0010 C.ar  462  HEM462      0.0000
     21  C4B       -6.6700   25.8650   10.6710 C.ar  462  HEM462      0.0000
     22  CMB       -3.9190   24.5640   12.9640 C.3   462  HEM462      0.0000
     23  CAB       -6.6270   26.4110   13.3090 C.2   462  HEM462      0.0000
     24  CBB       -5.8720   26.7660   14.3750 C.2   462  HEM462      0.0000
     25  NC        -8.0490   26.1210    8.0450 N.2   462  HEM462      0.0000
     26  C1C       -8.4850   26.7440    9.1890 C.2   462  HEM462      0.0000
     27  C2C       -9.7160   27.4530    8.8980 C.2   462  HEM462      0.0000
     28  C3C       -9.9860   27.2810    7.5950 C.2   462  HEM462      0.0000
     29  C4C       -8.9520   26.4270    7.0390 C.2   462  HEM462      0.0000
     30  CMC      -10.4050   28.3840    9.9500 C.3   462  HEM462      0.0000
     31  CAC      -11.1280   27.7910    6.7030 C.2   462  HEM462      0.0000
     32  CBC      -12.1770   28.4790    7.1650 C.2   462  HEM462      0.0000
     33  ND        -6.6050   24.9860    5.7190 N.ar  462  HEM462      0.0000
     34  C1D       -7.8290   25.2530    5.1420 C.ar  462  HEM462      0.0000
     35  C2D       -7.7810   24.8870    3.7600 C.ar  462  HEM462      0.0000
     36  C3D       -6.3990   24.3280    3.5290 C.ar  462  HEM462      0.0000
     37  C4D       -5.7350   24.4300    4.8070 C.ar  462  HEM462      0.0000
     38  CMD       -8.9340   24.9670    2.7340 C.3   462  HEM462      0.0000
     39  CAD       -5.8530   23.6950    2.2450 C.3   462  HEM462      0.0000
     40  CBD       -5.0270   24.6640    1.4670 C.3   462  HEM462      0.0000
     41  CGD       -4.4420   24.0620    0.2070 C.2   462  HEM462      0.0000
     42  O1D       -3.7520   24.8320   -0.4610 O.co2 462  HEM462      0.0000
     43  O2D       -4.6220   22.8790   -0.1190 O.co2 462  HEM462      0.0000
@<TRIPOS>BOND
     1    42    41   ar
     2    43    41   ar
     3    41    40    1
     4    40    39    1
     5    39    36    1
     6    38    35    1
     7    15    14   ar
     8    16    14   ar
     9    36    35   ar
    10    36    37   ar
    11    35    34   ar
    12    14    13    1
    13    37     2    2
    14    37    33   ar
    15    13    12    1
    16     2     7    1
    17    34    33   ar
    18    34     5    2
    19    12     8    1
    20    33     1    1
    21     5    29    1
    22     7     8    1
    23     7     6    2
    24     8     9    2
    25    31    32    2
    26    31    28    1
    27    29    28    1
    28    29    25    2
    29     6     1    1
    30     6    10    1
    31    28    27    2
    32     1    25    1
    33     1    17    1
    34     9    10    1
    35     9    11    1
    36    25    26    1
    37    10     3    2
    38    27    26    1
    39    27    30    1
    40    26     4    2
    41    17    18   ar
    42    17    21   ar
    43     3    18    1
    44    18    19   ar
    45     4    21    1
    46    21    20   ar
    47    19    20   ar
    48    19    22    1
    49    20    23    1
    50    23    24    2
