@<TRIPOS>MOLECULE
1n4h_REA_A_1.pdb
 22 22 0 0 0
SMALL
GASTEIGER

@<TRIPOS>ATOM
      1  C1        22.6760   32.3860    7.5850 C.3   500  REA500      0.0183
      2  C2        21.9060   33.5740    6.8750 C.3   500  REA500      0.0044
      3  C3        21.6370   33.4550    5.3740 C.3   500  REA500      0.0047
      4  C4        22.7900   32.9260    4.5060 C.3   500  REA500      0.0217
      5  C5        23.8910   32.0960    5.2550 C.2   500  REA500     -0.0479
      6  C6        23.8620   31.8350    6.6380 C.2   500  REA500     -0.0307
      7  C7        24.9190   31.0450    7.3340 C.2   500  REA500     -0.0052
      8  C8        25.0460   29.7100    7.5730 C.2   500  REA500     -0.0046
      9  C9        26.0800   29.0940    8.3970 C.2   500  REA500     -0.0219
     10  C10       26.0660   27.7250    8.5310 C.2   500  REA500     -0.0043
     11  C11       27.0510   27.0180    9.3290 C.2   500  REA500     -0.0006
     12  C12       27.0700   25.6940    9.4400 C.2   500  REA500     -0.0041
     13  C13       28.0570   24.9770   10.2420 C.2   500  REA500     -0.0153
     14  C14       27.9510   23.6260   10.2240 C.2   500  REA500      0.0819
     15  C15       28.7050   22.5640   10.8700 C.2   500  REA500      0.3876
     16  C16       21.6500   31.2540    7.8880 C.3   500  REA500      0.0043
     17  C17       23.2350   32.9900    8.9100 C.3   500  REA500      0.0043
     18  C18       24.9480   31.6510    4.2340 C.3   500  REA500      0.0260
     19  C19       27.1570   29.9910    9.0840 C.3   500  REA500      0.0310
     20  C20       29.1590   25.7760   11.0430 C.3   500  REA500      0.0312
     21  O1        28.3770   21.4240   10.6260 O.co2 500  REA500     -0.2406
     22  O2        29.6410   22.7790   11.6280 O.co2 500  REA500     -0.2406
@<TRIPOS>BOND
     1    18     5    1
     2     4     5    1
     3     4     3    1
     4     5     6    2
     5     3     2    1
     6     6     7    1
     7     6     1    1
     8     2     1    1
     9     7     8    2
    10     8     9    1
    11     1    16    1
    12     1    17    1
    13     9    10    2
    14     9    19    1
    15    10    11    1
    16    11    12    2
    17    12    13    1
    18    14    13    2
    19    14    15    1
    20    13    20    1
    21    21    15   ar
    22    15    22   ar
