@<TRIPOS>MOLECULE
1n4k_I3P_A_1.pdb
 24 24 0 0 0
SMALL
GASTEIGER

@<TRIPOS>ATOM
      1  C1        23.1630   -2.1100   10.2630 C.3   1000  I3P1000     0.1918
      2  C2        22.5710   -3.4900   10.6800 C.3   1000  I3P1000     0.2147
      3  C3        22.9430   -3.8020   12.1310 C.3   1000  I3P1000     0.2146
      4  C4        22.3860   -2.6940   13.0500 C.3   1000  I3P1000     0.1892
      5  C5        22.9670   -1.3280   12.6370 C.3   1000  I3P1000     0.1891
      6  C6        22.6040   -0.9950   11.1750 C.3   1000  I3P1000     0.2120
      7  O1        22.8100   -1.7080    8.8800 O.3   1000  I3P1000    -0.2673
      8  O2        21.1440   -3.4870   10.5450 O.3   1000  I3P1000    -0.2176
      9  O3        22.3880   -5.0460   12.4990 O.3   1000  I3P1000    -0.2176
     10  O4        22.7500   -3.0220   14.4480 O.3   1000  I3P1000    -0.2674
     11  O5        22.4040   -0.2860   13.5190 O.3   1000  I3P1000    -0.2674
     12  O6        23.1590    0.2590   10.7890 O.3   1000  I3P1000    -0.2177
     13  P1        23.6820   -2.0580    7.5940 P.3   1000  I3P1000     0.5327
     14  O11       22.9530   -1.4340    6.4570 O.2   1000  I3P1000    -0.2224
     15  O12       23.7090   -3.5430    7.5680 O.3   1000  I3P1000    -0.1145
     16  O13       24.9660   -1.4700    7.9690 O.3   1000  I3P1000    -0.1145
     17  P4        21.7740   -3.5700   15.5870 P.3   1000  I3P1000     0.5327
     18  O41       20.7220   -2.5200   15.5470 O.3   1000  I3P1000    -0.1145
     19  O42       21.3360   -4.8620   15.0640 O.2   1000  I3P1000    -0.2224
     20  O43       22.5570   -3.6840   16.8440 O.3   1000  I3P1000    -0.1145
     21  P5        23.1580    0.9460   14.2040 P.3   1000  I3P1000     0.5327
     22  O51       22.0260    1.5670   14.9390 O.3   1000  I3P1000    -0.1145
     23  O52       24.2190    0.3100   15.0370 O.3   1000  I3P1000    -0.1145
     24  O53       23.6350    1.6890   13.0430 O.2   1000  I3P1000    -0.2224
@<TRIPOS>BOND
     1    14    13    2
     2    15    13    1
     3    13    16    1
     4    13     7    1
     5     7     1    1
     6     1     2    1
     7     1     6    1
     8     8     2    1
     9     2     3    1
    10    12     6    1
    11     6     5    1
    12     3     9    1
    13     3     4    1
    14     5     4    1
    15     5    11    1
    16    24    21    2
    17     4    10    1
    18    11    21    1
    19    21    22    1
    20    21    23    1
    21    10    17    1
    22    19    17    2
    23    18    17    1
    24    17    20    1
