@<TRIPOS>MOLECULE
1n4p_GRG_B_1.pdb
 29 28 0 0 0
SMALL
GASTEIGER

@<TRIPOS>ATOM
      1  C20       35.0850   84.0100   66.0790 C.3   1721  GRG1721     0.0260
      2  C19       35.9470   85.1950   68.1350 C.3   1721  GRG1721     0.0260
      3  C18       35.8970   85.1460   66.6270 C.2   1721  GRG1721    -0.0478
      4  C17       36.5110   86.0170   65.8260 C.2   1721  GRG1721    -0.0342
      5  C16       37.3600   87.1670   66.2820 C.3   1721  GRG1721     0.0297
      6  C14       36.2100   88.4740   63.2510 C.3   1721  GRG1721     0.0260
      7  C13       36.7730   88.8940   64.5930 C.2   1721  GRG1721    -0.0478
      8  C15       37.8550   87.9730   65.1200 C.3   1721  GRG1721     0.0263
      9  C12       36.3570   89.9920   65.2780 C.2   1721  GRG1721    -0.0342
     10  C11       35.2940   90.9460   64.8130 C.3   1721  GRG1721     0.0297
     11  C9        35.0800   92.0760   65.8060 C.3   1721  GRG1721     0.0263
     12  C8        34.0490   93.0780   65.3820 C.2   1721  GRG1721    -0.0478
     13  C10       32.7350   92.9420   66.1120 C.3   1721  GRG1721     0.0260
     14  C7        34.3090   94.0210   64.4350 C.2   1721  GRG1721    -0.0342
     15  C6        33.3310   95.0710   63.9720 C.3   1721  GRG1721     0.0297
     16  C5        33.0170   94.9970   62.4760 C.3   1721  GRG1721     0.0264
     17  C3        31.8450   95.8550   62.0990 C.2   1721  GRG1721    -0.0454
     18  C4        32.2380   97.1980   61.5340 C.3   1721  GRG1721     0.0261
     19  C2        30.5620   95.4390   62.2650 C.2   1721  GRG1721    -0.0024
     20  C1        29.3320   96.2280   61.9200 C.3   1721  GRG1721     0.1747
     21  O1        28.1810   95.4540   62.2490 O.3   1721  GRG1721    -0.3089
     22  PA        26.8680   96.2470   62.6730 P.3   1721  GRG1721     0.2233
     23  O1A       26.3740   97.2170   61.6420 O.2   1721  GRG1721    -0.5169
     24  O3A       27.2310   96.9620   64.0270 O.3   1721  GRG1721    -0.2261
     25  O2A       25.8220   95.1600   62.9820 O.3   1721  GRG1721    -0.4370
     26  PB        26.4240   97.9100   64.9610 P.3   1721  GRG1721     0.5373
     27  O1B       25.0330   98.1760   64.4760 O.2   1721  GRG1721    -0.2221
     28  O2B       27.3210   99.1620   65.0160 O.3   1721  GRG1721    -0.1143
     29  O3B       26.4560   97.2110   66.3380 O.3   1721  GRG1721    -0.1143
@<TRIPOS>BOND
     1    18    17    1
     2    23    22    2
     3    20    21    1
     4    20    19    1
     5    17    19    2
     6    17    16    1
     7    21    22    1
     8    16    15    1
     9    22    25    1
    10    22    24    1
    11     6     7    1
    12    15    14    1
    13    24    26    1
    14    14    12    2
    15    27    26    2
    16     7     8    1
    17     7     9    2
    18    10     9    1
    19    10    11    1
    20    26    28    1
    21    26    29    1
    22     8     5    1
    23    12    11    1
    24    12    13    1
    25     4     5    1
    26     4     3    2
    27     1     3    1
    28     3     2    1
