@<TRIPOS>MOLECULE
1n4p_GER_M_1.pdb
 20 19 0 0 0
SMALL
GASTEIGER

@<TRIPOS>ATOM
      1  C1        22.9060   77.7540  109.4490 C.3   1727  GER1727     0.0300
      2  C2        23.3190   77.5690  107.9850 C.2   1727  GER1727    -0.0342
      3  C3        23.4090   78.5480  107.0460 C.2   1727  GER1727    -0.0478
      4  C4        23.0980   79.9960  107.3450 C.3   1727  GER1727     0.0260
      5  C5        23.8500   78.2570  105.6120 C.3   1727  GER1727     0.0263
      6  C6        23.1680   79.1020  104.5130 C.3   1727  GER1727     0.0297
      7  C7        23.5730   78.7180  103.1010 C.2   1727  GER1727    -0.0342
      8  C8        23.1570   79.3360  101.9580 C.2   1727  GER1727    -0.0478
      9  C9        22.2090   80.5140  101.9390 C.3   1727  GER1727     0.0260
     10  C10       23.6150   78.8710  100.5960 C.3   1727  GER1727     0.0263
     11  C11       23.7260   79.9430   99.4990 C.3   1727  GER1727     0.0297
     12  C12       24.1860   79.3480   98.1860 C.2   1727  GER1727    -0.0342
     13  C13       24.3840   80.0230   97.0140 C.2   1727  GER1727    -0.0478
     14  C14       24.1650   81.5010   96.8430 C.3   1727  GER1727     0.0260
     15  C15       24.8470   79.3500   95.7380 C.3   1727  GER1727     0.0263
     16  C16       25.8540   78.2350   95.9270 C.3   1727  GER1727     0.0297
     17  C17       25.8160   77.2230   94.8010 C.2   1727  GER1727    -0.0342
     18  C18       26.6030   76.1090   94.6980 C.2   1727  GER1727    -0.0478
     19  C19       27.6520   75.7010   95.7090 C.3   1727  GER1727     0.0260
     20  C20       26.5020   75.1580   93.5350 C.3   1727  GER1727     0.0260
@<TRIPOS>BOND
     1    20    18    1
     2    18    17    2
     3    18    19    1
     4    17    16    1
     5    15    16    1
     6    15    13    1
     7    14    13    1
     8    13    12    2
     9    12    11    1
    10    11    10    1
    11    10     8    1
    12     9     8    1
    13     8     7    2
    14     7     6    1
    15     6     5    1
    16     5     3    1
    17     3     4    1
    18     3     2    2
    19     2     1    1
