@<TRIPOS>MOLECULE
1n4p_III_M_1.pdb
 30 29 0 0 0
SMALL
GASTEIGER

@<TRIPOS>ATOM
      1  N         20.3510   74.3000  108.4230 N.3   508  CYS508     -0.1221
      2  CA        21.1740   75.3160  109.0820 C.3   508  CYS508      0.1808
      3  C         21.9140   74.7060  110.2710 C.2   508  CYS508      0.2601
      4  O         21.3040   74.2700  111.2540 O.2   508  CYS508     -0.2717
      5  CB        20.3000   76.4940  109.5580 C.3   508  CYS508      0.0970
      6  SG        21.1420   78.1490  109.6330 S.3   508  CYS508     -0.0800
      7  N         23.2360   74.6860  110.1660 N.am  509  VAL509     -0.1965
      8  CA        24.0980   74.1360  111.2020 C.3   509  VAL509      0.1727
      9  C         23.9090   74.7380  112.6180 C.2   509  VAL509      0.2616
     10  O         24.0020   74.0190  113.6190 O.2   509  VAL509     -0.2715
     11  CB        25.5970   74.2690  110.7700 C.3   509  VAL509      0.0290
     12  CG1       25.8220   73.5370  109.4490 C.3   509  VAL509      0.0023
     13  CG2       25.9840   75.7440  110.6140 C.3   509  VAL509      0.0023
     14  N         23.6150   76.0360  112.7060 N.am  510  ILE510     -0.1963
     15  CA        23.4760   76.6950  114.0120 C.3   510  ILE510      0.1727
     16  C         22.0680   77.0880  114.4780 C.2   510  ILE510      0.2617
     17  O         21.9260   77.7300  115.5240 O.2   510  ILE510     -0.2715
     18  CB        24.3540   77.9690  114.0750 C.3   510  ILE510      0.0290
     19  CG1       23.7940   79.0340  113.1270 C.3   510  ILE510      0.0022
     20  CG2       25.7930   77.6370  113.6850 C.3   510  ILE510      0.0023
     21  CD1       24.4940   80.3770  113.2330 C.3   510  ILE510      0.0001
     22  N         21.0400   76.7110  113.7150 N.am  511  LEU511     -0.1942
     23  CA        19.6490   77.0280  114.0590 C.3   511  LEU511      0.1978
     24  C         18.6860   75.9060  113.6610 C.2   511  LEU511      0.3842
     25  O         17.8420   75.5190  114.5040 O.co2 511  LEU511     -0.2437
     26  CB        19.2120   78.3350  113.3850 C.3   511  LEU511      0.0333
     27  CG        19.5420   79.6500  114.0950 C.3   511  LEU511      0.0023
     28  CD1       19.2970   80.8110  113.1450 C.3   511  LEU511      0.0001
     29  CD2       18.6990   79.7800  115.3580 C.3   511  LEU511      0.0001
     30  OXT       18.7770   75.4350  112.5030 O.co2 511  LEU511     -0.2437
@<TRIPOS>BOND
     1     1     2    1
     2     2     5    1
     3     2     3    1
     4    12    11    1
     5     5     6    1
     6     7     3   am
     7     7     8    1
     8     3     4    2
     9    13    11    1
    10    11     8    1
    11     8     9    1
    12    30    24   ar
    13     9    14   am
    14     9    10    2
    15    14    15    1
    16    19    21    1
    17    19    18    1
    18    28    27    1
    19    26    23    1
    20    26    27    1
    21    24    23    1
    22    24    25   ar
    23    20    18    1
    24    22    23    1
    25    22    16   am
    26    15    18    1
    27    15    16    1
    28    27    29    1
    29    16    17    2
