@<TRIPOS>MOLECULE
1n4q_MGM_B_1.pdb
 29 28 0 0 0
SMALL
GASTEIGER

@<TRIPOS>ATOM
      1  C20       34.9370   83.8130   65.2530 C.3   1401  MGM1401     0.0260
      2  C19       35.3920   85.0130   67.4200 C.3   1401  MGM1401     0.0260
      3  C18       35.5100   85.0240   65.9180 C.2   1401  MGM1401    -0.0478
      4  C17       36.0630   86.0070   65.2090 C.2   1401  MGM1401    -0.0342
      5  C16       36.6870   87.2560   65.7540 C.3   1401  MGM1401     0.0297
      6  C14       35.4030   88.3330   62.7760 C.3   1401  MGM1401     0.0260
      7  C13       35.9280   88.9230   64.0730 C.2   1401  MGM1401    -0.0478
      8  C15       37.1300   88.1730   64.6410 C.3   1401  MGM1401     0.0263
      9  C12       35.3720   90.0100   64.6900 C.2   1401  MGM1401    -0.0342
     10  C11       34.1650   90.7700   64.1800 C.3   1401  MGM1401     0.0297
     11  C9        33.7710   91.9520   65.0690 C.3   1401  MGM1401     0.0263
     12  C8        32.5480   92.7050   64.5970 C.2   1401  MGM1401    -0.0478
     13  C10       31.4590   92.7530   65.6470 C.3   1401  MGM1401     0.0260
     14  C7        32.4350   93.2720   63.3580 C.2   1401  MGM1401    -0.0331
     15  C6        31.2130   94.0250   62.8500 C.3   1401  MGM1401     0.0427
     16  C5        30.3070   93.1270   61.9840 C.3   1401  MGM1401     0.0769
     17  N3        29.1590   93.7990   61.3560 N.3   1401  MGM1401    -0.2691
     18  C4        27.8710   93.3170   61.8670 C.3   1401  MGM1401     0.0897
     19  C2        29.3320   94.8370   60.3110 C.3   1401  MGM1401     0.1051
     20  C1        28.2740   95.6340   59.5450 C.3   1401  MGM1401     0.1664
     21  O1        26.9400   95.2370   59.8340 O.3   1401  MGM1401    -0.3123
     22  PA        26.0030   96.2210   60.6990 P.3   1401  MGM1401     0.2230
     23  O1A       25.8780   97.5810   60.0700 O.2   1401  MGM1401    -0.5169
     24  O3A       26.6310   96.2650   62.1890 O.3   1401  MGM1401    -0.2261
     25  O2A       24.6310   95.4950   60.8400 O.3   1401  MGM1401    -0.4370
     26  PB        26.1920   97.0060   63.5290 P.3   1401  MGM1401     0.5373
     27  O1B       24.9390   97.8040   63.3620 O.2   1401  MGM1401    -0.2221
     28  O2B       27.3980   97.8790   63.9360 O.3   1401  MGM1401    -0.1143
     29  O3B       26.0340   95.8760   64.5670 O.3   1401  MGM1401    -0.1143
@<TRIPOS>BOND
     1    20    21    1
     2    20    19    1
     3    21    22    1
     4    23    22    2
     5    19    17    1
     6    22    25    1
     7    22    24    1
     8    17    18    1
     9    17    16    1
    10    16    15    1
    11    24    26    1
    12     6     7    1
    13    15    14    1
    14    14    12    2
    15    27    26    2
    16    26    28    1
    17    26    29    1
    18     7     8    1
    19     7     9    2
    20    10     9    1
    21    10    11    1
    22    12    11    1
    23    12    13    1
    24     8     5    1
    25     4     5    1
    26     4     3    2
    27     1     3    1
    28     3     2    1
