@<TRIPOS>MOLECULE
1n4q_GER_R_1.pdb
 20 19 0 0 0
SMALL
GASTEIGER

@<TRIPOS>ATOM
      1  C1       -26.8150   57.2920   12.5970 C.3   1300  GER1300     0.0300
      2  C2       -28.2540   57.4200   13.1160 C.2   1300  GER1300    -0.0342
      3  C3       -29.1480   56.4060   13.2990 C.2   1300  GER1300    -0.0478
      4  C4       -28.8110   54.9680   12.9940 C.3   1300  GER1300     0.0260
      5  C5       -30.5640   56.6610   13.8460 C.3   1300  GER1300     0.0263
      6  C6       -31.6730   55.6580   13.4270 C.3   1300  GER1300     0.0297
      7  C7       -33.0690   56.0570   13.8980 C.2   1300  GER1300    -0.0342
      8  C8       -34.2590   55.5950   13.4020 C.2   1300  GER1300    -0.0478
      9  C9       -34.3650   54.5940   12.2740 C.3   1300  GER1300     0.0260
     10  C10      -35.5850   56.0650   13.9540 C.3   1300  GER1300     0.0263
     11  C11      -36.7410   55.0380   13.9220 C.3   1300  GER1300     0.0297
     12  C12      -38.0230   55.6010   14.5010 C.2   1300  GER1300    -0.0342
     13  C13      -39.2230   54.9470   14.6160 C.2   1300  GER1300    -0.0478
     14  C14      -39.4600   53.5280   14.1680 C.3   1300  GER1300     0.0260
     15  C15      -40.4630   55.5840   15.2140 C.3   1300  GER1300     0.0263
     16  C16      -40.1990   56.6870   16.2190 C.3   1300  GER1300     0.0297
     17  C17      -41.3510   57.6690   16.3270 C.2   1300  GER1300    -0.0342
     18  C18      -41.3890   58.7620   17.1480 C.2   1300  GER1300    -0.0478
     19  C19      -40.2700   59.1690   18.0850 C.3   1300  GER1300     0.0260
     20  C20      -42.5800   59.6850   17.2090 C.3   1300  GER1300     0.0260
@<TRIPOS>BOND
     1     9     8    1
     2     1     2    1
     3     4     3    1
     4     2     3    2
     5     3     5    1
     6     8     7    2
     7     8    10    1
     8     6     5    1
     9     6     7    1
    10    11    10    1
    11    11    12    1
    12    14    13    1
    13    12    13    2
    14    13    15    1
    15    15    16    1
    16    16    17    1
    17    17    18    2
    18    18    20    1
    19    18    19    1
