@<TRIPOS>MOLECULE
1n4q_III_M_1.pdb
 39 38 0 0 0
SMALL
GASTEIGER

@<TRIPOS>ATOM
      1  N         20.1610   89.3790   63.9020 N.3   107  LYS107     -0.1231
      2  CA        21.4070   88.5770   63.6890 C.3   107  LYS107      0.1693
      3  C         22.6510   89.4640   63.4420 C.2   107  LYS107      0.2592
      4  O         22.5380   90.6120   62.9970 O.2   107  LYS107     -0.2718
      5  CB        21.2140   87.6150   62.5060 C.3   107  LYS107      0.0285
      6  CG        22.3430   86.6030   62.3530 C.3   107  LYS107      0.0035
      7  CD        22.2570   85.7880   61.0580 C.3   107  LYS107      0.0206
      8  CE        23.5150   84.9110   60.8840 C.3   107  LYS107      0.1093
      9  NZ        23.6820   84.3590   59.5000 N.3   107  LYS107     -0.1314
     10  N         23.8300   88.9270   63.7510 N.am  108  CYS108     -0.1956
     11  CA        25.0910   89.6420   63.5560 C.3   108  CYS108      0.1843
     12  C         26.0400   88.8050   62.7110 C.2   108  CYS108      0.2625
     13  O         26.7030   87.9050   63.2260 O.2   108  CYS108     -0.2714
     14  CB        25.7690   89.9470   64.9020 C.3   108  CYS108      0.0997
     15  SG        25.1190   91.3710   65.8220 S.3   108  CYS108     -0.0797
     16  N         26.1050   89.0930   61.4150 N.am  109  VAL109     -0.1963
     17  CA        26.9990   88.3550   60.5230 C.3   109  VAL109      0.1727
     18  C         28.3850   88.9850   60.5950 C.2   109  VAL109      0.2616
     19  O         28.5690   90.1380   60.2070 O.2   109  VAL109     -0.2715
     20  CB        26.4920   88.3970   59.0710 C.3   109  VAL109      0.0290
     21  CG1       27.4590   87.6580   58.1580 C.3   109  VAL109      0.0023
     22  CG2       25.1080   87.7770   58.9970 C.3   109  VAL109      0.0023
     23  N         29.3530   88.2290   61.0990 N.am  110  ILE110     -0.1963
     24  CA        30.7080   88.7400   61.2500 C.3   110  ILE110      0.1727
     25  C         31.6950   88.1270   60.2640 C.2   110  ILE110      0.2617
     26  O         32.8870   88.4540   60.2840 O.2   110  ILE110     -0.2715
     27  CB        31.2270   88.5070   62.6820 C.3   110  ILE110      0.0290
     28  CG1       31.2530   87.0070   62.9850 C.3   110  ILE110      0.0022
     29  CG2       30.3560   89.2600   63.6780 C.3   110  ILE110      0.0023
     30  CD1       31.8350   86.6690   64.3390 C.3   110  ILE110      0.0001
     31  N         31.1950   87.2450   59.4030 N.am  111  LEU111     -0.1942
     32  CA        32.0190   86.5900   58.3840 C.3   111  LEU111      0.1978
     33  C         31.2630   86.4640   57.0450 C.2   111  LEU111      0.3842
     34  O         31.9190   86.4750   55.9770 O.co2 111  LEU111     -0.2437
     35  CB        32.4750   85.2140   58.8780 C.3   111  LEU111      0.0333
     36  CG        33.4750   85.2240   60.0450 C.3   111  LEU111      0.0023
     37  CD1       33.6730   83.8150   60.5770 C.3   111  LEU111      0.0001
     38  CD2       34.7990   85.8020   59.5860 C.3   111  LEU111      0.0001
     39  OXT       30.0160   86.3520   57.0700 O.co2 111  LEU111     -0.2437
@<TRIPOS>BOND
     1    34    33   ar
     2    33    39   ar
     3    33    32    1
     4    21    20    1
     5    32    35    1
     6    32    31    1
     7    35    36    1
     8    22    20    1
     9    20    17    1
    10    31    25   am
    11     9     8    1
    12    38    36    1
    13    36    37    1
    14    19    18    2
    15    25    26    2
    16    25    24    1
    17    17    18    1
    18    17    16    1
    19    18    23   am
    20     8     7    1
    21     7     6    1
    22    23    24    1
    23    24    27    1
    24    16    12   am
    25     6     5    1
    26     5     2    1
    27    27    28    1
    28    27    29    1
    29    12    13    2
    30    12    11    1
    31    28    30    1
    32     4     3    2
    33     3     2    1
    34     3    10   am
    35    11    10    1
    36    11    14    1
    37     2     1    1
    38    14    15    1
