@<TRIPOS>MOLECULE
1n4r_III_M_1.pdb
 46 45 0 0 0
SMALL
GASTEIGER

@<TRIPOS>ATOM
      1  N         18.5430   92.0460   64.1240 N.3   106  THR106     -0.1203
      2  CA        18.3760   90.5800   63.8560 C.3   106  THR106      0.1994
      3  C         19.6210   89.8170   64.3450 C.2   106  THR106      0.2618
      4  O         19.7740   89.5730   65.5490 O.2   106  THR106     -0.2717
      5  CB        18.1640   90.3090   62.3310 C.3   106  THR106      0.1784
      6  OG1       17.3490   91.3480   61.7680 O.3   106  THR106     -0.2211
      7  CG2       17.4660   88.9560   62.1120 C.3   106  THR106      0.0376
      8  N         20.5040   89.4430   63.4160 N.am  107  LYS107     -0.1965
      9  CA        21.7280   88.7290   63.7760 C.3   107  LYS107      0.1728
     10  C         22.9710   89.5350   63.3780 C.2   107  LYS107      0.2616
     11  O         22.8930   90.4740   62.5810 O.2   107  LYS107     -0.2715
     12  CB        21.7670   87.3440   63.1140 C.3   107  LYS107      0.0311
     13  CG        22.3600   87.3120   61.7160 C.3   107  LYS107      0.0038
     14  CD        22.7610   85.8880   61.3210 C.3   107  LYS107      0.0206
     15  CE        23.6370   85.8780   60.0610 C.3   107  LYS107      0.1093
     16  NZ        24.1250   84.5160   59.6840 N.3   107  LYS107     -0.1314
     17  N         24.1140   89.1660   63.9450 N.am  108  CYS108     -0.1954
     18  CA        25.3700   89.8500   63.6660 C.3   108  CYS108      0.1843
     19  C         26.2630   89.0110   62.7650 C.2   108  CYS108      0.2625
     20  O         26.6030   87.8750   63.0960 O.2   108  CYS108     -0.2714
     21  CB        26.1110   90.1420   64.9750 C.3   108  CYS108      0.0997
     22  SG        25.2330   91.3030   66.0600 S.3   108  CYS108     -0.0797
     23  N         26.6530   89.5660   61.6250 N.am  109  VAL109     -0.1963
     24  CA        27.5200   88.8330   60.7130 C.3   109  VAL109      0.1727
     25  C         28.9690   89.2410   60.9540 C.2   109  VAL109      0.2616
     26  O         29.3150   90.4120   60.8300 O.2   109  VAL109     -0.2715
     27  CB        27.1360   89.1070   59.2450 C.3   109  VAL109      0.0290
     28  CG1       28.0270   88.3080   58.3130 C.3   109  VAL109      0.0023
     29  CG2       25.6790   88.7420   59.0170 C.3   109  VAL109      0.0023
     30  N         29.8120   88.2780   61.3160 N.am  110  ILE110     -0.1963
     31  CA        31.2170   88.5700   61.5780 C.3   110  ILE110      0.1727
     32  C         32.1500   87.9750   60.5260 C.2   110  ILE110      0.2617
     33  O         33.3530   88.2510   60.5310 O.2   110  ILE110     -0.2715
     34  CB        31.6710   88.0580   62.9770 C.3   110  ILE110      0.0290
     35  CG1       31.4680   86.5430   63.0750 C.3   110  ILE110      0.0022
     36  CG2       30.9300   88.8050   64.0800 C.3   110  ILE110      0.0023
     37  CD1       32.0770   85.9250   64.3120 C.3   110  ILE110      0.0001
     38  N         31.5990   87.1630   59.6270 N.am  111  LEU111     -0.1942
     39  CA        32.3940   86.5360   58.5720 C.3   111  LEU111      0.1978
     40  C         31.6300   86.4310   57.2460 C.2   111  LEU111      0.3842
     41  O         32.2870   86.4680   56.1800 O.co2 111  LEU111     -0.2437
     42  CB        32.8690   85.1500   59.0230 C.3   111  LEU111      0.0333
     43  CG        33.9150   85.1260   60.1450 C.3   111  LEU111      0.0023
     44  CD1       34.0550   83.7240   60.7030 C.3   111  LEU111      0.0001
     45  CD2       35.2420   85.6200   59.6120 C.3   111  LEU111      0.0001
     46  OXT       30.3850   86.3030   57.2830 O.co2 111  LEU111     -0.2437
@<TRIPOS>BOND
     1    41    40   ar
     2    40    46   ar
     3    40    39    1
     4    28    27    1
     5    39    42    1
     6    39    38    1
     7    29    27    1
     8    42    43    1
     9    27    24    1
    10    45    43    1
    11    38    32   am
    12    16    15    1
    13    15    14    1
    14    43    44    1
    15    32    33    2
    16    32    31    1
    17    24    25    1
    18    24    23    1
    19    26    25    2
    20    25    30   am
    21    30    31    1
    22    14    13    1
    23    31    34    1
    24    23    19   am
    25    13    12    1
    26     6     5    1
    27     7     5    1
    28     5     2    1
    29    11    10    2
    30    19    20    2
    31    19    18    1
    32    34    35    1
    33    34    36    1
    34    35    37    1
    35    12     9    1
    36    10     9    1
    37    10    17   am
    38     8     9    1
    39     8     3   am
    40    18    17    1
    41    18    21    1
    42     2     1    1
    43     2     3    1
    44     3     4    2
    45    21    22    1
