@<TRIPOS>MOLECULE
1n4r_GER_M_1.pdb
 20 19 0 0 0
SMALL
GASTEIGER

@<TRIPOS>ATOM
      1  C1        26.2380   92.8070   65.9140 C.3   1108  GER1108     0.0300
      2  C2        27.7090   92.4500   65.9300 C.2   1108  GER1108    -0.0342
      3  C3        28.5510   92.5870   64.8750 C.2   1108  GER1108    -0.0478
      4  C4        28.1390   93.1170   63.5170 C.3   1108  GER1108     0.0260
      5  C5        29.9850   92.1920   64.9480 C.3   1108  GER1108     0.0263
      6  C6        30.9550   93.2470   65.4870 C.3   1108  GER1108     0.0297
      7  C7        32.2550   92.5580   65.8050 C.2   1108  GER1108    -0.0342
      8  C8        33.3170   92.4170   64.9660 C.2   1108  GER1108    -0.0478
      9  C9        33.3760   92.9470   63.5480 C.3   1108  GER1108     0.0260
     10  C10       34.5360   91.6600   65.4040 C.3   1108  GER1108     0.0263
     11  C11       34.8700   90.5030   64.4630 C.3   1108  GER1108     0.0297
     12  C12       36.0480   89.6960   64.9120 C.2   1108  GER1108    -0.0342
     13  C13       36.5520   88.6260   64.2370 C.2   1108  GER1108    -0.0478
     14  C14       35.9890   88.1120   62.9210 C.3   1108  GER1108     0.0260
     15  C15       37.7240   87.8180   64.7640 C.3   1108  GER1108     0.0263
     16  C16       37.2720   86.9680   65.9200 C.3   1108  GER1108     0.0297
     17  C17       36.3890   85.8360   65.4560 C.2   1108  GER1108    -0.0342
     18  C18       35.7810   84.9370   66.2320 C.2   1108  GER1108    -0.0478
     19  C19       35.8610   84.9180   67.7390 C.3   1108  GER1108     0.0260
     20  C20       34.9390   83.8420   65.6510 C.3   1108  GER1108     0.0260
@<TRIPOS>BOND
     1    14    13    1
     2     4     3    1
     3     9     8    1
     4    13    15    1
     5    13    12    2
     6    11    12    1
     7    11    10    1
     8    15    16    1
     9     3     5    1
    10     3     2    2
    11     5     6    1
    12     8    10    1
    13     8     7    2
    14    17    16    1
    15    17    18    2
    16     6     7    1
    17    20    18    1
    18     1     2    1
    19    18    19    1
