@<TRIPOS>MOLECULE
1n4s_GER_M_1.pdb
 20 19 0 0 0
SMALL
GASTEIGER

@<TRIPOS>ATOM
      1  C1        27.9930   85.1440   62.5340 C.3   1108  GER1108     0.0300
      2  C2        26.7460   84.5700   63.2180 C.2   1108  GER1108    -0.0342
      3  C3        26.7160   83.5100   64.0810 C.2   1108  GER1108    -0.0478
      4  C4        27.9610   82.7460   64.4780 C.3   1108  GER1108     0.0260
      5  C5        25.4110   83.0220   64.7230 C.3   1108  GER1108     0.0263
      6  C6        25.3180   81.5080   65.0580 C.3   1108  GER1108     0.0297
      7  C7        23.9340   81.0770   65.5410 C.2   1108  GER1108    -0.0342
      8  C8        23.5390   79.8040   65.8320 C.2   1108  GER1108    -0.0478
      9  C9        24.4340   78.5910   65.7120 C.3   1108  GER1108     0.0260
     10  C10       22.1360   79.5080   66.3030 C.3   1108  GER1108     0.0263
     11  C11       21.9410   78.2180   67.1200 C.3   1108  GER1108     0.0297
     12  C12       20.5040   78.0380   67.5410 C.2   1108  GER1108    -0.0342
     13  C13       19.9990   76.9990   68.2770 C.2   1108  GER1108    -0.0478
     14  C14       20.8330   75.8480   68.7830 C.3   1108  GER1108     0.0260
     15  C15       18.5270   76.8870   68.6750 C.3   1108  GER1108     0.0263
     16  C16       17.7630   78.2040   68.7780 C.3   1108  GER1108     0.0297
     17  C17       16.2830   78.0290   68.4960 C.2   1108  GER1108    -0.0342
     18  C18       15.3340   79.0090   68.5000 C.2   1108  GER1108    -0.0478
     19  C19       15.6010   80.4680   68.7900 C.3   1108  GER1108     0.0260
     20  C20       13.8850   78.7220   68.1990 C.3   1108  GER1108     0.0260
@<TRIPOS>BOND
     1     1     2    1
     2     2     3    2
     3     3     4    1
     4     3     5    1
     5     5     6    1
     6     6     7    1
     7     7     8    2
     8     9     8    1
     9     8    10    1
    10    10    11    1
    11    11    12    1
    12    12    13    2
    13    20    18    1
    14    13    15    1
    15    13    14    1
    16    17    18    2
    17    17    16    1
    18    18    19    1
    19    15    16    1
