@<TRIPOS>MOLECULE
1n4s_GRG_B_1.pdb
 29 28 0 0 0
SMALL
GASTEIGER

@<TRIPOS>ATOM
      1  C20       34.8190   83.6480   65.7670 C.3   1501  GRG1501     0.0260
      2  C19       35.6880   84.8280   67.8260 C.3   1501  GRG1501     0.0260
      3  C18       35.6250   84.7880   66.3180 C.2   1501  GRG1501    -0.0478
      4  C17       36.2220   85.6710   65.5180 C.2   1501  GRG1501    -0.0342
      5  C16       37.0610   86.8320   65.9670 C.3   1501  GRG1501     0.0297
      6  C14       35.9050   88.0820   62.8980 C.3   1501  GRG1501     0.0260
      7  C13       36.4340   88.5260   64.2460 C.2   1501  GRG1501    -0.0478
      8  C15       37.5340   87.6420   64.7950 C.3   1501  GRG1501     0.0263
      9  C12       35.9740   89.6120   64.9180 C.2   1501  GRG1501    -0.0342
     10  C11       34.8900   90.5310   64.4340 C.3   1501  GRG1501     0.0297
     11  C9        34.6340   91.6530   65.4220 C.3   1501  GRG1501     0.0263
     12  C8        33.5800   92.6280   64.9930 C.2   1501  GRG1501    -0.0478
     13  C10       32.2600   92.4380   65.7010 C.3   1501  GRG1501     0.0260
     14  C7        33.8270   93.5940   64.0610 C.2   1501  GRG1501    -0.0342
     15  C6        32.8260   94.6240   63.5940 C.3   1501  GRG1501     0.0297
     16  C5        32.5930   94.6340   62.0800 C.3   1501  GRG1501     0.0264
     17  C3        31.4280   95.5020   61.6880 C.2   1501  GRG1501    -0.0454
     18  C4        31.8390   96.8470   61.1510 C.3   1501  GRG1501     0.0261
     19  C2        30.1380   95.0860   61.8220 C.2   1501  GRG1501    -0.0024
     20  C1        28.9070   95.8760   61.4620 C.3   1501  GRG1501     0.1747
     21  O1        27.7480   95.1040   61.7890 O.3   1501  GRG1501    -0.3089
     22  PA        26.4400   95.8850   62.2770 P.3   1501  GRG1501     0.2233
     23  O1A       25.9350   96.9020   61.2940 O.2   1501  GRG1501    -0.5169
     24  O3A       26.8100   96.5510   63.6770 O.3   1501  GRG1501    -0.2261
     25  O2A       25.3950   94.7730   62.5580 O.3   1501  GRG1501    -0.4370
     26  PB        26.0010   97.4680   64.6680 P.3   1501  GRG1501     0.5373
     27  O1B       24.6140   97.7660   64.1980 O.2   1501  GRG1501    -0.2221
     28  O2B       26.8950   98.7130   64.7950 O.3   1501  GRG1501    -0.1143
     29  O3B       26.0240   96.6960   66.0010 O.3   1501  GRG1501    -0.1143
@<TRIPOS>BOND
     1    18    17    1
     2    23    22    2
     3    20    21    1
     4    20    19    1
     5    17    19    2
     6    17    16    1
     7    21    22    1
     8    16    15    1
     9    22    25    1
    10    22    24    1
    11     6     7    1
    12    15    14    1
    13    24    26    1
    14    14    12    2
    15    27    26    2
    16     7     8    1
    17     7     9    2
    18    10     9    1
    19    10    11    1
    20    26    28    1
    21    26    29    1
    22     8     5    1
    23    12    11    1
    24    12    13    1
    25     4     5    1
    26     4     3    2
    27     1     3    1
    28     3     2    1
