@<TRIPOS>MOLECULE
1n4s_III_M_1.pdb
 30 29 0 0 0
SMALL
GASTEIGER

@<TRIPOS>ATOM
      1  N         25.2890   85.0580   59.0220 N.3   108  CYS108     -0.1221
      2  CA        26.3280   85.3270   60.0160 C.3   108  CYS108      0.1808
      3  C         26.7380   86.8110   60.0060 C.2   108  CYS108      0.2601
      4  O         27.2540   87.3270   59.0080 O.2   108  CYS108     -0.2717
      5  CB        27.5530   84.4430   59.7430 C.3   108  CYS108      0.0970
      6  SG        28.6160   84.0560   61.2160 S.3   108  CYS108     -0.0800
      7  N         26.5230   87.4850   61.1320 N.am  109  VAL109     -0.1965
      8  CA        26.8440   88.8950   61.2450 C.3   109  VAL109      0.1727
      9  C         28.3360   89.2380   61.1310 C.2   109  VAL109      0.2616
     10  O         28.6760   90.2890   60.5980 O.2   109  VAL109     -0.2715
     11  CB        26.2660   89.4830   62.5750 C.3   109  VAL109      0.0290
     12  CG1       24.7480   89.3300   62.5910 C.3   109  VAL109      0.0023
     13  CG2       26.8580   88.7760   63.7810 C.3   109  VAL109      0.0023
     14  N         29.2250   88.3570   61.5860 N.am  110  ILE110     -0.1963
     15  CA        30.6540   88.6740   61.5490 C.3   110  ILE110      0.1727
     16  C         31.5560   88.0140   60.5030 C.2   110  ILE110      0.2617
     17  O         32.7610   88.2670   60.5020 O.2   110  ILE110     -0.2715
     18  CB        31.3150   88.4300   62.9330 C.3   110  ILE110      0.0290
     19  CG1       31.2880   86.9370   63.2670 C.3   110  ILE110      0.0022
     20  CG2       30.6150   89.2650   64.0070 C.3   110  ILE110      0.0023
     21  CD1       32.0750   86.5790   64.5120 C.3   110  ILE110      0.0001
     22  N         31.0050   87.1810   59.6240 N.am  111  LEU111     -0.1942
     23  CA        31.8190   86.5200   58.6020 C.3   111  LEU111      0.1978
     24  C         31.1120   86.3960   57.2550 C.2   111  LEU111      0.3842
     25  O         31.8060   86.4540   56.2150 O.co2 111  LEU111     -0.2437
     26  CB        32.2730   85.1340   59.0850 C.3   111  LEU111      0.0333
     27  CG        33.4360   85.1410   60.0870 C.3   111  LEU111      0.0023
     28  CD1       33.6870   83.7460   60.6420 C.3   111  LEU111      0.0001
     29  CD2       34.6770   85.6690   59.3930 C.3   111  LEU111      0.0001
     30  OXT       29.8720   86.2310   57.2480 O.co2 111  LEU111     -0.2437
@<TRIPOS>BOND
     1    25    24   ar
     2    30    24   ar
     3    24    23    1
     4    23    26    1
     5    23    22    1
     6     4     3    2
     7     1     2    1
     8    26    27    1
     9    29    27    1
    10    22    16   am
    11     5     2    1
    12     5     6    1
    13     3     2    1
    14     3     7   am
    15    27    28    1
    16    17    16    2
    17    16    15    1
    18    10     9    2
    19     9     8    1
    20     9    14   am
    21     7     8    1
    22     8    11    1
    23    15    14    1
    24    15    18    1
    25    11    12    1
    26    11    13    1
    27    18    19    1
    28    18    20    1
    29    19    21    1
