@<TRIPOS>MOLECULE
1n50_DHE_A_1.pdb
 49 56 0 0 0
SMALL
GASTEIGER

@<TRIPOS>ATOM
      1 FE         27.5710   22.2770    5.8300 Fe    602  DHE602      0.0000
      2  CHA       24.2870   22.4260    6.4560 C.2   602  DHE602      0.0000
      3  CHB       28.1340   20.3100    8.5920 C.2   602  DHE602      0.0000
      4  CHC       30.6850   21.5640    4.7400 C.2   602  DHE602      0.0000
      5  CHD       27.4400   24.9800    3.7570 C.2   602  DHE602      0.0000
      6  NA        26.3750   21.4260    7.2530 N.2   602  DHE602      0.0000
      7  C1A       25.0090   21.6170    7.3320 C.2   602  DHE602      0.0000
      8  C2A       24.5320   20.8780    8.4600 C.2   602  DHE602      0.0000
      9  C3A       25.6180   20.3150    9.0930 C.2   602  DHE602      0.0000
     10  C4A       26.8010   20.6620    8.3360 C.2   602  DHE602      0.0000
     11  CMA       25.6130   19.4780   10.3300 C.3   602  DHE602      0.0000
     12  CAA       23.1030   20.7750    8.8710 C.3   602  DHE602      0.0000
     13  CBA       22.7100   21.7490    9.8880 C.3   602  DHE602      0.0000
     14  CGA       21.2730   21.9940   10.0530 C.2   602  DHE602      0.0000
     15  O1A       20.5480   21.8600    9.0380 O.co2 602  DHE602      0.0000
     16  O2A       20.7970   22.3110   11.1780 O.co2 602  DHE602      0.0000
     17  NB        29.1530   21.0190    6.4620 N.pl3 602  DHE602      0.0000
     18  C1B       29.1790   20.4120    7.7050 C.2   602  DHE602      0.0000
     19  C2B       30.5400   19.8710    7.9510 C.2   602  DHE602      0.0000
     20  OMB       31.0160   19.4810    9.0080 O.2   602  DHE602      0.0000
     21  C3B       31.2410   19.8980    6.6140 C.2   602  DHE602      0.0000
     22  CGB       31.0290   18.4460    5.9880 C.3   602  DHE602      0.0000
     23  CAB       32.6920   20.2130    6.7080 C.3   602  DHE602      0.0000
     24  CBB       33.0130   21.6050    7.0780 C.2   602  DHE602      0.0000
     25  O1B       33.9510   22.1960    6.4630 O.co2 602  DHE602      0.0000
     26  O2B       32.3390   22.1400    7.9860 O.co2 602  DHE602      0.0000
     27  C4B       30.3560   20.8890    5.8690 C.2   602  DHE602      0.0000
     28  NC        28.8850   23.1720    4.4690 N.2   602  DHE602      0.0000
     29  C1C       30.0980   22.6320    4.1450 C.2   602  DHE602      0.0000
     30  C2C       30.7170   23.3980    3.0460 C.2   602  DHE602      0.0000
     31  OMC       31.7410   23.0860    2.4260 O.2   602  DHE602      0.0000
     32  C3C       29.8440   24.6520    2.8510 C.2   602  DHE602      0.0000
     33  CGC       29.3740   24.6780    1.3080 C.3   602  DHE602      0.0000
     34  CAC       30.5280   25.9350    3.1820 C.3   602  DHE602      0.0000
     35  CBC       31.1430   26.0290    4.5260 C.2   602  DHE602      0.0000
     36  O1C       30.9410   27.0870    5.1880 O.co2 602  DHE602      0.0000
     37  O2C       31.8520   25.0610    4.9550 O.co2 602  DHE602      0.0000
     38  C4C       28.6420   24.2840    3.7260 C.2   602  DHE602      0.0000
     39  ND        26.0920   23.5370    5.2240 N.ar  602  DHE602      0.0000
     40  C1D       26.2380   24.5720    4.3170 C.ar  602  DHE602      0.0000
     41  C2D       24.9370   25.1090    4.0810 C.ar  602  DHE602      0.0000
     42  C3D       24.0460   24.3770    4.8350 C.ar  602  DHE602      0.0000
     43  C4D       24.7760   23.3940    5.5610 C.ar  602  DHE602      0.0000
     44  CMD       24.6610   26.2400    3.1530 C.3   602  DHE602      0.0000
     45  CAD       22.5940   24.5310    4.8750 C.3   602  DHE602      0.0000
     46  CBD       21.8040   24.6560    3.8640 C.3   602  DHE602      0.0000
     47  CGD       20.3590   24.3300    3.8400 C.2   602  DHE602      0.0000
     48  O1D       19.7310   24.4460    2.7660 O.co2 602  DHE602      0.0000
     49  O2D       19.8210   23.9440    4.9050 O.co2 602  DHE602      0.0000
@<TRIPOS>BOND
     1    33    32    1
     2    31    30    1
     3    48    47   ar
     4    32    30    2
     5    32    34    1
     6    32    38    1
     7    30    29    1
     8    44    41    1
     9    34    35    1
    10    38     5    1
    11    38    28    2
    12     5    40    2
    13    47    46    1
    14    47    49   ar
    15    46    45    1
    16    41    40   ar
    17    41    42   ar
    18    29    28    1
    19    29     4    2
    20    40    39   ar
    21    28     1    1
    22    35    37   ar
    23    35    36   ar
    24     4    27    1
    25    42    45    1
    26    42    43   ar
    27    39    43   ar
    28    39     1    1
    29    43     2    2
    30     1    17    1
    31     1     6    1
    32    27    17    1
    33    27    21    2
    34    22    21    1
    35     2     7    1
    36    17    18    1
    37    25    24   ar
    38    21    23    1
    39    21    19    1
    40    23    24    1
    41    24    26   ar
    42     6     7    2
    43     6    10    1
    44     7     8    1
    45    18    19    2
    46    18     3    1
    47    19    20    1
    48    10     3    2
    49    10     9    1
    50     8    12    1
    51     8     9    2
    52    12    13    1
    53    15    14   ar
    54     9    11    1
    55    13    14    1
    56    14    16   ar
