@<TRIPOS>MOLECULE
1n50_HEC_A_1.pdb
 43 50 0 0 0
SMALL
GASTEIGER

@<TRIPOS>ATOM
      1 FE         42.9890    9.9620    7.0420 Fe    601  HEC601      0.0000
      2  CHA       42.8160    6.5980    7.2960 C.2   601  HEC601      0.0000
      3  CHB       45.9990    9.7790    8.6010 C.2   601  HEC601      0.0000
      4  CHC       43.5610   13.2580    6.6390 C.2   601  HEC601      0.0000
      5  CHD       39.8640   10.2800    5.9740 C.2   601  HEC601      0.0000
      6  NA        44.1320    8.4900    7.7210 N.2   601  HEC601      0.0000
      7  C1A       43.9380    7.1520    7.7320 C.2   601  HEC601      0.0000
      8  C2A       45.0710    6.4270    8.1840 C.2   601  HEC601      0.0000
      9  C3A       46.0160    7.3140    8.5510 C.2   601  HEC601      0.0000
     10  C4A       45.4060    8.5900    8.2480 C.2   601  HEC601      0.0000
     11  CMA       47.3790    6.9980    9.1280 C.3   601  HEC601      0.0000
     12  CAA       45.2140    4.9020    8.1800 C.3   601  HEC601      0.0000
     13  CBA       44.5290    4.3830    9.4110 C.3   601  HEC601      0.0000
     14  CGA       44.7880    2.9250    9.6150 C.2   601  HEC601      0.0000
     15  O1A       44.0970    2.1270    8.9410 O.co2 601  HEC601      0.0000
     16  O2A       45.6800    2.5950   10.4450 O.co2 601  HEC601      0.0000
     17  NB        44.3220   11.2500    7.6680 N.ar  601  HEC601      0.0000
     18  C1B       45.4730   11.0410    8.3940 C.ar  601  HEC601      0.0000
     19  C2B       46.2840   12.2240    8.5430 C.ar  601  HEC601      0.0000
     20  C3B       45.6350   13.1540    7.8080 C.ar  601  HEC601      0.0000
     21  C4B       44.4440   12.5650    7.3550 C.ar  601  HEC601      0.0000
     22  CMB       47.5690   12.2820    9.3690 C.3   601  HEC601      0.0000
     23  CAB       45.8870   14.6300    7.5830 C.3   601  HEC601      0.0000
     24  CBB       47.2670   15.1860    7.1840 C.3   601  HEC601      0.0000
     25  NC        41.9680   11.4470    6.3720 N.2   601  HEC601      0.0000
     26  C1C       42.4090   12.7180    6.1270 C.2   601  HEC601      0.0000
     27  C2C       41.2500   13.5130    5.6640 C.2   601  HEC601      0.0000
     28  C3C       40.1870   12.6650    5.5630 C.2   601  HEC601      0.0000
     29  C4C       40.6180   11.4440    6.0880 C.2   601  HEC601      0.0000
     30  CMC       41.2380   15.0350    5.4090 C.3   601  HEC601      0.0000
     31  CAC       38.7670   12.9210    5.0560 C.3   601  HEC601      0.0000
     32  CBC       38.4480   13.8790    3.9060 C.3   601  HEC601      0.0000
     33  ND        41.6450    8.6550    6.6150 N.ar  601  HEC601      0.0000
     34  C1D       40.3690    8.9490    6.1520 C.ar  601  HEC601      0.0000
     35  C2D       39.5950    7.7230    5.9990 C.ar  601  HEC601      0.0000
     36  C3D       40.3990    6.7170    6.3770 C.ar  601  HEC601      0.0000
     37  C4D       41.7190    7.2960    6.7700 C.ar  601  HEC601      0.0000
     38  CMD       38.1930    7.5200    5.5200 C.3   601  HEC601      0.0000
     39  CAD       40.0830    5.2330    6.1850 C.3   601  HEC601      0.0000
     40  CBD       40.6220    4.8020    4.8310 C.3   601  HEC601      0.0000
     41  CGD       40.6080    3.2970    4.6280 C.2   601  HEC601      0.0000
     42  O1D       40.8470    2.8720    3.4610 O.co2 601  HEC601      0.0000
     43  O2D       40.3820    2.5420    5.6150 O.co2 601  HEC601      0.0000
@<TRIPOS>BOND
     1    42    41   ar
     2    32    31    1
     3    41    40    1
     4    41    43   ar
     5    40    39    1
     6    31    28    1
     7    30    27    1
     8    38    35    1
     9    28    27    2
    10    28    29    1
    11    27    26    1
    12     5    29    1
    13     5    34    2
    14    35    34   ar
    15    35    36   ar
    16    29    25    2
    17    26    25    1
    18    26     4    2
    19    34    33   ar
    20    39    36    1
    21    25     1    1
    22    36    37   ar
    23    33    37   ar
    24    33     1    1
    25     4    21    1
    26    37     2    2
    27     1    17    1
    28     1     6    1
    29    24    23    1
    30     2     7    1
    31    21    17   ar
    32    21    20   ar
    33    23    20    1
    34    17    18   ar
    35     6     7    2
    36     6    10    1
    37     7     8    1
    38    20    19   ar
    39    12     8    1
    40    12    13    1
    41     8     9    2
    42    10     9    1
    43    10     3    2
    44    18    19   ar
    45    18     3    1
    46    19    22    1
    47     9    11    1
    48    15    14   ar
    49    13    14    1
    50    14    16   ar
