@<TRIPOS>MOLECULE
1n51_III_B_1.pdb
 33 35 0 0 0
SMALL
GASTEIGER

@<TRIPOS>ATOM
      1  C1        28.3200   56.0920   45.2160 C.3     1  01B1        0.1354
      2  C2        29.1140   56.2440   43.9060 C.3     1  01B1        0.2452
      3  N2        28.9930   55.1050   46.1170 N.3     1  01B1       -0.1293
      4  O2        30.5070   56.4660   44.1810 O.3     1  01B1       -0.2117
      5  C3        28.5640   57.3960   43.0800 C.2     1  01B1        0.2579
      6  C6        26.8820   55.6350   44.9100 C.3     1  01B1        0.0485
      7  C7        25.8750   55.9580   46.0010 C.ar    1  01B1       -0.0206
      8  C8        24.8820   55.0410   46.3410 C.ar    1  01B1       -0.0042
      9  C9        23.8970   55.3570   47.2850 C.ar    1  01B1       -0.0003
     10  C10       23.9040   56.6070   47.9030 C.ar    1  01B1       -0.0000
     11  C11       24.8920   57.5300   47.5780 C.ar    1  01B1       -0.0003
     12  C12       25.8720   57.2040   46.6320 C.ar    1  01B1       -0.0042
     13  O3        28.3830   58.5060   43.5830 O.2     1  01B1       -0.2721
     14  N         28.2930   57.1370   41.7900 N.am    2  PRO2       -0.2709
     15  CA        27.7680   58.1280   40.8520 C.3     2  PRO2        0.1521
     16  C         26.7750   59.1140   41.4470 C.2     2  PRO2        0.2440
     17  O         25.6580   58.7530   41.8120 O.2     2  PRO2       -0.2731
     18  CB        27.1690   57.2630   39.7590 C.3     2  PRO2        0.0310
     19  CG        28.1680   56.1520   39.6790 C.3     2  PRO2        0.0237
     20  CD        28.3830   55.8130   41.1430 C.3     2  PRO2        0.0940
     21  N         27.1770   60.3900   41.5290 N.am    3  PRO3       -0.2716
     22  CA        26.3950   61.5030   42.0650 C.3     3  PRO3        0.1536
     23  C         24.8920   61.3880   41.8010 C.2     3  PRO3        0.2598
     24  O         24.4480   61.4410   40.6590 O.2     3  PRO3       -0.2715
     25  CB        27.0150   62.7050   41.3670 C.3     3  PRO3        0.0310
     26  CG        28.4480   62.3320   41.3110 C.3     3  PRO3        0.0237
     27  CD        28.3780   60.9010   40.8430 C.3     3  PRO3        0.0939
     28  N         24.1190   61.2300   42.8700 N.am    4  ALA4       -0.1963
     29  CA        22.6710   61.1170   42.7670 C.3     4  ALA4        0.1745
     30  C         22.0220   62.4330   43.2010 C.2     4  ALA4        0.2806
     31  O         21.7630   63.3190   42.3760 O.2     4  ALA4       -0.2698
     32  CB        22.1730   59.9770   43.6270 C.3     4  ALA4        0.0334
     33  N         21.7690   62.5850   44.4940 N.am    5  NH25       -0.0863
@<TRIPOS>BOND
     1    19    18    1
     2    19    20    1
     3    18    15    1
     4    24    23    2
     5    27    26    1
     6    27    21    1
     7    15    16    1
     8    15    14    1
     9    20    14    1
    10    26    25    1
    11    25    22    1
    12    16    21   am
    13    16    17    2
    14    21    22    1
    15    14     5   am
    16    23    22    1
    17    23    28   am
    18    31    30    2
    19    29    28    1
    20    29    30    1
    21    29    32    1
    22     5    13    2
    23     5     2    1
    24    30    33   am
    25     2     4    1
    26     2     1    1
    27     6     1    1
    28     6     7    1
    29     1     3    1
    30     7     8   ar
    31     7    12   ar
    32     8     9   ar
    33    12    11   ar
    34     9    10   ar
    35    11    10   ar
