@<TRIPOS>MOLECULE
1n56_ATP_A_1.pdb
 30 32 0 0 0
SMALL
GASTEIGER

@<TRIPOS>ATOM
      1  PG        49.6940   11.5100   31.1690 P.3   1803  ATP1803     0.5373
      2  O1G       50.3970   11.5650   32.4660 O.3   1803  ATP1803    -0.1143
      3  O2G       49.8520   12.6530   30.3610 O.3   1803  ATP1803    -0.1143
      4  O3G       50.1510   10.3280   30.3450 O.2   1803  ATP1803    -0.2221
      5  PB        47.4160   10.1730   32.4310 P.3   1803  ATP1803     0.2277
      6  O1B       45.9860   10.2260   32.2970 O.3   1803  ATP1803    -0.4368
      7  O2B       47.9560    8.9000   32.2010 O.2   1803  ATP1803    -0.5168
      8  O3B       48.1630   11.1580   31.4580 O.3   1803  ATP1803    -0.2258
      9  PA        48.0650   12.0050   34.6840 P.3   1803  ATP1803     0.2189
     10  O1A       49.4930   11.8460   34.9470 O.3   1803  ATP1803    -0.4371
     11  O2A       47.5920   13.2850   34.0740 O.2   1803  ATP1803    -0.5170
     12  O3A       47.6650   10.6710   33.9190 O.3   1803  ATP1803    -0.2700
     13  O5'       47.2710   11.6680   35.9170 O.3   1803  ATP1803    -0.3112
     14  C5'       47.3440   10.4790   36.7540 C.3   1803  ATP1803     0.1813
     15  C4'       45.9900    9.8640   36.9140 C.3   1803  ATP1803     0.1795
     16  O4'       45.1400   10.8800   37.3750 O.3   1803  ATP1803    -0.3155
     17  C3'       45.1390    9.2220   35.8050 C.3   1803  ATP1803     0.1883
     18  O3'       45.4660    7.8730   35.5650 O.3   1803  ATP1803    -0.2202
     19  C2'       43.6300    9.5090   36.1760 C.3   1803  ATP1803     0.1151
     20  C1'       43.7290   10.6820   37.0540 C.3   1803  ATP1803     0.2873
     21  N9        43.1550   11.7570   36.2290 N.pl3 1803  ATP1803    -0.1460
     22  C8        43.5400   12.4950   35.1540 C.3   1803  ATP1803     0.3377
     23  N7        42.6560   13.3440   34.7250 N.2   1803  ATP1803    -0.2095
     24  C5        41.5830   13.1820   35.5420 C.2   1803  ATP1803     0.2526
     25  C6        40.2860   13.8250   35.5740 C.2   1803  ATP1803     0.4393
     26  N6        39.9050   14.7600   34.7030 N.pl3 1803  ATP1803     0.2180
     27  N1        39.3950   13.4380   36.5460 N.2   1803  ATP1803     0.0021
     28  C2        39.7680   12.4780   37.4390 C.3   1803  ATP1803     0.5254
     29  N3        40.9590   11.8040   37.4990 N.2   1803  ATP1803    -0.0055
     30  C4        41.8420   12.2130   36.5090 C.2   1803  ATP1803     0.3518
@<TRIPOS>BOND
     1     4     1    2
     2     3     1    1
     3     1     8    1
     4     1     2    1
     5     8     5    1
     6     7     5    2
     7     6     5    1
     8     5    12    1
     9    12     9    1
    10    11     9    2
    11     9    10    1
    12     9    13    1
    13    26    25    1
    14    23    22    1
    15    23    24    2
    16    22    21    1
    17    24    25    1
    18    24    30    1
    19    18    17    1
    20    25    27    2
    21    17    19    1
    22    17    15    1
    23    13    14    1
    24    19    20    1
    25    21    30    1
    26    21    20    1
    27    30    29    2
    28    27    28    1
    29    14    15    1
    30    15    16    1
    31    20    16    1
    32    28    29    1
