@<TRIPOS>MOLECULE
1n5d_NDP_A_1.pdb
 48 52 0 0 0
SMALL
GASTEIGER

@<TRIPOS>ATOM
      1  PA        99.4600   50.8010    6.8490 P.3   300  NDP300      0.2189
      2  O1A      100.3620   51.6320    6.0960 O.2   300  NDP300     -0.5170
      3  O2A       99.6720   49.3240    6.9840 O.3   300  NDP300     -0.4371
      4  O5B       99.3530   51.4720    8.3490 O.3   300  NDP300     -0.3112
      5  C5B       98.5070   50.8340    9.3260 C.3   300  NDP300      0.1813
      6  C4B       98.6560   51.7210   10.5520 C.3   300  NDP300      0.1820
      7  O4B       97.8410   51.1160   11.6030 O.3   300  NDP300     -0.3136
      8  C3B      100.0170   51.8450   11.1370 C.3   300  NDP300      0.2157
      9  O3B      100.2900   53.1820   11.6360 O.3   300  NDP300     -0.2175
     10  C2B      100.1440   50.7600   12.1200 C.3   300  NDP300      0.2314
     11  O2B      101.1180   50.8560   13.1550 O.3   300  NDP300     -0.2630
     12  C1B       98.7590   50.9600   12.6890 C.3   300  NDP300      0.3158
     13  N9A       98.3950   49.8430   13.6040 N.pl3 300  NDP300     -0.1439
     14  C8A       98.3420   48.4580   13.3280 C.3   300  NDP300      0.3377
     15  N7A       97.9910   47.7760   14.3930 N.2   300  NDP300     -0.2095
     16  C5A       97.8020   48.6920   15.3990 C.2   300  NDP300      0.2526
     17  C6A       97.4300   48.6030   16.7720 C.2   300  NDP300      0.4393
     18  N6A       97.1850   47.4090   17.3360 N.pl3 300  NDP300      0.2180
     19  N1A       97.3260   49.7440   17.5030 N.2   300  NDP300      0.0021
     20  C2A       97.5780   50.9430   16.9330 C.3   300  NDP300      0.5254
     21  N3A       97.9410   51.1320   15.6630 N.2   300  NDP300     -0.0055
     22  C4A       98.0370   49.9560   14.9360 C.2   300  NDP300      0.3518
     23  O3        97.9380   51.0130    6.4500 O.3   300  NDP300     -0.2703
     24  PN        97.1010   51.6870    5.2870 P.3   300  NDP300      0.2189
     25  O1N       97.4830   50.9650    4.0930 O.2   300  NDP300     -0.5170
     26  O2N       97.3810   53.1560    5.4150 O.3   300  NDP300     -0.4371
     27  O5D       95.5640   51.4760    5.7120 O.3   300  NDP300     -0.3112
     28  C5D       94.9470   52.1310    6.8770 C.3   300  NDP300      0.1813
     29  C4D       93.4400   51.7200    6.9010 C.3   300  NDP300      0.1799
     30  O4D       92.9530   51.7790    5.5620 O.3   300  NDP300     -0.3327
     31  C3D       93.2130   50.2700    7.3430 C.3   300  NDP300      0.2158
     32  O3D       92.0310   50.2320    8.1610 O.3   300  NDP300     -0.2175
     33  C2D       93.0870   49.5020    6.0600 C.3   300  NDP300      0.2309
     34  O2D       92.4160   48.2790    6.2760 O.3   300  NDP300     -0.2158
     35  C1D       92.2810   50.5590    5.2330 C.3   300  NDP300      0.2263
     36  N1N       92.3640   50.2620    3.7640 N.pl3 300  NDP300     -0.2787
     37  C2N       93.6290   50.3960    3.1190 C.3   300  NDP300      0.1244
     38  C3N       93.6510   50.0950    1.7030 C.2   300  NDP300      0.0544
     39  C7N       94.9060   50.2150    0.9310 C.2   300  NDP300      0.2818
     40  O7N       94.9660   50.0100   -0.3040 O.2   300  NDP300     -0.2670
     41  N7N       96.0680   50.5800    1.5390 N.am  300  NDP300     -0.0839
     42  C4N       92.4560   49.6990    1.0790 C.2   300  NDP300      0.0033
     43  C5N       91.2610   49.5780    1.7200 C.2   300  NDP300      0.0157
     44  C6N       91.2110   49.8590    3.0590 C.2   300  NDP300      0.0633
     45  P2B      102.6540   50.6650   12.9500 P.3   300  NDP300      0.5328
     46  O1X      102.7530   49.3040   12.3970 O.3   300  NDP300     -0.1145
     47  O2X      103.2990   50.8130   14.2690 O.3   300  NDP300     -0.1145
     48  O3X      103.2060   51.6880   11.9570 O.2   300  NDP300     -0.2224
@<TRIPOS>BOND
     1    40    39    2
     2    39    41   am
     3    39    38    1
     4    42    38    2
     5    42    43    1
     6    38    37    1
     7    43    44    2
     8    44    36    1
     9    37    36    1
    10    36    35    1
    11    25    24    2
    12    35    30    1
    13    35    33    1
    14    24    26    1
    15    24    27    1
    16    24    23    1
    17    30    29    1
    18    27    28    1
    19    33    34    1
    20    33    31    1
    21     2     1    2
    22    23     1    1
    23     1     3    1
    24     1     4    1
    25    28    29    1
    26    29    31    1
    27    31    32    1
    28     4     5    1
    29     5     6    1
    30     6     8    1
    31     6     7    1
    32     8     9    1
    33     8    10    1
    34     7    12    1
    35    48    45    2
    36    10    12    1
    37    10    11    1
    38    46    45    1
    39    12    13    1
    40    45    11    1
    41    45    47    1
    42    14    13    1
    43    14    15    1
    44    13    22    1
    45    15    16    2
    46    22    16    1
    47    22    21    2
    48    16    17    1
    49    21    20    1
    50    17    18    1
    51    17    19    2
    52    20    19    1
