@<TRIPOS>MOLECULE
1n5i_TMP_A_1.pdb
 21 22 0 0 0
SMALL
GASTEIGER

@<TRIPOS>ATOM
      1  P         26.2600   14.9800    8.1180 P.3   217  TMP217      0.5327
      2  O1P       27.0390   15.0070    9.5140 O.3   217  TMP217     -0.1145
      3  O2P       24.9510   16.0630    8.1510 O.3   217  TMP217     -0.1145
      4  O3P       27.2780   15.3960    6.8620 O.2   217  TMP217     -0.2224
      5  O5'       25.7160   13.5100    7.8960 O.3   217  TMP217     -0.2675
      6  C5'       25.0370   13.1540    6.7330 C.3   217  TMP217      0.1858
      7  C4'       23.6210   12.5810    7.0260 C.3   217  TMP217      0.1774
      8  O4'       23.5420   11.1720    7.3630 O.3   217  TMP217     -0.3339
      9  C3'       22.6710   13.0730    8.1700 C.3   217  TMP217      0.1857
     10  O3'       21.1930   13.1070    7.9640 O.3   217  TMP217     -0.2203
     11  C2'       23.3320   12.2930    9.3100 C.3   217  TMP217      0.0874
     12  C1'       23.3430   10.9000    8.7470 C.3   217  TMP217      0.2090
     13  N1        24.3920    9.9540    9.1470 N.am  217  TMP217     -0.1794
     14  C2        23.9550    8.6670    9.3860 C.1   217  TMP217      0.2844
     15  O2        22.6950    8.3580    9.2540 O.2   217  TMP217     -0.1918
     16  N3        24.8200    7.6940    9.7780 N.2   217  TMP217     -0.2455
     17  C4        26.1390    7.9860    9.9170 C.1   217  TMP217      0.2134
     18  O4        26.9630    7.0190   10.2880 O.2   217  TMP217     -0.2088
     19  C5        26.6170    9.2820    9.6810 C.2   217  TMP217      0.0891
     20  C5M       28.0870    9.5520    9.8480 C.3   217  TMP217      0.0462
     21  C6        25.7060   10.2710    9.2820 C.2   217  TMP217      0.0877
@<TRIPOS>BOND
     1     6     7    1
     2     6     5    1
     3     4     1    2
     4     7     8    1
     5     7     9    1
     6     8    12    1
     7     5     1    1
     8    10     9    1
     9     1     3    1
    10     1     2    1
    11     9    11    1
    12    12    13    1
    13    12    11    1
    14    13    21    1
    15    13    14   am
    16    15    14    2
    17    21    19    2
    18    14    16    2
    19    19    20    1
    20    19    17    1
    21    16    17    2
    22    17    18    2
