@<TRIPOS>MOLECULE
1n5i_ATP_A_1.pdb
 31 33 0 0 0
SMALL
GASTEIGER

@<TRIPOS>ATOM
      1  PG        47.9340    6.0870    6.5780 P.3   543  ATP543      0.5373
      2  O1G       47.7190    4.6370    6.2920 O.2   543  ATP543     -0.2221
      3  O2G       46.6900    6.8890    6.6660 O.3   543  ATP543     -0.1143
      4  O3G       48.7710    6.2560    7.7880 O.3   543  ATP543     -0.1143
      5  PB        48.4930    7.0070    3.8390 P.3   543  ATP543      0.2277
      6  O1B       49.5460    7.6050    3.0880 O.2   543  ATP543     -0.5168
      7  O2B       47.2870    6.4890    3.2150 O.3   543  ATP543     -0.4368
      8  O3B       48.7520    6.7940    5.3970 O.3   543  ATP543     -0.2258
      9  PA        47.5280    9.8010    3.4550 P.3   543  ATP543      0.2189
     10  O1A       46.1450   10.0700    3.1460 O.3   543  ATP543     -0.4371
     11  O2A       48.6170   10.6600    2.9800 O.2   543  ATP543     -0.5170
     12  O3A       47.8970    8.5080    4.2650 O.3   543  ATP543     -0.2700
     13  O5'       47.1450   10.4610    4.6840 O.3   543  ATP543     -0.3112
     14  C5'       47.3300   10.9040    5.8310 C.3   543  ATP543      0.1813
     15  C4'       47.5560   11.9500    6.8380 C.3   543  ATP543      0.1821
     16  O4'       46.3380   12.7410    6.8390 O.3   543  ATP543     -0.3135
     17  C3'       47.6140   10.9950    7.9590 C.3   543  ATP543      0.2184
     18  O3'       48.5700   11.2980    8.9520 O.3   543  ATP543     -0.2174
     19  C2'       46.1300   10.9230    8.4270 C.3   543  ATP543      0.2570
     20  O2'       46.0730   10.8750    9.8260 O.3   543  ATP543     -0.2130
     21  C1'       45.4260   12.1950    7.8460 C.3   543  ATP543      0.3186
     22  N9        44.1140   11.9950    7.1890 N.pl3 543  ATP543     -0.1439
     23  C8        43.7120   11.1720    6.1240 C.3   543  ATP543      0.3377
     24  N7        42.4510   11.2780    5.8160 N.2   543  ATP543     -0.2095
     25  C5        42.0030   12.2230    6.7320 C.2   543  ATP543      0.2526
     26  C6        40.7180   12.8340    6.9790 C.2   543  ATP543      0.4393
     27  N6        39.6440   12.5360    6.2680 N.pl3 543  ATP543      0.2180
     28  N1        40.6100   13.7670    7.9990 N.2   543  ATP543      0.0021
     29  C2        41.6750   14.1010    8.7450 C.3   543  ATP543      0.5254
     30  N3        42.9230   13.6080    8.6130 N.2   543  ATP543     -0.0055
     31  C4        43.0090   12.6520    7.5610 C.2   543  ATP543      0.3518
@<TRIPOS>BOND
     1    11     9    2
     2     6     5    2
     3    10     9    1
     4     7     5    1
     5     9    12    1
     6     9    13    1
     7     5    12    1
     8     5     8    1
     9    13    14    1
    10     8     1    1
    11    24    23    1
    12    24    25    2
    13    14    15    1
    14    23    22    1
    15    27    26    1
    16     2     1    2
    17     1     3    1
    18     1     4    1
    19    25    26    1
    20    25    31    1
    21    15    16    1
    22    15    17    1
    23    16    21    1
    24    26    28    2
    25    22    31    1
    26    22    21    1
    27    31    30    2
    28    21    19    1
    29    17    19    1
    30    17    18    1
    31    28    29    1
    32    19    20    1
    33    30    29    1
