@<TRIPOS>MOLECULE
1n5j_TYD_A_1.pdb
 25 26 0 0 0
SMALL
GASTEIGER

@<TRIPOS>ATOM
      1  PA        26.1480   14.9010    8.2790 P.3   218  TYD218      0.2231
      2  O1A       27.3670   14.8750    9.1810 O.3   218  TYD218     -0.4370
      3  O2A       24.9640   15.6270    8.6950 O.2   218  TYD218     -0.5169
      4  O3A       26.5710   15.4820    6.8380 O.3   218  TYD218     -0.2261
      5  PB        26.0800   16.7260    5.9140 P.3   218  TYD218      0.5373
      6  O1B       27.1160   17.7430    6.1540 O.3   218  TYD218     -0.1143
      7  O2B       24.7340   17.1800    6.4320 O.3   218  TYD218     -0.1143
      8  O3B       26.0690   16.1580    4.5710 O.2   218  TYD218     -0.2221
      9  O5'       25.7140   13.3770    7.9750 O.3   218  TYD218     -0.3111
     10  C5'       24.8030   13.0900    6.8940 C.3   218  TYD218      0.1812
     11  C4'       23.4480   12.6040    7.3660 C.3   218  TYD218      0.1773
     12  O4'       23.4260   11.1920    7.4640 O.3   218  TYD218     -0.3339
     13  C3'       22.9410   13.1160    8.7320 C.3   218  TYD218      0.1857
     14  O3'       21.5670   13.3660    8.4530 O.3   218  TYD218     -0.2203
     15  C2'       23.2080   11.9970    9.7060 C.3   218  TYD218      0.0874
     16  C1'       23.2400   10.7330    8.8220 C.3   218  TYD218      0.2090
     17  N1        24.2990    9.7350    9.2150 N.am  218  TYD218     -0.1794
     18  C2        23.8860    8.4150    9.5130 C.1   218  TYD218      0.2844
     19  O2        22.7050    8.0710    9.4540 O.2   218  TYD218     -0.1918
     20  N3        24.9000    7.5010    9.8850 N.2   218  TYD218     -0.2455
     21  C4        26.2670    7.8030    9.9760 C.1   218  TYD218      0.2134
     22  O4        27.0450    6.9180   10.3120 O.2   218  TYD218     -0.2088
     23  C5        26.6190    9.1870    9.6490 C.2   218  TYD218      0.0891
     24  C5M       28.0690    9.6550    9.7030 C.3   218  TYD218      0.0462
     25  C6        25.6620   10.0850    9.2900 C.2   218  TYD218      0.0877
@<TRIPOS>BOND
     1     8     5    2
     2     5     6    1
     3     5     7    1
     4     5     4    1
     5     4     1    1
     6    10    11    1
     7    10     9    1
     8    11    12    1
     9    11    13    1
    10    12    16    1
    11     9     1    1
    12     1     3    2
    13     1     2    1
    14    14    13    1
    15    13    15    1
    16    16    17    1
    17    16    15    1
    18    17    25    1
    19    17    18   am
    20    25    23    2
    21    19    18    2
    22    18    20    2
    23    23    24    1
    24    23    21    1
    25    20    21    2
    26    21    22    2
