@<TRIPOS>MOLECULE
1n5j_TTP_A_1.pdb
 29 30 0 0 0
SMALL
GASTEIGER

@<TRIPOS>ATOM
      1  PA        26.4030   14.6190    8.0750 P.3   219  TTP219      0.2189
      2  O1A       27.5780   14.3300    8.9390 O.3   219  TTP219     -0.4371
      3  O2A       25.3010   15.4040    8.6770 O.2   219  TTP219     -0.5170
      4  O3A       26.9100   15.3600    6.7500 O.3   219  TTP219     -0.2700
      5  PB        26.1290   16.2690    5.6640 P.3   219  TTP219      0.2277
      6  O1B       26.0850   15.4820    4.4390 O.2   219  TTP219     -0.5168
      7  O2B       24.8270   16.6600    6.2270 O.3   219  TTP219     -0.4368
      8  O3B       27.1200   17.5300    5.4560 O.3   219  TTP219     -0.2258
      9  PG        27.2820   19.1080    6.0120 P.3   219  TTP219      0.5373
     10  O1G       26.0620   19.8720    5.7150 O.3   219  TTP219     -0.1143
     11  O2G       27.6410   19.0560    7.4440 O.3   219  TTP219     -0.1143
     12  O3G       28.4910   19.6980    5.1820 O.2   219  TTP219     -0.2221
     13  O5'       25.7650   13.2350    7.5780 O.3   219  TTP219     -0.3112
     14  C5'       24.4810   13.3200    6.8650 C.3   219  TTP219      0.1812
     15  C4'       23.3490   12.4870    7.5380 C.3   219  TTP219      0.1773
     16  O4'       23.7250   11.1230    7.7030 O.3   219  TTP219     -0.3339
     17  C3'       22.9130   12.9750    8.9300 C.3   219  TTP219      0.1857
     18  O3'       21.4920   13.0850    9.0150 O.3   219  TTP219     -0.2203
     19  C2'       23.5270   11.9580    9.8970 C.3   219  TTP219      0.0874
     20  C1'       23.5410   10.7120    9.0170 C.3   219  TTP219      0.2090
     21  N1        24.6500    9.7250    9.3910 N.am  219  TTP219     -0.1794
     22  C2        24.1090    8.4010    9.6980 C.1   219  TTP219      0.2844
     23  O2        22.8870    8.1390    9.6480 O.2   219  TTP219     -0.1918
     24  N3        25.0140    7.4200   10.0540 N.2   219  TTP219     -0.2455
     25  C4        26.3380    7.6700   10.1170 C.1   219  TTP219      0.2134
     26  O4        27.1220    6.6400   10.4760 O.2   219  TTP219     -0.2088
     27  C5        26.8930    8.9950    9.8090 C.2   219  TTP219      0.0891
     28  C5M       28.3660    9.2620    9.8800 C.3   219  TTP219      0.0462
     29  C6        26.0000    9.9500    9.4620 C.2   219  TTP219      0.0877
@<TRIPOS>BOND
     1     6     5    2
     2    12     9    2
     3     8     5    1
     4     8     9    1
     5     5     7    1
     6     5     4    1
     7    10     9    1
     8     9    11    1
     9     4     1    1
    10    14    15    1
    11    14    13    1
    12    15    16    1
    13    15    17    1
    14    13     1    1
    15    16    20    1
    16     1     3    2
    17     1     2    1
    18    17    18    1
    19    17    19    1
    20    20    21    1
    21    20    19    1
    22    21    29    1
    23    21    22   am
    24    29    27    2
    25    23    22    2
    26    22    24    2
    27    27    28    1
    28    27    25    1
    29    24    25    2
    30    25    26    2
