@<TRIPOS>MOLECULE
1n5l_TMP_A_1.pdb
 21 22 0 0 0
SMALL
GASTEIGER

@<TRIPOS>ATOM
      1  P         32.1520   26.9120   90.3550 P.3   409  TMP409      0.5327
      2  O1P       30.7200   26.4260   90.9240 O.3   409  TMP409     -0.1145
      3  O2P       32.2440   28.6010   90.4230 O.2   409  TMP409     -0.2224
      4  O3P       33.3770   26.2820   91.3050 O.3   409  TMP409     -0.1145
      5  O5'       32.3300   26.4520   88.8730 O.3   409  TMP409     -0.2675
      6  C5'       31.4230   26.8380   87.7610 C.3   409  TMP409      0.1858
      7  C4'       30.8360   25.5660   87.1100 C.3   409  TMP409      0.1774
      8  O4'       31.6850   25.2010   85.9890 O.3   409  TMP409     -0.3339
      9  C3'       30.7170   24.3160   88.0240 C.3   409  TMP409      0.1857
     10  O3'       29.4040   23.8090   87.8610 O.3   409  TMP409     -0.2203
     11  C2'       31.7090   23.2870   87.4910 C.3   409  TMP409      0.0874
     12  C1'       32.2520   23.9160   86.2170 C.3   409  TMP409      0.2090
     13  N1        33.5670   23.7360   85.6470 N.am  409  TMP409     -0.1794
     14  C2        33.8090   22.8590   84.5800 C.1   409  TMP409      0.2844
     15  O2        32.9410   22.1670   84.0340 O.2   409  TMP409     -0.1918
     16  N3        35.1480   22.8380   84.1840 N.2   409  TMP409     -0.2455
     17  C4        36.1930   23.5960   84.7510 C.1   409  TMP409      0.2134
     18  O4        37.3360   23.4970   84.3260 O.2   409  TMP409     -0.2088
     19  C5        35.8360   24.4830   85.8550 C.2   409  TMP409      0.0891
     20  C5M       36.9000   25.3310   86.5160 C.3   409  TMP409      0.0462
     21  C6        34.5030   24.5020   86.2470 C.2   409  TMP409      0.0877
@<TRIPOS>BOND
     1    15    14    2
     2    16    14    2
     3    16    17    2
     4    18    17    2
     5    14    13   am
     6    17    19    1
     7    13    12    1
     8    13    21    1
     9    19    21    2
    10    19    20    1
    11     8    12    1
    12     8     7    1
    13    12    11    1
    14     7     6    1
    15     7     9    1
    16    11     9    1
    17     6     5    1
    18    10     9    1
    19     5     1    1
    20     1     3    2
    21     1     2    1
    22     1     4    1
