@<TRIPOS>MOLECULE
1n5l_TYD_B_1.pdb
 25 26 0 0 0
SMALL
GASTEIGER

@<TRIPOS>ATOM
      1  PA        38.1910   31.6600   57.0680 P.3   216  TYD216      0.2231
      2  O1A       38.7290   33.0760   57.1090 O.3   216  TYD216     -0.4370
      3  O2A       37.4220   31.2170   55.9200 O.2   216  TYD216     -0.5169
      4  O3A       39.4110   30.6300   57.2440 O.3   216  TYD216     -0.2261
      5  PB        40.2220   29.6210   56.2620 P.3   216  TYD216      0.5373
      6  O1B       41.4540   30.3700   55.9670 O.3   216  TYD216     -0.1143
      7  O2B       39.3900   29.4210   55.0150 O.2   216  TYD216     -0.2221
      8  O3B       40.4030   28.4300   57.0860 O.3   216  TYD216     -0.1143
      9  O5'       37.2940   31.4340   58.3900 O.3   216  TYD216     -0.3111
     10  C5'       36.9240   30.0980   58.7840 C.3   216  TYD216      0.1812
     11  C4'       35.4400   29.8280   58.6420 C.3   216  TYD216      0.1773
     12  O4'       34.7360   30.2690   59.7890 O.3   216  TYD216     -0.3339
     13  C3'       34.7070   30.4630   57.4390 C.3   216  TYD216      0.1857
     14  O3'       33.8760   29.3910   57.0070 O.3   216  TYD216     -0.2203
     15  C2'       33.9710   31.6540   57.9940 C.3   216  TYD216      0.0874
     16  C1'       33.7960   31.3240   59.4920 C.3   216  TYD216      0.2090
     17  N1        33.9860   32.5040   60.4070 N.am  216  TYD216     -0.1794
     18  C2        32.9370   32.8220   61.3020 C.1   216  TYD216      0.2844
     19  O2        31.8950   32.1630   61.3520 O.2   216  TYD216     -0.1918
     20  N3        33.1380   33.9410   62.1440 N.2   216  TYD216     -0.2455
     21  C4        34.2880   34.7440   62.1580 C.1   216  TYD216      0.2134
     22  O4        34.3410   35.6890   62.9350 O.2   216  TYD216     -0.2088
     23  C5        35.3320   34.3510   61.2080 C.2   216  TYD216      0.0891
     24  C5M       36.6390   35.1330   61.1180 C.3   216  TYD216      0.0462
     25  C6        35.1620   33.2800   60.3870 C.2   216  TYD216      0.0877
@<TRIPOS>BOND
     1     7     5    2
     2     3     1    2
     3     6     5    1
     4     5     8    1
     5     5     4    1
     6    14    13    1
     7     1     2    1
     8     1     4    1
     9     1     9    1
    10    13    15    1
    11    13    11    1
    12    15    16    1
    13     9    10    1
    14    11    10    1
    15    11    12    1
    16    16    12    1
    17    16    17    1
    18    25    17    1
    19    25    23    2
    20    17    18   am
    21    24    23    1
    22    23    21    1
    23    18    19    2
    24    18    20    2
    25    20    21    2
    26    21    22    2
