@<TRIPOS>MOLECULE
1n5m_FUC_A_1.pdb
 10 10 0 0 0
SMALL
GASTEIGER

@<TRIPOS>ATOM
      1  C1        27.9870   37.1980    1.8510 C.3   543  FUC543      0.1776
      2  C2        28.5160   38.6290    1.6930 C.3   543  FUC543      0.2141
      3  C3        27.5660   39.4510    0.7970 C.3   543  FUC543      0.2172
      4  C4        26.1310   39.3970    1.3410 C.3   543  FUC543      0.2116
      5  C5        25.6870   37.9460    1.4960 C.3   543  FUC543      0.1483
      6  C6        24.3300   37.8530    2.1680 C.3   543  FUC543      0.0349
      7  O2        29.8140   38.5880    1.1110 O.3   543  FUC543     -0.2176
      8  O3        28.0020   40.8030    0.7310 O.3   543  FUC543     -0.2175
      9  O4        26.0590   40.0500    2.6030 O.3   543  FUC543     -0.2177
     10  O5        26.6300   37.2140    2.3230 O.3   543  FUC543     -0.3508
@<TRIPOS>BOND
     1     8     3    1
     2     3     4    1
     3     3     2    1
     4     7     2    1
     5     4     5    1
     6     4     9    1
     7     5     6    1
     8     5    10    1
     9     2     1    1
    10     1    10    1
