@<TRIPOS>MOLECULE
1n5q_TNC_B_1.pdb
 29 32 0 0 0
SMALL
GASTEIGER

@<TRIPOS>ATOM
      1  C2        32.6590   26.4620   -6.0590 C.ar  1001  TNC1001     0.0062
      2  C1        33.5650   25.5490   -6.5780 C.ar  1001  TNC1001     0.0003
      3  C6        34.7620   25.9730   -7.1320 C.ar  1001  TNC1001     0.0033
      4  C5        35.1190   27.3010   -7.1610 C.ar  1001  TNC1001     0.0421
      5  C4        34.2170   28.2220   -6.6190 C.ar  1001  TNC1001     0.1987
      6  C3        33.0150   27.7970   -6.0690 C.ar  1001  TNC1001     0.0779
      7  O1        34.5380   29.5630   -6.6170 O.3   1001  TNC1001    -0.2865
      8  C8        30.5530   27.0100   -4.9900 C.ar  1001  TNC1001     0.0062
      9  C7        31.5160   26.0690   -5.3540 C.ar  1001  TNC1001     0.0004
     10  C10       32.1240   28.7130   -5.5340 C.ar  1001  TNC1001     0.2017
     11  C9        30.8900   28.3650   -5.0170 C.ar  1001  TNC1001     0.0780
     12  O2        32.5200   30.0190   -5.5740 O.3   1001  TNC1001    -0.2864
     13  C12       28.4810   27.5610   -3.9390 C.ar  1001  TNC1001     0.0227
     14  C11       29.5460   26.6680   -4.0670 C.ar  1001  TNC1001     0.0017
     15  C14       30.0160   29.2920   -4.4780 C.ar  1001  TNC1001     0.2018
     16  C13       28.7840   28.9270   -3.9480 C.ar  1001  TNC1001     0.0795
     17  O3        30.3460   30.6420   -4.5010 O.3   1001  TNC1001    -0.2864
     18  C15       27.3160   27.1820   -3.3090 C.ar  1001  TNC1001     0.0878
     19  C16       26.3130   28.0770   -2.9910 C.ar  1001  TNC1001     0.2164
     20  C17       26.5960   29.4160   -3.0450 C.ar  1001  TNC1001     0.1356
     21  C18       27.8330   29.8330   -3.5220 C.ar  1001  TNC1001     0.2063
     22  O4        28.0020   31.2120   -3.5190 O.3   1001  TNC1001    -0.2862
     23  C19       25.5830   30.3620   -2.5890 C.2   1001  TNC1001     0.2905
     24  O5        25.0960   27.5970   -2.5270 O.3   1001  TNC1001    -0.2850
     25  N2        24.3060   29.9010   -2.5970 N.am  1001  TNC1001    -0.0835
     26  O6        25.7480   31.5210   -2.2260 O.2   1001  TNC1001    -0.2664
     27  N1        26.8350   25.8450   -3.4150 N.pl3 1001  TNC1001    -0.3016
     28  C20       25.8500   25.6120   -2.3890 C.3   1001  TNC1001     0.1123
     29  C21       27.9760   24.9770   -3.2240 C.3   1001  TNC1001     0.1123
@<TRIPOS>BOND
     1     4     3   ar
     2     4     5   ar
     3     3     2   ar
     4     5     7    1
     5     5     6   ar
     6     2     1   ar
     7     6     1   ar
     8     6    10   ar
     9     1     9   ar
    10    12    10    1
    11    10    11   ar
    12     9     8   ar
    13    11     8   ar
    14    11    15   ar
    15     8    14   ar
    16    17    15    1
    17    15    16   ar
    18    14    13   ar
    19    16    13   ar
    20    16    21   ar
    21    13    18   ar
    22    21    22    1
    23    21    20   ar
    24    27    18    1
    25    27    29    1
    26    27    28    1
    27    18    19   ar
    28    20    19   ar
    29    20    23    1
    30    19    24    1
    31    25    23   am
    32    23    26    2
