@<TRIPOS>MOLECULE
1n5r_PRM_A_1.pdb
 31 34 0 0 0
SMALL
GASTEIGER

@<TRIPOS>ATOM
      1  C16       37.7270   25.7720    9.6930 C.ar  951  PRM951      0.0012
      2  C17       38.5070   25.9530    8.5220 C.ar  951  PRM951     -0.0008
      3  C18       37.9990   25.3130    7.2970 C.ar  951  PRM951      0.0144
      4  C19       36.7830   24.5360    7.4160 C.ar  951  PRM951      0.0193
      5  C20       36.0520   24.3800    8.6280 C.ar  951  PRM951      0.0891
      6  C21       36.5280   25.0080    9.7760 C.ar  951  PRM951      0.0180
      7  C22       38.7710   25.4390    6.0780 C.2   951  PRM951      0.0482
      8  N23       40.0890   26.0240    6.0380 N.pl3 951  PRM951     -0.3019
      9  C24       40.6130   26.4850    7.2640 C.3   951  PRM951      0.1192
     10  C25       39.8280   26.4930    8.5180 C.2   951  PRM951     -0.0000
     11  C26       41.9710   26.9530    7.3720 C.2   951  PRM951      0.0158
     12  C27       42.5880   27.3950    8.5610 C.2   951  PRM951      0.0868
     13  C28       41.8380   27.3910    9.7500 C.2   951  PRM951      0.0175
     14  C29       40.4810   26.9420    9.6960 C.2   951  PRM951     -0.0010
     15  C30       38.1720   24.9630    4.7860 C.ar  951  PRM951      0.0133
     16  C31       37.4700   25.9030    3.9520 C.ar  951  PRM951      0.0012
     17  C32       36.9300   25.4790    2.7010 C.ar  951  PRM951      0.0000
     18  C33       37.0820   24.1350    2.2830 C.ar  951  PRM951      0.0000
     19  C34       37.7740   23.2090    3.1140 C.ar  951  PRM951      0.0000
     20  C35       38.3170   23.6220    4.3630 C.ar  951  PRM951      0.0012
     21  N36       34.8710   23.6100    8.7040 N.pl3 951  PRM951     -0.1281
     22  N37       43.9150   27.8450    8.5850 N.pl3 951  PRM951     -0.1283
     23  C41       40.8940   26.1870    4.7410 C.3   951  PRM951      0.0892
     24  C42       41.8340   25.0630    4.3160 C.3   951  PRM951     -0.0008
     25  C43       42.1940   25.1180    2.8320 C.3   951  PRM951     -0.0714
     26  N44       43.5420   24.6440    2.2500 N.4   951  PRM951      0.3885
     27  C44       43.5980   23.1200    2.2720 C.3   951  PRM951     -0.0732
     28  C45       42.4540   22.1930    1.8450 C.3   951  PRM951     -0.0244
     29  C46       44.6990   25.1500    3.0760 C.3   951  PRM951     -0.0958
     30  C47       43.6900   25.1220    0.8100 C.3   951  PRM951     -0.0732
     31  C48       44.9670   25.0450   -0.0350 C.3   951  PRM951     -0.0244
@<TRIPOS>BOND
     1    31    30    1
     2    30    26    1
     3    28    27    1
     4    26    27    1
     5    26    25    1
     6    26    29    1
     7    18    17   ar
     8    18    19   ar
     9    17    16   ar
    10    25    24    1
    11    19    20   ar
    12    16    15   ar
    13    24    23    1
    14    20    15   ar
    15    23     8    1
    16    15     7    1
    17     8     7    1
    18     8     9    1
    19     7     3    2
    20     9    11    1
    21     9    10    1
    22     3     4   ar
    23     3     2   ar
    24    11    12    2
    25     4     5   ar
    26    10     2    2
    27    10    14    1
    28     2     1   ar
    29    12    22    1
    30    12    13    1
    31     5    21    1
    32     5     6   ar
    33     1     6   ar
    34    14    13    2
