@<TRIPOS>MOLECULE
1n5s_ADL_B_1.pdb
 21 23 0 0 0
SMALL
GASTEIGER

@<TRIPOS>ATOM
      1  C1        34.8450   25.9330   -6.4850 C.ar  1001  ADL1001     0.0030
      2  C2        33.7530   25.2570   -6.0180 C.ar  1001  ADL1001    -0.0036
      3  C3        32.6390   25.9510   -5.4470 C.ar  1001  ADL1001    -0.0116
      4  C4        32.7310   27.3680   -5.3660 C.ar  1001  ADL1001     0.0743
      5  C5        33.9000   28.0560   -5.8400 C.ar  1001  ADL1001     0.1984
      6  C6        34.9380   27.3510   -6.3910 C.ar  1001  ADL1001     0.0421
      7  C7        31.6940   28.1220   -4.8160 C.2   1001  ADL1001     0.2011
      8  C8        30.5640   27.4550   -4.3210 C.ar  1001  ADL1001     0.0740
      9  C9        30.4420   26.0410   -4.4230 C.ar  1001  ADL1001    -0.0116
     10  C10       31.4940   25.2910   -4.9680 C.3   1001  ADL1001     0.0530
     11  C11       29.5730   28.2140   -3.6190 C.ar  1001  ADL1001     0.1949
     12  C12       28.4740   27.5650   -3.1040 C.ar  1001  ADL1001     0.0281
     13  C13       28.3180   26.1510   -3.2450 C.ar  1001  ADL1001    -0.0009
     14  C14       29.2710   25.4120   -3.8900 C.ar  1001  ADL1001    -0.0039
     15  C15       27.3860   28.3690   -2.3850 C.3   1001  ADL1001     0.1435
     16  C16       26.9950   29.5670   -3.1910 C.2   1001  ADL1001     0.3693
     17  O1        33.9300   29.4710   -5.7240 O.3   1001  ADL1001    -0.2865
     18  O2        31.8200   29.3380   -4.7880 O.2   1001  ADL1001    -0.2864
     19  O3        29.7930   29.6370   -3.5440 O.3   1001  ADL1001    -0.2868
     20  O5        26.5580   29.4670   -4.3360 O.co2 1001  ADL1001    -0.2453
     21  O4        27.0560   30.8330   -2.7180 O.co2 1001  ADL1001    -0.2453
@<TRIPOS>BOND
     1     1     6   ar
     2     1     2   ar
     3     6     5   ar
     4     2     3   ar
     5     5    17    1
     6     5     4   ar
     7     3     4   ar
     8     3    10    1
     9     4     7    1
    10    10     9    1
    11     7    18    2
    12     7     8    1
    13     9     8   ar
    14     9    14   ar
    15    20    16   ar
    16     8    11   ar
    17    14    13   ar
    18    11    19    1
    19    11    12   ar
    20    13    12   ar
    21    16    21   ar
    22    16    15    1
    23    12    15    1
