@<TRIPOS>MOLECULE
1n5t_OAL_B_1.pdb
 22 24 0 0 0
SMALL
GASTEIGER

@<TRIPOS>ATOM
      1  C1        34.8970   26.1180   -6.3530 C.ar  1001  OAL1001     0.0034
      2  C2        33.7530   25.5100   -5.9330 C.ar  1001  OAL1001     0.0035
      3  C3        32.6950   26.2990   -5.3620 C.ar  1001  OAL1001     0.0451
      4  C4        32.8670   27.6990   -5.2330 C.ar  1001  OAL1001     0.0810
      5  C5        34.0780   28.2980   -5.6870 C.ar  1001  OAL1001     0.1988
      6  C6        35.0660   27.5210   -6.2100 C.ar  1001  OAL1001     0.0421
      7  C7        31.8520   28.5060   -4.7130 C.2   1001  OAL1001     0.2019
      8  C8        30.6590   27.9180   -4.2670 C.ar  1001  OAL1001     0.0807
      9  C9        30.4790   26.5020   -4.3500 C.ar  1001  OAL1001     0.0451
     10  C10       31.4920   25.7280   -4.9200 C.2   1001  OAL1001     0.1959
     11  C11       29.7240   28.7190   -3.5450 C.ar  1001  OAL1001     0.1953
     12  C12       28.6640   28.1150   -2.9060 C.ar  1001  OAL1001     0.0282
     13  C13       28.4860   26.6950   -2.9660 C.ar  1001  OAL1001    -0.0004
     14  C14       29.3710   25.9120   -3.6620 C.ar  1001  OAL1001     0.0032
     15  C15       27.6430   28.9420   -2.1160 C.3   1001  OAL1001     0.1435
     16  C16       27.2030   30.2020   -2.7890 C.2   1001  OAL1001     0.3693
     17  O1        34.1910   29.6970   -5.5810 O.3   1001  OAL1001    -0.2865
     18  O2        32.0530   29.7020   -4.6450 O.2   1001  OAL1001    -0.2864
     19  O3        29.9450   30.1420   -3.5720 O.3   1001  OAL1001    -0.2868
     20  O5        27.1270   30.6790   -3.9200 O.co2 1001  OAL1001    -0.2453
     21  O4        26.6560   31.3790   -2.3600 O.co2 1001  OAL1001    -0.2453
     22  O6        31.3450   24.5130   -5.0430 O.2   1001  OAL1001    -0.2866
@<TRIPOS>BOND
     1     1     6   ar
     2     1     2   ar
     3     6     5   ar
     4     2     3   ar
     5     5    17    1
     6     5     4   ar
     7     3     4   ar
     8     3    10    1
     9     4     7    1
    10    22    10    2
    11    10     9    1
    12     7    18    2
    13     7     8    1
    14     9     8   ar
    15     9    14   ar
    16     8    11   ar
    17    20    16   ar
    18    14    13   ar
    19    19    11    1
    20    11    12   ar
    21    13    12   ar
    22    12    15    1
    23    16    21   ar
    24    16    15    1
