@<TRIPOS>MOLECULE
1n5u_HEM_A_1.pdb
 43 50 0 0 0
SMALL
GASTEIGER

@<TRIPOS>ATOM
      1 FE         32.3470    8.5210   32.8310 Fe    605  HEM605      0.0000
      2  CHA       29.9890    6.2500   31.8880 C.2   605  HEM605      0.0000
      3  CHB       33.6850    8.4550   29.6660 C.2   605  HEM605      0.0000
      4  CHC       34.7630   10.7340   33.7770 C.2   605  HEM605      0.0000
      5  CHD       31.0900    8.5310   35.9500 C.2   605  HEM605      0.0000
      6  NA        31.9110    7.5660   31.1060 N.ar  605  HEM605      0.0000
      7  C1A       30.8720    6.6510   30.9020 C.ar  605  HEM605      0.0000
      8  C2A       30.8470    6.1630   29.5100 C.ar  605  HEM605      0.0000
      9  C3A       31.9930    6.8660   28.8700 C.ar  605  HEM605      0.0000
     10  C4A       32.5880    7.6750   29.8700 C.ar  605  HEM605      0.0000
     11  CMA       32.4650    6.7500   27.4260 C.3   605  HEM605      0.0000
     12  CAA       29.8820    5.1860   28.9300 C.3   605  HEM605      0.0000
     13  CBA       30.5270    3.8320   28.6950 C.3   605  HEM605      0.0000
     14  CGA       29.5180    2.7740   28.3760 C.2   605  HEM605      0.0000
     15  O1A       29.0210    2.0750   29.2710 O.co2 605  HEM605      0.0000
     16  O2A       29.2060    2.6200   27.1500 O.co2 605  HEM605      0.0000
     17  NB        33.9050    9.4120   31.9360 N.2   605  HEM605      0.0000
     18  C1B       34.3060    9.2540   30.6090 C.2   605  HEM605      0.0000
     19  C2B       35.5090   10.0690   30.3570 C.2   605  HEM605      0.0000
     20  C3B       35.8030   10.7000   31.4960 C.2   605  HEM605      0.0000
     21  C4B       34.8020   10.2850   32.4560 C.2   605  HEM605      0.0000
     22  CMB       36.2140   10.1150   29.0230 C.3   605  HEM605      0.0000
     23  CAB       36.9400   11.6620   31.7870 C.2   605  HEM605      0.0000
     24  CBB       38.0950   11.2780   32.2800 C.2   605  HEM605      0.0000
     25  NC        32.8190    9.4740   34.5440 N.ar  605  HEM605      0.0000
     26  C1C       33.8530   10.3720   34.7560 C.ar  605  HEM605      0.0000
     27  C2C       33.8490   10.8650   36.1140 C.ar  605  HEM605      0.0000
     28  C3C       32.8090   10.2350   36.7220 C.ar  605  HEM605      0.0000
     29  C4C       32.1850    9.3670   35.7270 C.ar  605  HEM605      0.0000
     30  CMC       34.8460   11.8720   36.6540 C.3   605  HEM605      0.0000
     31  CAC       32.2770   10.3030   38.1340 C.2   605  HEM605      0.0000
     32  CBC       32.7230   11.0230   39.1470 C.2   605  HEM605      0.0000
     33  ND        30.8220    7.5680   33.7620 N.2   605  HEM605      0.0000
     34  C1D       30.4490    7.6900   35.0640 C.2   605  HEM605      0.0000
     35  C2D       29.3340    6.8380   35.3720 C.2   605  HEM605      0.0000
     36  C3D       29.0220    6.1860   34.1990 C.2   605  HEM605      0.0000
     37  C4D       29.9600    6.6550   33.1950 C.2   605  HEM605      0.0000
     38  CMD       28.6580    6.6960   36.7260 C.3   605  HEM605      0.0000
     39  CAD       27.9180    5.1660   34.0050 C.3   605  HEM605      0.0000
     40  CBD       28.5170    3.7380   34.2290 C.3   605  HEM605      0.0000
     41  CGD       27.5580    2.5940   34.0620 C.2   605  HEM605      0.0000
     42  O1D       27.9620    1.4150   34.0240 O.co2 605  HEM605      0.0000
     43  O2D       26.3230    2.8570   33.9540 O.co2 605  HEM605      0.0000
@<TRIPOS>BOND
     1    16    14   ar
     2    11     9    1
     3    14    13    1
     4    14    15   ar
     5    13    12    1
     6     9     8   ar
     7     9    10   ar
     8    12     8    1
     9    22    19    1
    10     8     7   ar
    11     3    10    2
    12     3    18    1
    13    10     6   ar
    14    19    18    1
    15    19    20    2
    16    18    17    2
    17     7     6   ar
    18     7     2    2
    19     6     1    1
    20    20    23    1
    21    20    21    1
    22    23    24    2
    23     2    37    1
    24    17    21    1
    25    17     1    1
    26    21     4    2
    27     1    33    1
    28     1    25    1
    29    37    33    2
    30    37    36    1
    31    33    34    1
    32     4    26    1
    33    43    41   ar
    34    39    36    1
    35    39    40    1
    36    42    41   ar
    37    41    40    1
    38    36    35    2
    39    25    26   ar
    40    25    29   ar
    41    26    27   ar
    42    34    35    1
    43    34     5    2
    44    35    38    1
    45    29     5    1
    46    29    28   ar
    47    27    30    1
    48    27    28   ar
    49    28    31    1
    50    31    32    2
