@<TRIPOS>MOLECULE
1n5v_NOM_A_1.pdb
 22 25 0 0 0
SMALL
GASTEIGER

@<TRIPOS>ATOM
      1  C1        49.6880   37.0690   10.1100 C.ar  1001  NOM1001     0.0034
      2  C2        49.0170   38.0490   10.8210 C.ar  1001  NOM1001     0.0035
      3  C3        48.0610   37.6700   11.7570 C.ar  1001  NOM1001     0.0449
      4  C4        47.7520   36.3280   12.0200 C.ar  1001  NOM1001     0.0806
      5  C5        48.4530   35.3670   11.2930 C.ar  1001  NOM1001     0.1988
      6  C6        49.4220   35.7310   10.3620 C.ar  1001  NOM1001     0.0421
      7  C10       47.3470   38.6640   12.4970 C.2   1001  NOM1001     0.1951
      8  C9        46.3570   38.3020   13.4680 C.2   1001  NOM1001     0.0600
      9  C8        46.0410   36.9580   13.7450 C.2   1001  NOM1001     0.0461
     10  C7        46.7650   35.9580   12.9960 C.2   1001  NOM1001     0.1970
     11  O3        46.4770   34.7990   13.2400 O.2   1001  NOM1001    -0.2867
     12  O4        47.5440   39.8660   12.3370 O.2   1001  NOM1001    -0.2868
     13  O2        48.1710   34.0330   11.4860 O.3   1001  NOM1001    -0.2865
     14  C13       45.7180   39.3420   14.1430 C.3   1001  NOM1001     0.2214
     15  C14       44.4160   38.9260   14.8700 C.3   1001  NOM1001     0.1709
     16  O1        44.3740   37.6510   15.4220 O.3   1001  NOM1001    -0.3496
     17  C11       45.0770   36.6620   14.6890 C.3   1001  NOM1001     0.1406
     18  C12       44.3780   35.3300   14.7740 C.3   1001  NOM1001     0.0371
     19  C15       43.9940   40.0720   15.7630 C.3   1001  NOM1001     0.1431
     20  C16       44.7690   41.2710   15.1510 C.2   1001  NOM1001     0.3199
     21  O5        44.4930   42.4080   15.5620 O.2   1001  NOM1001    -0.2500
     22  O6        45.6300   41.0340   14.2920 O.3   1001  NOM1001    -0.4449
@<TRIPOS>BOND
     1     1     6   ar
     2     1     2   ar
     3     6     5   ar
     4     2     3   ar
     5     5    13    1
     6     5     4   ar
     7     3     4   ar
     8     3     7    1
     9     4    10    1
    10    12     7    2
    11     7     8    1
    12    10    11    2
    13    10     9    1
    14     8     9    2
    15     8    14    1
    16     9    17    1
    17    14    22    1
    18    14    15    1
    19    22    20    1
    20    17    18    1
    21    17    16    1
    22    15    16    1
    23    15    19    1
    24    20    21    2
    25    20    19    1
