@<TRIPOS>MOLECULE
1n5w_FAD_C_1.pdb
 18 20 0 0 0
SMALL
GASTEIGER

@<TRIPOS>ATOM
      1  N1        87.9200  150.5810  113.1480 N.2   3932  FAD3932    -0.2376
      2  C2        87.2360  149.5580  112.7020 C.1   3932  FAD3932     0.3754
      3  O2        86.8420  149.4420  111.4940 O.2   3932  FAD3932    -0.1738
      4  N3        86.9210  148.5220  113.5150 N.2   3932  FAD3932    -0.2289
      5  C4        87.1580  148.6020  114.8730 C.1   3932  FAD3932     0.2593
      6  O4        86.7010  147.6010  115.6110 O.2   3932  FAD3932    -0.2051
      7  C4X       87.9160  149.6700  115.3860 C.2   3932  FAD3932     0.3111
      8  N5        88.1080  149.7770  116.6890 N.2   3932  FAD3932    -0.3799
      9  C5X       88.8030  150.8860  117.0050 C.2   3932  FAD3932     0.1414
     10  C6        88.9840  150.9930  118.4680 C.3   3932  FAD3932     0.0658
     11  C7        89.8080  152.0820  118.9530 C.3   3932  FAD3932     0.0255
     12  C7M       89.9980  152.2700  120.5060 C.3   3932  FAD3932     0.0048
     13  C8        90.1520  153.2260  118.0420 C.2   3932  FAD3932    -0.0412
     14  C8M       90.9290  154.3920  118.6070 C.3   3932  FAD3932     0.0264
     15  C9        89.9410  153.0520  116.5930 C.2   3932  FAD3932     0.0268
     16  C9A       89.1450  151.8800  116.1770 C.2   3932  FAD3932     0.1686
     17  N10       88.9230  151.6940  114.8890 N.2   3932  FAD3932    -0.3344
     18  C10       88.2770  150.6190  114.4810 C.1   3932  FAD3932     0.1957
@<TRIPOS>BOND
     1     3     2    2
     2     2     1    2
     3     2     4    2
     4     1    18    2
     5     4     5    2
     6    18    17    2
     7    18     7    1
     8     5     7    1
     9     5     6    2
    10    17    16    2
    11     7     8    2
    12    16    15    1
    13    16     9    1
    14    15    13    2
    15     8     9    2
    16     9    10    1
    17    13    14    1
    18    13    11    1
    19    10    11    1
    20    11    12    1
