@<TRIPOS>MOLECULE
1n5w_MCN_B_1.pdb
 44 48 0 0 0
SMALL
GASTEIGER

@<TRIPOS>ATOM
      1  N1        85.2010  146.7830  155.0750 N.am  3920  MCN3920    -0.1778
      2  C2        84.0250  146.7020  155.8290 C.1   3920  MCN3920     0.2756
      3  N3        84.0090  145.6260  156.6920 N.2   3920  MCN3920    -0.3024
      4  C4        84.9830  144.6540  156.7950 C.2   3920  MCN3920     0.2346
      5  C5        86.1330  144.7560  155.9040 C.2   3920  MCN3920     0.0687
      6  C6        86.2540  145.8270  155.0810 C.2   3920  MCN3920     0.0836
      7  O2        83.1070  147.4460  155.5890 O.2   3920  MCN3920    -0.1925
      8  N4        84.9500  143.7400  157.7360 N.pl3 3920  MCN3920    -0.0921
      9  C1'       85.4340  148.1020  154.3310 C.3   3920  MCN3920     0.2400
     10  C2D       86.6580  148.8640  155.0000 C.3   3920  MCN3920     0.2319
     11  O2'       86.0820  149.7040  156.0470 O.3   3920  MCN3920    -0.2157
     12  C3'       87.2950  149.5720  153.7870 C.3   3920  MCN3920     0.2158
     13  C4D       87.0600  148.6360  152.6350 C.3   3920  MCN3920     0.1799
     14  O4D       85.9460  147.7350  153.0430 O.3   3920  MCN3920    -0.3320
     15  O3'       86.4920  150.8150  153.5910 O.3   3920  MCN3920    -0.2175
     16  C5'       88.3310  147.7650  152.3230 C.3   3920  MCN3920     0.1813
     17  O5'       88.9020  147.3940  153.6030 O.3   3920  MCN3920    -0.3112
     18  PA        90.0060  146.2390  153.7090 P.3   3920  MCN3920     0.2189
     19  O1A       90.6030  146.3900  155.0910 O.3   3920  MCN3920    -0.4371
     20  O2A       89.4160  144.9070  153.2700 O.2   3920  MCN3920    -0.5170
     21  O3A       91.0860  146.5790  152.5410 O.3   3920  MCN3920    -0.2703
     22  PB        92.0720  147.8410  152.3940 P.3   3920  MCN3920     0.2189
     23  O1B       93.3320  147.5690  153.1500 O.3   3920  MCN3920    -0.4371
     24  O2B       91.2690  149.0780  152.6510 O.2   3920  MCN3920    -0.5170
     25  O3B       92.3560  147.7630  150.7860 O.3   3920  MCN3920    -0.3109
     26  C10       93.4770  147.0890  150.2310 C.3   3920  MCN3920     0.1837
     27  C9'       92.8880  146.2030  149.1770 C.3   3920  MCN3920     0.1762
     28  C8'       94.0590  145.7970  148.2480 C.2   3920  MCN3920     0.0473
     29  S8'       95.5420  145.1450  149.0480 S.3   3920  MCN3920    -0.0526
     30  C7'       94.0340  145.7620  146.9050 C.2   3920  MCN3920     0.0449
     31  S7'       95.3890  145.1770  145.9070 S.3   3920  MCN3920    -0.0530
     32  C6'       92.8060  146.3500  146.1080 C.3   3920  MCN3920     0.1850
     33  C7        91.6790  146.3450  147.0750 C.3   3920  MCN3920     0.2573
     34  O9'       92.0080  146.9790  148.2920 O.3   3920  MCN3920    -0.3271
     35  N5'       93.2940  147.7420  145.7410 N.2   3920  MCN3920    -0.2411
     36  C4A       92.1230  148.5380  145.4850 C.2   3920  MCN3920     0.2467
     37  N8'       90.5450  147.0640  146.4860 N.2   3920  MCN3920    -0.1763
     38  C4B       90.8140  148.2100  145.7480 C.1   3920  MCN3920     0.1293
     39  N1'       89.6820  148.9990  145.4770 N.2   3920  MCN3920    -0.2682
     40  C2'       89.9710  150.1860  144.9340 C.1   3920  MCN3920     0.2608
     41  N2'       88.9290  151.0160  144.6640 N.pl3 3920  MCN3920    -0.0220
     42  N3'       91.2390  150.6310  144.7380 N.2   3920  MCN3920    -0.2474
     43  C4'       92.4170  149.8620  144.9170 C.1   3920  MCN3920     0.2441
     44  O4'       93.4970  150.3100  144.6330 O.2   3920  MCN3920    -0.2063
@<TRIPOS>BOND
     1    44    43    2
     2    41    40    1
     3    42    43    2
     4    42    40    2
     5    43    36    1
     6    40    39    2
     7    39    38    2
     8    36    35    2
     9    36    38    1
    10    35    32    1
    11    38    37    2
    12    31    30    1
    13    32    30    1
    14    32    33    1
    15    37    33    1
    16    30    28    2
    17    33    34    1
    18    28    29    1
    19    28    27    1
    20    34    27    1
    21    27    26    1
    22    26    25    1
    23    25    22    1
    24    16    13    1
    25    16    17    1
    26    22    21    1
    27    22    24    2
    28    22    23    1
    29    21    18    1
    30    13    14    1
    31    13    12    1
    32    14     9    1
    33    20    18    2
    34    15    12    1
    35    17    18    1
    36    18    19    1
    37    12    10    1
    38     9    10    1
    39     9     1    1
    40    10    11    1
    41     1     6    1
    42     1     2   am
    43     6     5    2
    44     7     2    2
    45     2     3    2
    46     5     4    1
    47     3     4    2
    48     4     8    1
