@<TRIPOS>MOLECULE
1n5x_TEI_A_1.pdb
 22 23 0 0 0
SMALL
GASTEIGER

@<TRIPOS>ATOM
      1  S1        95.1310   53.2300   37.2650 S.3   3006  TEI3006    -0.0650
      2  C2        96.5130   54.1640   37.6660 C.2   3006  TEI3006     0.1570
      3  N3        97.3280   54.2960   36.6080 N.2   3006  TEI3006    -0.4029
      4  C4        96.8960   53.6620   35.4320 C.2   3006  TEI3006     0.1087
      5  C5        95.6840   53.0200   35.6330 C.3   3006  TEI3006     0.2047
      6  C6        96.7180   54.7310   39.0410 C.ar  3006  TEI3006     0.0364
      7  C7        97.5480   55.8750   39.1820 C.ar  3006  TEI3006     0.0164
      8  C8        97.7550   56.4230   40.4630 C.ar  3006  TEI3006     0.1024
      9  C9        97.1330   55.8360   41.6260 C.ar  3006  TEI3006     0.1481
     10  C10       96.2080   54.5770   41.5250 C.ar  3006  TEI3006     0.0377
     11  C11       95.9890   54.0250   40.3080 C.ar  3006  TEI3006     0.0062
     12  C12       98.6370   57.6530   40.6750 C.1   3006  TEI3006     0.1035
     13  N13       99.3000   58.5780   40.8690 N.1   3006  TEI3006    -0.1907
     14  O14       97.4030   56.4620   42.8840 O.3   3006  TEI3006    -0.4748
     15  C15       96.7730   55.8680   44.0470 C.3   3006  TEI3006     0.2053
     16  C16       97.0280   56.7240   45.3450 C.3   3006  TEI3006     0.0438
     17  C17       96.6120   58.1770   45.1640 C.3   3006  TEI3006     0.0038
     18  C18       96.2640   56.1480   46.5160 C.3   3006  TEI3006     0.0038
     19  C19       97.7260   53.7410   34.1910 C.3   3006  TEI3006     0.0630
     20  C20       94.8710   52.2080   34.6070 C.2   3006  TEI3006     0.3811
     21  O21       95.2600   52.0480   33.4450 O.co2 3006  TEI3006    -0.2442
     22  O22       93.8190   51.7400   35.0430 O.co2 3006  TEI3006    -0.2442
@<TRIPOS>BOND
     1    21    20   ar
     2    19     4    1
     3    20    22   ar
     4    20     5    1
     5     4     5    1
     6     4     3    2
     7     5     1    1
     8     3     2    2
     9     1     2    1
    10     2     6    1
    11     6     7   ar
    12     6    11   ar
    13     7     8   ar
    14    11    10   ar
    15     8    12    1
    16     8     9   ar
    17    12    13    3
    18    10     9   ar
    19     9    14    1
    20    14    15    1
    21    15    16    1
    22    17    16    1
    23    16    18    1
