@<TRIPOS>MOLECULE
1n60_MCN_B_1.pdb
 44 48 0 0 0
SMALL
GASTEIGER

@<TRIPOS>ATOM
      1  N1        84.5660  145.2570  153.7720 N.am  4920  MCN4920    -0.1778
      2  C2        83.4370  145.1440  154.5310 C.1   4920  MCN4920     0.2756
      3  N3        83.3120  144.1110  155.3840 N.2   4920  MCN4920    -0.3024
      4  C4        84.3240  143.2010  155.4710 C.2   4920  MCN4920     0.2346
      5  C5        85.4320  143.2790  154.6790 C.2   4920  MCN4920     0.0687
      6  C6        85.5470  144.3090  153.8150 C.2   4920  MCN4920     0.0836
      7  O2        82.4310  145.8990  154.3780 O.2   4920  MCN4920    -0.1925
      8  N4        84.2440  142.2430  156.4190 N.pl3 4920  MCN4920    -0.0921
      9  C1'       84.8240  146.4710  152.9660 C.3   4920  MCN4920     0.2400
     10  C2D       85.8750  147.2880  153.6950 C.3   4920  MCN4920     0.2319
     11  O2'       85.3800  148.1140  154.7040 O.3   4920  MCN4920    -0.2157
     12  C3'       86.4770  148.0290  152.5210 C.3   4920  MCN4920     0.2158
     13  C4D       86.3110  147.0520  151.3560 C.3   4920  MCN4920     0.1799
     14  O4D       85.2530  146.1470  151.7410 O.3   4920  MCN4920    -0.3320
     15  O3'       85.7230  149.2360  152.3000 O.3   4920  MCN4920    -0.2175
     16  C5'       87.5320  146.1950  151.0910 C.3   4920  MCN4920     0.1813
     17  O5'       88.1660  145.8300  152.3410 O.3   4920  MCN4920    -0.3112
     18  PA        89.2650  144.6840  152.4520 P.3   4920  MCN4920     0.2189
     19  O1A       89.8360  144.8810  153.8170 O.3   4920  MCN4920    -0.4371
     20  O2A       88.6820  143.3900  152.0540 O.2   4920  MCN4920    -0.5170
     21  O3A       90.3400  145.0130  151.3430 O.3   4920  MCN4920    -0.2703
     22  PB        91.2910  146.2860  151.1750 P.3   4920  MCN4920     0.2189
     23  O1B       92.5720  146.0640  151.8870 O.3   4920  MCN4920    -0.4371
     24  O2B       90.4960  147.5380  151.4880 O.2   4920  MCN4920    -0.5170
     25  O3B       91.5110  146.2970  149.6290 O.3   4920  MCN4920    -0.3109
     26  C10       92.5660  145.5920  149.0040 C.3   4920  MCN4920     0.1837
     27  C9'       92.0370  144.7210  147.8980 C.3   4920  MCN4920     0.1762
     28  C8'       93.1040  144.2040  147.0520 C.2   4920  MCN4920     0.0473
     29  S8'       94.5900  143.6220  147.8220 S.3   4920  MCN4920    -0.0526
     30  C7'       93.0570  144.2790  145.6750 C.2   4920  MCN4920     0.0449
     31  S7'       94.4150  143.7710  144.7020 S.3   4920  MCN4920    -0.0530
     32  C6'       91.9140  144.9120  144.9900 C.3   4920  MCN4920     0.1850
     33  C7        90.7240  144.9320  145.9330 C.3   4920  MCN4920     0.2573
     34  O9'       91.1000  145.5330  147.1660 O.3   4920  MCN4920    -0.3271
     35  N5'       92.2920  146.2530  144.6010 N.2   4920  MCN4920    -0.2411
     36  C4A       91.2600  147.1100  144.3270 C.2   4920  MCN4920     0.2467
     37  N8'       89.6480  145.6500  145.3770 N.2   4920  MCN4920    -0.1763
     38  C4B       89.9090  146.8170  144.6990 C.1   4920  MCN4920     0.1293
     39  N1'       88.8650  147.5870  144.4050 N.2   4920  MCN4920    -0.2682
     40  C2'       89.1120  148.7680  143.8250 C.1   4920  MCN4920     0.2608
     41  N2'       88.0760  149.5910  143.5340 N.pl3 4920  MCN4920    -0.0220
     42  N3'       90.3920  149.1410  143.5620 N.2   4920  MCN4920    -0.2474
     43  C4'       91.4920  148.3810  143.7570 C.1   4920  MCN4920     0.2441
     44  O4'       92.6470  148.7840  143.4660 O.2   4920  MCN4920    -0.2063
@<TRIPOS>BOND
     1    44    43    2
     2    41    40    1
     3    42    43    2
     4    42    40    2
     5    43    36    1
     6    40    39    2
     7    36    35    2
     8    36    38    1
     9    39    38    2
    10    35    32    1
    11    38    37    2
    12    31    30    1
    13    32    30    1
    14    32    33    1
    15    37    33    1
    16    30    28    2
    17    33    34    1
    18    28    29    1
    19    28    27    1
    20    34    27    1
    21    27    26    1
    22    26    25    1
    23    25    22    1
    24    16    13    1
    25    16    17    1
    26    22    21    1
    27    22    24    2
    28    22    23    1
    29    21    18    1
    30    13    14    1
    31    13    12    1
    32    14     9    1
    33    20    18    2
    34    15    12    1
    35    17    18    1
    36    18    19    1
    37    12    10    1
    38     9    10    1
    39     9     1    1
    40    10    11    1
    41     1     6    1
    42     1     2   am
    43     6     5    2
    44     7     2    2
    45     2     3    2
    46     5     4    1
    47     3     4    2
    48     4     8    1
