@<TRIPOS>MOLECULE
1n61_MCN_B_1.pdb
 44 48 0 0 0
SMALL
GASTEIGER

@<TRIPOS>ATOM
      1  N1        84.9820  146.0400  155.5690 N.am  3920  MCN3920    -0.1778
      2  C2        83.8240  145.9250  156.3520 C.1   3920  MCN3920     0.2756
      3  N3        83.7350  144.9100  157.2160 N.2   3920  MCN3920    -0.3024
      4  C4        84.7420  143.9800  157.2950 C.2   3920  MCN3920     0.2346
      5  C5        85.8520  144.0340  156.4690 C.2   3920  MCN3920     0.0687
      6  C6        85.9360  145.0860  155.6140 C.2   3920  MCN3920     0.0836
      7  O2        82.8700  146.6710  156.1460 O.2   3920  MCN3920    -0.1925
      8  N4        84.6470  143.0260  158.2590 N.pl3 3920  MCN3920    -0.0921
      9  C1'       85.2390  147.2730  154.7770 C.3   3920  MCN3920     0.2400
     10  C2D       86.3360  148.1050  155.4890 C.3   3920  MCN3920     0.2319
     11  O2'       85.8160  148.9040  156.5160 O.3   3920  MCN3920    -0.2157
     12  C3'       86.9460  148.8250  154.3090 C.3   3920  MCN3920     0.2158
     13  C4D       86.7270  147.8500  153.1120 C.3   3920  MCN3920     0.1799
     14  O4D       85.6850  146.9470  153.5320 O.3   3920  MCN3920    -0.3320
     15  O3'       86.1720  150.0220  154.0820 O.3   3920  MCN3920    -0.2175
     16  C5'       87.9590  147.0430  152.8630 C.3   3920  MCN3920     0.1813
     17  O5'       88.6550  146.6090  154.1370 O.3   3920  MCN3920    -0.3112
     18  PA        89.7270  145.4590  154.2260 P.3   3920  MCN3920     0.2189
     19  O1A       90.2280  145.6560  155.6180 O.3   3920  MCN3920    -0.4371
     20  O2A       89.1210  144.1630  153.8160 O.2   3920  MCN3920    -0.5170
     21  O3A       90.8340  145.8070  153.0810 O.3   3920  MCN3920    -0.2703
     22  PB        91.7780  147.0720  152.9320 P.3   3920  MCN3920     0.2189
     23  O1B       93.0560  146.8160  153.6620 O.3   3920  MCN3920    -0.4371
     24  O2B       90.9700  148.3160  153.1860 O.2   3920  MCN3920    -0.5170
     25  O3B       92.0090  147.0250  151.3510 O.3   3920  MCN3920    -0.3109
     26  C10       93.1790  146.3560  150.7760 C.3   3920  MCN3920     0.1833
     27  C9'       92.6520  145.4050  149.5690 C.3   3920  MCN3920     0.1728
     28  C8'       93.8210  144.9990  148.8180 C.2   3920  MCN3920     0.0332
     29  S8'       95.1970  144.3710  149.6160 S.2   3920  MCN3920    -0.0565
     30  C7'       93.8070  145.0640  147.4310 C.3   3920  MCN3920     0.1117
     31  S7'       95.1410  144.4640  146.4760 S.3   3920  MCN3920    -0.0758
     32  C6'       92.6310  145.6360  146.7110 C.3   3920  MCN3920     0.1712
     33  C7        91.3770  145.6370  147.5790 C.3   3920  MCN3920     0.2537
     34  O9'       91.7040  146.2080  148.8550 O.3   3920  MCN3920    -0.3276
     35  N5'       92.9490  146.9870  146.2760 N.2   3920  MCN3920    -0.2449
     36  C4A       91.8250  147.8040  146.0230 C.2   3920  MCN3920     0.2464
     37  N8'       90.2540  146.3230  147.0470 N.2   3920  MCN3920    -0.1767
     38  C4B       90.5350  147.4770  146.3730 C.1   3920  MCN3920     0.1292
     39  N1'       89.4620  148.2830  146.0430 N.2   3920  MCN3920    -0.2682
     40  C2'       89.6510  149.4280  145.4820 C.1   3920  MCN3920     0.2608
     41  N2'       88.6610  150.2790  145.2030 N.pl3 3920  MCN3920    -0.0220
     42  N3'       90.9250  149.8790  145.2690 N.2   3920  MCN3920    -0.2474
     43  C4'       92.0700  149.1130  145.4460 C.1   3920  MCN3920     0.2441
     44  O4'       93.1930  149.5420  145.1940 O.2   3920  MCN3920    -0.2063
@<TRIPOS>BOND
     1    44    43    2
     2    41    40    1
     3    42    43    2
     4    42    40    2
     5    43    36    1
     6    40    39    2
     7    36    35    2
     8    36    38    1
     9    39    38    2
    10    35    32    1
    11    38    37    2
    12    31    30    1
    13    32    30    1
    14    32    33    1
    15    37    33    1
    16    30    28    1
    17    33    34    1
    18    28    27    1
    19    28    29    2
    20    34    27    1
    21    27    26    1
    22    26    25    1
    23    25    22    1
    24    16    13    1
    25    16    17    1
    26    22    21    1
    27    22    24    2
    28    22    23    1
    29    21    18    1
    30    13    14    1
    31    13    12    1
    32    14     9    1
    33    20    18    2
    34    15    12    1
    35    17    18    1
    36    18    19    1
    37    12    10    1
    38     9    10    1
    39     9     1    1
    40    10    11    1
    41     1     6    1
    42     1     2   am
    43     6     5    2
    44     7     2    2
    45     2     3    2
    46     5     4    1
    47     3     4    2
    48     4     8    1
