@<TRIPOS>MOLECULE
1n62_MCN_B_1.pdb
 44 48 0 0 0
SMALL
GASTEIGER

@<TRIPOS>ATOM
      1  N1        84.0960  144.5100  151.5490 N.am  3920  MCN3920    -0.1778
      2  C2        82.9670  144.3860  152.2730 C.1   3920  MCN3920     0.2756
      3  N3        82.8860  143.3780  153.1450 N.2   3920  MCN3920    -0.3024
      4  C4        83.8450  142.4670  153.2180 C.2   3920  MCN3920     0.2346
      5  C5        84.9770  142.5300  152.3750 C.2   3920  MCN3920     0.0687
      6  C6        85.0920  143.5610  151.5990 C.2   3920  MCN3920     0.0836
      7  O2        82.0200  145.1410  152.1040 O.2   3920  MCN3920    -0.1925
      8  N4        83.8600  141.5120  154.1380 N.pl3 3920  MCN3920    -0.0921
      9  C1'       84.3290  145.7430  150.7810 C.3   3920  MCN3920     0.2400
     10  C2D       85.4480  146.5500  151.4240 C.3   3920  MCN3920     0.2319
     11  O2'       84.9220  147.3540  152.4430 O.3   3920  MCN3920    -0.2157
     12  C3'       86.0390  147.2870  150.2900 C.3   3920  MCN3920     0.2158
     13  C4D       85.8670  146.2740  149.1580 C.3   3920  MCN3920     0.1799
     14  O4D       84.7810  145.3950  149.5410 O.3   3920  MCN3920    -0.3320
     15  O3'       85.2870  148.4810  150.0740 O.3   3920  MCN3920    -0.2175
     16  C5'       87.0670  145.4540  148.8700 C.3   3920  MCN3920     0.1813
     17  O5'       87.6980  145.0900  150.1010 O.3   3920  MCN3920    -0.3112
     18  PA        88.8210  143.9570  150.2120 P.3   3920  MCN3920     0.2189
     19  O1A       89.3720  144.1350  151.5570 O.3   3920  MCN3920    -0.4371
     20  O2A       88.2640  142.6750  149.8060 O.2   3920  MCN3920    -0.5170
     21  O3A       89.8860  144.3290  149.1080 O.3   3920  MCN3920    -0.2703
     22  PB        90.8210  145.5890  148.9460 P.3   3920  MCN3920     0.2189
     23  O1B       92.0700  145.3390  149.6630 O.3   3920  MCN3920    -0.4371
     24  O2B       90.0280  146.7990  149.2520 O.2   3920  MCN3920    -0.5170
     25  O3B       91.0320  145.5950  147.4320 O.3   3920  MCN3920    -0.3109
     26  C10       92.1160  144.8930  146.8070 C.3   3920  MCN3920     0.1837
     27  C9'       91.5710  143.9950  145.7340 C.3   3920  MCN3920     0.1762
     28  C8'       92.6440  143.4750  144.8840 C.2   3920  MCN3920     0.0473
     29  S8'       94.1420  142.9630  145.6840 S.3   3920  MCN3920    -0.0526
     30  C7'       92.5620  143.4970  143.5700 C.2   3920  MCN3920     0.0449
     31  S7'       94.0070  143.0180  142.6120 S.3   3920  MCN3920    -0.0530
     32  C6'       91.6000  144.1830  142.9140 C.3   3920  MCN3920     0.1850
     33  C7        90.2980  144.1450  143.7540 C.3   3920  MCN3920     0.2573
     34  O9'       90.6650  144.7690  144.9620 O.3   3920  MCN3920    -0.3271
     35  N5'       91.8390  145.4300  142.4210 N.2   3920  MCN3920    -0.2411
     36  C4A       90.8060  146.3180  142.2090 C.2   3920  MCN3920     0.2467
     37  N8'       89.2180  144.8790  143.2080 N.2   3920  MCN3920    -0.1763
     38  C4B       89.5260  146.0110  142.5540 C.1   3920  MCN3920     0.1293
     39  N1'       88.4550  146.7900  142.2320 N.2   3920  MCN3920    -0.2682
     40  C2'       88.7020  147.9830  141.6950 C.1   3920  MCN3920     0.2608
     41  N2'       87.7030  148.8380  141.4040 N.pl3 3920  MCN3920    -0.0220
     42  N3'       89.9600  148.3650  141.4590 N.2   3920  MCN3920    -0.2474
     43  C4'       91.0710  147.5740  141.6450 C.1   3920  MCN3920     0.2441
     44  O4'       92.1940  147.9880  141.3890 O.2   3920  MCN3920    -0.2063
@<TRIPOS>BOND
     1    44    43    2
     2    41    40    1
     3    42    43    2
     4    42    40    2
     5    43    36    1
     6    40    39    2
     7    36    35    2
     8    36    38    1
     9    39    38    2
    10    35    32    1
    11    38    37    2
    12    31    30    1
    13    32    30    1
    14    32    33    1
    15    37    33    1
    16    30    28    2
    17    33    34    1
    18    28    29    1
    19    28    27    1
    20    34    27    1
    21    27    26    1
    22    26    25    1
    23    25    22    1
    24    16    13    1
    25    16    17    1
    26    22    21    1
    27    22    24    2
    28    22    23    1
    29    21    18    1
    30    13    14    1
    31    13    12    1
    32    14     9    1
    33    20    18    2
    34    15    12    1
    35    17    18    1
    36    18    19    1
    37    12    10    1
    38     9    10    1
    39     9     1    1
    40    10    11    1
    41     1     6    1
    42     1     2   am
    43     6     5    2
    44     7     2    2
    45     2     3    2
    46     5     4    1
    47     3     4    2
    48     4     8    1
