@<TRIPOS>MOLECULE
1n62_CUB_B_1.pdb
 11 11 0 0 0
SMALL
GASTEIGER

@<TRIPOS>ATOM
      1  C3Z      100.7490  141.7230  145.6700 C.2   3921  CUB3921     0.0000
      2  C2Z       99.6860  141.3010  146.4100 C.2   3921  CUB3921     0.0000
      3  C1Z       99.0100  140.1390  146.0330 C.3   3921  CUB3921     0.0000
      4  NZ        98.5950  140.2280  144.6470 N.3   3921  CUB3921     0.0000
      5 CU         98.8160  138.8310  143.5050 Cu    3921  CUB3921     0.0000
      6 MO         95.8220  142.9020  144.0150 Mo    3921  CUB3921     0.0000
      7  S         97.0950  141.3490  142.7830 S.3   3921  CUB3921     0.0000
      8  CZ        97.6150  141.0710  144.3900 C.3   3921  CUB3921     0.0000
      9  OM2       97.0060  141.8390  145.2040 O.3   3921  CUB3921     0.0000
     10  C4Z      101.7360  142.8280  146.2880 C.3   3921  CUB3921     0.0000
     11  OM1       96.4550  144.4360  143.9800 O.3   3921  CUB3921     0.0000
@<TRIPOS>BOND
     1     7     6    1
     2     7     8    1
     3     5     4    1
     4    11     6    1
     5     6     9    1
     6     8     4    1
     7     8     9    1
     8     4     3    1
     9     1    10    1
    10     1     2    2
    11     3     2    1
