@<TRIPOS>MOLECULE
1n63_MCN_B_1.pdb
 44 48 0 0 0
SMALL
GASTEIGER

@<TRIPOS>ATOM
      1  N1        84.9690  145.8840  154.8850 N.am  3920  MCN3920    -0.1778
      2  C2        83.8430  145.7530  155.6550 C.1   3920  MCN3920     0.2756
      3  N3        83.7370  144.7500  156.5160 N.2   3920  MCN3920    -0.3024
      4  C4        84.7580  143.8370  156.5990 C.2   3920  MCN3920     0.2346
      5  C5        85.8590  143.9370  155.6970 C.2   3920  MCN3920     0.0687
      6  C6        85.9520  144.9310  154.9210 C.2   3920  MCN3920     0.0836
      7  O2        82.8700  146.5140  155.4700 O.2   3920  MCN3920    -0.1925
      8  N4        84.6660  142.9150  157.5590 N.pl3 3920  MCN3920    -0.0921
      9  C1'       85.1960  147.1770  154.1460 C.3   3920  MCN3920     0.2400
     10  C2D       86.3620  147.9290  154.8030 C.3   3920  MCN3920     0.2319
     11  O2'       85.7910  148.7310  155.8350 O.3   3920  MCN3920    -0.2157
     12  C3'       86.9460  148.6400  153.5690 C.3   3920  MCN3920     0.2158
     13  C4D       86.7930  147.6660  152.4480 C.3   3920  MCN3920     0.1799
     14  O4D       85.6860  146.7860  152.8910 O.3   3920  MCN3920    -0.3320
     15  O3'       86.1350  149.8530  153.4080 O.3   3920  MCN3920    -0.2175
     16  C5'       88.0120  146.8260  152.1700 C.3   3920  MCN3920     0.1813
     17  O5'       88.6260  146.4590  153.4470 O.3   3920  MCN3920    -0.3112
     18  PA        89.7250  145.3210  153.5430 P.3   3920  MCN3920     0.2189
     19  O1A       90.2480  145.4860  154.9300 O.3   3920  MCN3920    -0.4371
     20  O2A       89.1280  144.0470  153.1490 O.2   3920  MCN3920    -0.5170
     21  O3A       90.8100  145.6760  152.4000 O.3   3920  MCN3920    -0.2703
     22  PB        91.7700  146.9270  152.2460 P.3   3920  MCN3920     0.2189
     23  O1B       93.0610  146.6660  152.9860 O.3   3920  MCN3920    -0.4371
     24  O2B       90.9900  148.1330  152.4890 O.2   3920  MCN3920    -0.5170
     25  O3B       91.9900  146.8820  150.7000 O.3   3920  MCN3920    -0.3109
     26  C10       93.1570  146.2170  150.0700 C.3   3920  MCN3920     0.1833
     27  C9'       92.6100  145.2680  148.9770 C.3   3920  MCN3920     0.1728
     28  C8'       93.7680  144.7980  148.1880 C.2   3920  MCN3920     0.0332
     29  S8'       95.1650  144.2390  148.9280 S.2   3920  MCN3920    -0.0565
     30  C7'       93.7420  144.8930  146.7810 C.3   3920  MCN3920     0.1117
     31  S7'       95.0830  144.3260  145.7870 S.3   3920  MCN3920    -0.0758
     32  C6'       92.5210  145.4760  146.0260 C.3   3920  MCN3920     0.1712
     33  C7        91.3380  145.4830  146.9030 C.3   3920  MCN3920     0.2537
     34  O9'       91.6680  146.0830  148.1800 O.3   3920  MCN3920    -0.3276
     35  N5'       92.9000  146.8480  145.5890 N.2   3920  MCN3920    -0.2449
     36  C4A       91.8160  147.6980  145.3280 C.2   3920  MCN3920     0.2464
     37  N8'       90.2060  146.1940  146.3820 N.2   3920  MCN3920    -0.1767
     38  C4B       90.4980  147.3500  145.6700 C.1   3920  MCN3920     0.1292
     39  N1'       89.3930  148.1260  145.3550 N.2   3920  MCN3920    -0.2682
     40  C2'       89.6320  149.2660  144.8300 C.1   3920  MCN3920     0.2608
     41  N2'       88.6410  150.1310  144.5060 N.pl3 3920  MCN3920    -0.0220
     42  N3'       90.9450  149.7440  144.5700 N.2   3920  MCN3920    -0.2474
     43  C4'       92.0750  148.9040  144.7950 C.1   3920  MCN3920     0.2441
     44  O4'       93.1270  149.4040  144.5030 O.2   3920  MCN3920    -0.2063
@<TRIPOS>BOND
     1    44    43    2
     2    41    40    1
     3    42    43    2
     4    42    40    2
     5    43    36    1
     6    40    39    2
     7    36    35    2
     8    36    38    1
     9    39    38    2
    10    35    32    1
    11    38    37    2
    12    31    30    1
    13    32    30    1
    14    32    33    1
    15    37    33    1
    16    30    28    1
    17    33    34    1
    18    34    27    1
    19    28    29    2
    20    28    27    1
    21    27    26    1
    22    26    25    1
    23    25    22    1
    24    16    13    1
    25    16    17    1
    26    22    21    1
    27    22    24    2
    28    22    23    1
    29    21    18    1
    30    13    14    1
    31    13    12    1
    32    14     9    1
    33    20    18    2
    34    15    12    1
    35    17    18    1
    36    18    19    1
    37    12    10    1
    38     9    10    1
    39     9     1    1
    40    10    11    1
    41     1     6    1
    42     1     2   am
    43     6     5    2
    44     7     2    2
    45     2     3    2
    46     5     4    1
    47     3     4    2
    48     4     8    1
