@<TRIPOS>MOLECULE
1n6a_SAM_A_1.pdb
 27 29 0 0 0
SMALL
GASTEIGER

@<TRIPOS>ATOM
      1  N         63.3970   36.1050   22.7020 N.3   402  SAM402     -0.1208
      2  CA        63.9530   35.3860   21.5490 C.3   402  SAM402      0.1952
      3  C         63.8160   33.8530   21.5860 C.2   402  SAM402      0.3819
      4  O         63.2590   33.2820   22.5340 O.co2 402  SAM402     -0.2441
      5  OXT       64.2650   33.1670   20.6510 O.co2 402  SAM402     -0.2441
      6  CB        65.4610   35.8080   21.3590 C.3   402  SAM402      0.0414
      7  CG        65.8970   37.1770   20.7450 C.3   402  SAM402      0.0503
      8  SD        65.1890   37.1340   19.0130 S.3   402  SAM402     -0.1761
      9  CE        66.6050   37.8410   18.1570 C.3   402  SAM402      0.0590
     10  C5'       63.8740   38.4170   18.6640 C.3   402  SAM402      0.0806
     11  C4'       62.5140   38.1920   19.2410 C.3   402  SAM402      0.1622
     12  O4'       62.5290   38.1960   20.6910 O.3   402  SAM402     -0.3153
     13  C3'       61.3680   39.1630   18.9900 C.3   402  SAM402      0.2168
     14  O3'       61.1420   39.2270   17.6140 O.3   402  SAM402     -0.2175
     15  C2'       60.3440   38.7520   20.1320 C.3   402  SAM402      0.2569
     16  O2'       59.6480   37.7240   19.5510 O.3   402  SAM402     -0.2130
     17  C1'       61.4310   38.9790   21.2370 C.3   402  SAM402      0.3185
     18  N9        62.1870   40.1060   21.8320 N.pl3 402  SAM402     -0.1439
     19  C8        63.4500   40.7610   21.8730 C.3   402  SAM402      0.3377
     20  N7        63.5400   41.8000   22.6600 N.2   402  SAM402     -0.2095
     21  C5        62.2770   41.9120   23.2240 C.2   402  SAM402      0.2526
     22  C6        61.6840   42.8470   24.1900 C.2   402  SAM402      0.4393
     23  N6        62.3620   43.8620   24.7430 N.pl3 402  SAM402      0.2180
     24  N1        60.3220   42.6810   24.5660 N.2   402  SAM402      0.0021
     25  C2        59.5820   41.6480   24.0220 C.3   402  SAM402      0.5254
     26  N3        60.0100   40.7040   23.1150 N.2   402  SAM402     -0.0055
     27  C4        61.4100   40.8950   22.7440 C.2   402  SAM402      0.3518
@<TRIPOS>BOND
     1    14    13    1
     2     9     8    1
     3    10     8    1
     4    10    11    1
     5    13    11    1
     6    13    15    1
     7     8     7    1
     8    11    12    1
     9    16    15    1
    10    15    17    1
    11     5     3   ar
    12    12    17    1
    13     7     6    1
    14    17    18    1
    15     6     2    1
    16     2     3    1
    17     2     1    1
    18     3     4   ar
    19    18    19    1
    20    18    27    1
    21    19    20    1
    22    20    21    2
    23    27    26    2
    24    27    21    1
    25    26    25    1
    26    21    22    1
    27    25    24    1
    28    22    24    2
    29    22    23    1
