@<TRIPOS>MOLECULE
1n6b_HEM_A_1.pdb
 43 50 0 0 0
SMALL
GASTEIGER

@<TRIPOS>ATOM
      1  CHA      -13.3360  -19.3460  -29.0810 C.2   500  HEM500      0.0000
      2  CHB       -9.4270  -21.9260  -29.5840 C.2   500  HEM500      0.0000
      3  CHC       -9.5420  -21.0620  -34.1990 C.2   500  HEM500      0.0000
      4  CHD      -13.6080  -18.8410  -33.6780 C.2   500  HEM500      0.0000
      5  C1A      -12.1970  -20.0340  -28.7340 C.2   500  HEM500      0.0000
      6  C2A      -11.8130  -20.3780  -27.4470 C.2   500  HEM500      0.0000
      7  C3A      -10.6960  -21.1840  -27.5950 C.2   500  HEM500      0.0000
      8  C4A      -10.4690  -21.2780  -28.9770 C.2   500  HEM500      0.0000
      9  CMA       -9.8420  -21.8600  -26.4850 C.3   500  HEM500      0.0000
     10  CAA      -12.5370  -19.9160  -26.1660 C.3   500  HEM500      0.0000
     11  CBA      -13.6420  -20.8020  -25.6620 C.3   500  HEM500      0.0000
     12  CGA      -14.3060  -20.2970  -24.3890 C.2   500  HEM500      0.0000
     13  O1A      -14.2480  -20.9630  -23.3700 O.co2 500  HEM500      0.0000
     14  O2A      -14.9070  -19.2440  -24.3650 O.co2 500  HEM500      0.0000
     15  C1B       -8.9650  -21.8490  -30.8910 C.ar  500  HEM500      0.0000
     16  C2B       -7.7990  -22.4440  -31.4130 C.ar  500  HEM500      0.0000
     17  C3B       -7.8560  -22.1760  -32.8040 C.ar  500  HEM500      0.0000
     18  C4B       -9.0410  -21.4500  -32.9820 C.ar  500  HEM500      0.0000
     19  CMB       -6.7660  -23.1820  -30.6090 C.3   500  HEM500      0.0000
     20  CAB       -6.9590  -22.5280  -33.8520 C.3   500  HEM500      0.0000
     21  CBB       -5.8310  -23.4800  -33.8410 C.3   500  HEM500      0.0000
     22  C1C      -10.7770  -20.5960  -34.5390 C.2   500  HEM500      0.0000
     23  C2C      -11.1980  -20.3580  -35.8230 C.2   500  HEM500      0.0000
     24  C3C      -12.3930  -19.6110  -35.7070 C.2   500  HEM500      0.0000
     25  C4C      -12.5800  -19.4690  -34.3220 C.2   500  HEM500      0.0000
     26  CMC      -10.4780  -20.8290  -37.1080 C.3   500  HEM500      0.0000
     27  CAC      -13.2660  -19.0820  -36.6070 C.3   500  HEM500      0.0000
     28  CBC      -13.4860  -19.4070  -37.9630 C.3   500  HEM500      0.0000
     29  C1D      -13.7610  -18.5980  -32.3880 C.ar  500  HEM500      0.0000
     30  C2D      -14.8510  -17.9120  -31.8700 C.ar  500  HEM500      0.0000
     31  C3D      -14.8700  -18.1370  -30.5280 C.ar  500  HEM500      0.0000
     32  C4D      -13.7640  -18.9610  -30.3070 C.ar  500  HEM500      0.0000
     33  CMD      -15.8360  -17.0670  -32.6580 C.3   500  HEM500      0.0000
     34  CAD      -15.8690  -17.6150  -29.4610 C.3   500  HEM500      0.0000
     35  CBD      -17.0770  -18.5720  -29.2310 C.3   500  HEM500      0.0000
     36  CGD      -18.1380  -18.1280  -28.1820 C.2   500  HEM500      0.0000
     37  O1D      -19.2600  -18.6500  -28.1430 O.co2 500  HEM500      0.0000
     38  O2D      -17.8260  -17.2070  -27.3740 O.co2 500  HEM500      0.0000
     39  NA       -11.3600  -20.5940  -29.6530 N.2   500  HEM500      0.0000
     40  NB        -9.6680  -21.2760  -31.8490 N.ar  500  HEM500      0.0000
     41  NC       -11.5950  -20.0700  -33.6540 N.2   500  HEM500      0.0000
     42  ND       -13.1310  -19.2130  -31.4450 N.ar  500  HEM500      0.0000
     43 FE        -11.4390  -20.3190  -31.6620 Fe    500  HEM500      0.0000
@<TRIPOS>BOND
     1    28    27    1
     2    26    23    1
     3    27    24    1
     4    23    24    2
     5    23    22    1
     6    24    25    1
     7    22     3    2
     8    22    41    1
     9    25     4    1
    10    25    41    2
    11     3    18    1
    12    20    21    1
    13    20    17    1
    14     4    29    2
    15    41    43    1
    16    18    17   ar
    17    18    40   ar
    18    17    16   ar
    19    33    30    1
    20    29    30   ar
    21    29    42   ar
    22    30    31   ar
    23    40    43    1
    24    40    15   ar
    25    43    42    1
    26    43    39    1
    27    42    32   ar
    28    16    15   ar
    29    16    19    1
    30    15     2    1
    31    31    32   ar
    32    31    34    1
    33    32     1    2
    34    39     8    1
    35    39     5    2
    36     2     8    2
    37    34    35    1
    38    35    36    1
    39     1     5    1
    40     8     7    1
    41     5     6    1
    42    36    37   ar
    43    36    38   ar
    44     7     6    2
    45     7     9    1
    46     6    10    1
    47    10    11    1
    48    11    12    1
    49    12    14   ar
    50    12    13   ar
