@<TRIPOS>MOLECULE
1n6b_DMZ_A_1.pdb
 23 25 0 0 0
SMALL
GASTEIGER

@<TRIPOS>ATOM
      1  C18      -11.3430  -14.2150  -29.5170 C.ar  501  DMZ501     -0.0029
      2  C19      -10.2640  -15.1370  -29.6240 C.ar  501  DMZ501     -0.0218
      3  C20       -8.9390  -14.6240  -29.6390 C.ar  501  DMZ501     -0.0029
      4  C21       -8.7010  -13.2360  -29.5470 C.ar  501  DMZ501      0.0199
      5  C16       -9.7840  -12.3300  -29.4400 C.ar  501  DMZ501      0.1254
      6  C17      -11.1100  -12.8270  -29.4250 C.ar  501  DMZ501      0.0199
      7  C41      -10.5220  -16.6200  -29.7170 C.3   501  DMZ501      0.0310
      8  S2        -9.4850  -10.5840  -29.3170 S.O2  501  DMZ501      0.0778
      9  O3       -10.3000   -9.9990  -28.1690 O.2   501  DMZ501     -0.1497
     10  O4        -7.9950  -10.2810  -29.1950 O.2   501  DMZ501     -0.1497
     11  N6       -10.0780   -9.8950  -30.8190 N.pl3 501  DMZ501     -0.1721
     12  C31      -11.4800  -10.1510  -31.2330 C.3   501  DMZ501      0.1408
     13  C22       -9.1630   -9.7340  -31.8950 C.ar  501  DMZ501      0.1535
     14  C23       -8.1910  -10.5710  -32.4630 C.ar  501  DMZ501      0.0583
     15  C24       -7.6030   -9.8060  -33.5320 C.ar  501  DMZ501      0.1235
     16  N7        -8.1770   -8.5840  -33.6100 N.ar  501  DMZ501     -0.1623
     17  N8        -9.1090   -8.5180  -32.6440 N.ar  501  DMZ501     -0.2146
     18  C25       -9.8610   -7.2880  -32.5330 C.ar  501  DMZ501      0.0842
     19  C30       -9.9330   -6.6130  -31.2810 C.ar  501  DMZ501      0.0192
     20  C29      -10.6650   -5.4100  -31.1820 C.ar  501  DMZ501      0.0015
     21  C28      -11.3240   -4.8720  -32.3110 C.ar  501  DMZ501      0.0001
     22  C27      -11.2540   -5.5410  -33.5550 C.ar  501  DMZ501      0.0015
     23  C26      -10.5250   -6.7460  -33.6730 C.ar  501  DMZ501      0.0192
@<TRIPOS>BOND
     1    23    22   ar
     2    23    18   ar
     3    16    15   ar
     4    16    17   ar
     5    22    21   ar
     6    15    14   ar
     7    17    18    1
     8    17    13   ar
     9    18    19   ar
    10    14    13   ar
    11    21    20   ar
    12    13    11    1
    13    19    20   ar
    14    12    11    1
    15    11     8    1
    16     7     2    1
    17     3     2   ar
    18     3     4   ar
    19     2     1   ar
    20     4     5   ar
    21     1     6   ar
    22     5     6   ar
    23     5     8    1
    24     8    10    2
    25     8     9    2
