@<TRIPOS>MOLECULE
1n6c_SAM_A_1.pdb
 27 29 0 0 0
SMALL
GASTEIGER

@<TRIPOS>ATOM
      1  N          9.4100   51.7910   21.0770 N.3   402  SAM402     -0.1208
      2  CA         8.6360   52.4320   20.0140 C.3   402  SAM402      0.1952
      3  C          8.4080   51.5910   18.7640 C.2   402  SAM402      0.3819
      4  O          8.8480   50.4360   18.6940 O.co2 402  SAM402     -0.2441
      5  OXT        7.7730   52.0670   17.7970 O.co2 402  SAM402     -0.2441
      6  CB         9.2910   53.8080   19.6470 C.3   402  SAM402      0.0414
      7  CG         9.1480   55.0790   20.5250 C.3   402  SAM402      0.0503
      8  SD         7.2990   55.2500   20.7410 S.3   402  SAM402     -0.1761
      9  CE         7.2530   57.0440   20.5880 C.3   402  SAM402      0.0590
     10  C5'        6.6590   55.0310   22.4890 C.3   402  SAM402      0.0806
     11  C4'        6.5290   53.6550   23.0380 C.3   402  SAM402      0.1622
     12  O4'        7.7940   52.9590   23.1010 O.3   402  SAM402     -0.3153
     13  C3'        6.0050   53.4060   24.4490 C.3   402  SAM402      0.2168
     14  O3'        4.7200   53.9430   24.5530 O.3   402  SAM402     -0.2175
     15  C2'        6.4630   51.9060   24.7010 C.3   402  SAM402      0.2569
     16  O2'        5.4230   51.1970   24.1770 O.3   402  SAM402     -0.2130
     17  C1'        7.9510   52.2610   24.3710 C.3   402  SAM402      0.3185
     18  N9         9.0390   53.0590   24.9650 N.pl3 402  SAM402     -0.1439
     19  C8         9.7670   54.2760   24.8780 C.3   402  SAM402      0.3377
     20  N7        10.7140   54.4470   25.7540 N.2   402  SAM402     -0.2095
     21  C5        10.6750   53.2930   26.5230 C.2   402  SAM402      0.2526
     22  C6        11.4550   52.8190   27.6730 C.2   402  SAM402      0.4393
     23  N6        12.4530   53.5190   28.2270 N.pl3 402  SAM402      0.2180
     24  N1        11.1460   51.5550   28.2400 N.2   402  SAM402      0.0021
     25  C2        10.1270   50.7940   27.7100 C.3   402  SAM402      0.5254
     26  N3         9.3250   51.1140   26.6440 N.2   402  SAM402     -0.0055
     27  C4         9.6590   52.4150   26.0760 C.2   402  SAM402      0.3518
@<TRIPOS>BOND
     1     5     3   ar
     2     4     3   ar
     3     3     2    1
     4     6     2    1
     5     6     7    1
     6     2     1    1
     7     7     8    1
     8     9     8    1
     9     8    10    1
    10    10    11    1
    11    11    12    1
    12    11    13    1
    13    12    17    1
    14    16    15    1
    15    17    15    1
    16    17    18    1
    17    13    14    1
    18    13    15    1
    19    19    18    1
    20    19    20    1
    21    18    27    1
    22    20    21    2
    23    27    21    1
    24    27    26    2
    25    21    22    1
    26    26    25    1
    27    22    23    1
    28    22    24    2
    29    25    24    1
