@<TRIPOS>MOLECULE
1n6d_III_G_1.pdb
 38 37 0 0 0
SMALL
GASTEIGER

@<TRIPOS>ATOM
      1  N        -34.1870  -15.1280  -14.9680 N.3   1101  ARG1101    -0.1231
      2  CA       -32.9700  -15.0390  -15.7670 C.3   1101  ARG1101     0.1694
      3  C        -32.7720  -16.2280  -16.7180 C.2   1101  ARG1101     0.2592
      4  O        -32.4410  -17.3400  -16.2820 O.2   1101  ARG1101    -0.2718
      5  CB       -31.7560  -14.9220  -14.8490 C.3   1101  ARG1101     0.0321
      6  CG       -30.7160  -13.9110  -15.2980 C.3   1101  ARG1101     0.0489
      7  CD       -30.9170  -12.5480  -14.5980 C.3   1101  ARG1101     0.2205
      8  NE       -29.8160  -12.1850  -13.7010 N.pl3 1101  ARG1101    -0.0865
      9  CZ       -29.5950  -10.9540  -13.2440 C.cat 1101  ARG1101     0.5346
     10  NH1      -29.1390  -10.7860  -12.0060 N.pl3 1101  ARG1101     0.1354
     11  NH2      -29.8200   -9.8870  -14.0190 N.pl3 1101  ARG1101     0.1354
     12  N        -32.8150  -16.1080  -18.0220 N.am  1102  VAL1102    -0.1966
     13  CA       -32.7210  -16.9490  -19.2220 C.3   1102  VAL1102     0.1727
     14  C        -31.3000  -17.1780  -19.7370 C.2   1102  VAL1102     0.2616
     15  O        -30.6430  -16.2580  -20.2390 O.2   1102  VAL1102    -0.2715
     16  CB       -33.5800  -16.3610  -20.3850 C.3   1102  VAL1102     0.0290
     17  CG1      -33.5180  -17.2910  -21.6030 C.3   1102  VAL1102     0.0023
     18  CG2      -35.0020  -16.1670  -19.9290 C.3   1102  VAL1102     0.0023
     19  N        -30.6720  -18.1040  -18.9470 N.am  1103  ARG1103    -0.1963
     20  CA       -29.4990  -18.6540  -19.0340 C.3   1103  ARG1103     0.1729
     21  C        -29.5100  -19.6040  -20.2900 C.2   1103  ARG1103     0.2616
     22  O        -30.5610  -20.0640  -20.7100 O.2   1103  ARG1103    -0.2715
     23  CB       -28.9910  -19.4570  -17.8440 C.3   1103  ARG1103     0.0348
     24  CG       -29.0490  -18.3090  -16.5000 C.3   1103  ARG1103     0.0492
     25  CD       -28.8440  -19.0340  -15.2020 C.3   1103  ARG1103     0.2205
     26  NE       -27.4640  -18.9210  -14.7770 N.pl3 1103  ARG1103    -0.0865
     27  CZ       -27.0320  -19.2340  -13.5610 C.cat 1103  ARG1103     0.5346
     28  NH1      -26.1470  -20.2140  -13.4210 N.pl3 1103  ARG1103     0.1354
     29  NH2      -27.4830  -18.5660  -12.4910 N.pl3 1103  ARG1103     0.1354
     30  N        -28.5750  -19.9950  -21.0650 N.am  1104  LYS1104    -0.1977
     31  CA       -28.2980  -20.4890  -22.3780 C.3   1104  LYS1104     0.1596
     32  C        -26.8790  -21.0090  -22.4760 C.2   1104  LYS1104     0.2287
     33  O        -25.9370  -20.4610  -22.0090 O.2   1104  LYS1104    -0.2864
     34  CB       -28.5050  -19.3570  -23.3790 C.3   1104  LYS1104     0.0298
     35  CG       -29.9380  -18.8440  -23.5080 C.3   1104  LYS1104     0.0038
     36  CD       -30.0160  -17.3320  -23.7420 C.3   1104  LYS1104     0.0206
     37  CE       -31.2990  -16.9650  -24.5130 C.3   1104  LYS1104     0.1093
     38  NZ       -31.5800  -15.4970  -24.4840 N.3   1104  LYS1104    -0.1314
@<TRIPOS>BOND
     1    37    38    1
     2    37    36    1
     3    36    35    1
     4    35    34    1
     5    34    31    1
     6    32    31    1
     7    32    33    2
     8    31    30    1
     9    17    16    1
    10    30    21   am
    11    22    21    2
    12    16    18    1
    13    16    13    1
    14    21    20    1
    15    15    14    2
    16    14    13    1
    17    14    19   am
    18    13    12    1
    19    20    19    1
    20    20    23    1
    21    12     3   am
    22    23    24    1
    23     3     4    2
    24     3     2    1
    25    24    25    1
    26     2     1    1
    27     2     5    1
    28     6     5    1
    29     6     7    1
    30    25    26    1
    31    26    27    2
    32     7     8    1
    33    11     9    1
    34     8     9    2
    35    27    28    1
    36    27    29    1
    37     9    10    1
