@<TRIPOS>MOLECULE
1n6h_GNP_A_1.pdb
 32 34 0 0 0
SMALL
GASTEIGER

@<TRIPOS>ATOM
      1  PG         1.2030   -1.3210   43.0520 P.3   200  GNP200      0.4884
      2  O1G        0.7070   -2.1540   44.2070 O.3   200  GNP200     -0.1240
      3  O2G        1.2300    0.1530   43.4100 O.3   200  GNP200     -0.1240
      4  O3G        0.4360   -1.5710   41.7910 O.2   200  GNP200     -0.2331
      5  N3B        2.8150   -1.8640   42.8010 N.3   200  GNP200     -0.0163
      6  PB         3.7690   -1.1800   41.5970 P.3   200  GNP200      0.4669
      7  O1B        3.5040   -1.8300   40.2860 O.2   200  GNP200     -0.2351
      8  O2B        3.6310    0.3100   41.6510 O.3   200  GNP200     -0.1253
      9  O3A        5.2690   -1.5990   42.0670 O.3   200  GNP200     -0.2360
     10  PA         6.3720   -0.7220   42.7810 P.3   200  GNP200      0.2220
     11  O1A        6.8890    0.3250   41.8860 O.2   200  GNP200     -0.5170
     12  O2A        5.8240   -0.3530   44.1420 O.3   200  GNP200     -0.4370
     13  O5'        7.4990   -1.7740   42.9310 O.3   200  GNP200     -0.3111
     14  C5'        7.3470   -2.9690   43.7300 C.3   200  GNP200      0.1813
     15  C4'        8.6990   -3.4840   44.1170 C.3   200  GNP200      0.1799
     16  O4'        9.5020   -3.8430   43.0470 O.3   200  GNP200     -0.3326
     17  C3'        9.5370   -2.4410   44.9230 C.3   200  GNP200      0.2158
     18  O3'       10.2420   -3.0880   46.0110 O.3   200  GNP200     -0.2175
     19  C2'       10.5190   -1.8990   43.8810 C.3   200  GNP200      0.2310
     20  O2'       11.7130   -1.3920   44.4330 O.3   200  GNP200     -0.2158
     21  C1'       10.7120   -3.1430   43.0630 C.3   200  GNP200      0.2293
     22  N9        11.0590   -2.8470   41.6550 N.pl3 200  GNP200     -0.2354
     23  C8        10.2880   -1.9730   40.7840 C.3   200  GNP200      0.2246
     24  N7        10.8390   -1.9090   39.5870 N.2   200  GNP200     -0.2322
     25  C5        12.0140   -2.7820   39.6900 C.2   200  GNP200      0.2182
     26  C6        12.9980   -3.0980   38.6750 C.1   200  GNP200      0.2372
     27  O6        13.0610   -2.7110   37.5470 O.2   200  GNP200     -0.2069
     28  N1        13.9530   -3.9850   39.1640 N.2   200  GNP200     -0.2485
     29  C2        13.8760   -4.4290   40.4820 C.1   200  GNP200      0.2531
     30  N2        14.9460   -5.3330   40.7770 N.pl3 200  GNP200     -0.0226
     31  N3        13.0480   -4.1840   41.4390 N.2   200  GNP200     -0.3074
     32  C4        12.1030   -3.3160   40.9420 C.2   200  GNP200      0.2300
@<TRIPOS>BOND
     1    27    26    2
     2    26    28    2
     3    26    25    1
     4    28    29    2
     5    24    25    2
     6    24    23    1
     7    25    32    1
     8     7     6    2
     9    29    30    1
    10    29    31    2
    11    23    22    1
    12    32    31    2
    13    32    22    1
    14     6     8    1
    15     6     9    1
    16     6     5    1
    17    22    21    1
    18     4     1    2
    19    11    10    2
    20     9    10    1
    21    10    13    1
    22    10    12    1
    23     5     1    1
    24    13    14    1
    25    16    21    1
    26    16    15    1
    27     1     3    1
    28     1     2    1
    29    21    19    1
    30    14    15    1
    31    19    20    1
    32    19    17    1
    33    15    17    1
    34    17    18    1
