@<TRIPOS>MOLECULE
1n6i_GDP_A_1.pdb
 28 30 0 0 0
SMALL
GASTEIGER

@<TRIPOS>ATOM
      1  PB         3.8360   -1.3590   41.7880 P.3   200  GDP200      0.5373
      2  O1B        3.1600   -2.0060   42.9470 O.3   200  GDP200     -0.1143
      3  O2B        3.5710   -2.0200   40.4570 O.2   200  GDP200     -0.2221
      4  O3B        3.6640    0.1300   41.7140 O.3   200  GDP200     -0.1143
      5  O3A        5.4450   -1.7160   42.1200 O.3   200  GDP200     -0.2261
      6  PA         6.5000   -0.6820   42.8620 P.3   200  GDP200      0.2231
      7  O1A        7.0230    0.4020   41.9570 O.2   200  GDP200     -0.5169
      8  O2A        5.9240   -0.1560   44.1370 O.3   200  GDP200     -0.4370
      9  O5'        7.6010   -1.7800   42.9920 O.3   200  GDP200     -0.3111
     10  C5'        7.4480   -2.9420   43.7650 C.3   200  GDP200      0.1813
     11  C4'        8.8100   -3.3910   44.2270 C.3   200  GDP200      0.1799
     12  O4'        9.7500   -3.8750   43.1830 O.3   200  GDP200     -0.3326
     13  C3'        9.7160   -2.3440   44.9840 C.3   200  GDP200      0.2158
     14  O3'       10.3840   -3.0570   46.0520 O.3   200  GDP200     -0.2175
     15  C2'       10.7180   -1.8630   43.9500 C.3   200  GDP200      0.2310
     16  O2'       11.9530   -1.3920   44.4850 O.3   200  GDP200     -0.2158
     17  C1'       10.8780   -3.0600   43.0540 C.3   200  GDP200      0.2293
     18  N9        11.1230   -2.7120   41.6240 N.pl3 200  GDP200     -0.2354
     19  C8        10.4610   -1.8970   40.7700 C.3   200  GDP200      0.2246
     20  N7        10.9890   -1.8490   39.5710 N.2   200  GDP200     -0.2322
     21  C5        12.0770   -2.6980   39.6380 C.2   200  GDP200      0.2182
     22  C6        13.0520   -3.0720   38.6660 C.1   200  GDP200      0.2372
     23  O6        13.1120   -2.6750   37.5200 O.2   200  GDP200     -0.2069
     24  N1        14.0250   -4.0110   39.1670 N.2   200  GDP200     -0.2485
     25  C2        14.0580   -4.5340   40.4730 C.1   200  GDP200      0.2531
     26  N2        15.0370   -5.3990   40.7630 N.pl3 200  GDP200     -0.0226
     27  N3        13.1320   -4.1690   41.4120 N.2   200  GDP200     -0.3074
     28  C4        12.1910   -3.2650   40.9120 C.2   200  GDP200      0.2300
@<TRIPOS>BOND
     1    23    22    2
     2    22    24    2
     3    22    21    1
     4    24    25    2
     5    20    21    2
     6    20    19    1
     7    21    28    1
     8     3     1    2
     9    25    26    1
    10    25    27    2
    11    19    18    1
    12    28    27    2
    13    28    18    1
    14    18    17    1
    15     4     1    1
    16     1     5    1
    17     1     2    1
    18     7     6    2
    19     5     6    1
    20     6     9    1
    21     6     8    1
    22     9    10    1
    23    17    12    1
    24    17    15    1
    25    12    11    1
    26    10    11    1
    27    15    16    1
    28    15    13    1
    29    11    13    1
    30    13    14    1
