@<TRIPOS>MOLECULE
1n6k_GDP_A_1.pdb
 28 30 0 0 0
SMALL
GASTEIGER

@<TRIPOS>ATOM
      1  PB         3.8090   -1.2380   41.6190 P.3   200  GDP200      0.5373
      2  O1B        3.6210   -1.8410   40.2380 O.2   200  GDP200     -0.2221
      3  O2B        2.9660   -1.8800   42.7160 O.3   200  GDP200     -0.1143
      4  O3B        3.7200    0.2810   41.6110 O.3   200  GDP200     -0.1143
      5  O3A        5.3660   -1.5900   42.0500 O.3   200  GDP200     -0.2261
      6  PA         6.4540   -0.6790   42.7490 P.3   200  GDP200      0.2231
      7  O1A        5.9370   -0.2450   44.0760 O.3   200  GDP200     -0.4370
      8  O2A        6.9660    0.4090   41.8260 O.2   200  GDP200     -0.5169
      9  O5'        7.6530   -1.7230   42.8970 O.3   200  GDP200     -0.3111
     10  C5'        7.5020   -2.8880   43.6960 C.3   200  GDP200      0.1813
     11  C4'        8.8580   -3.3530   44.1760 C.3   200  GDP200      0.1799
     12  O4'        9.6330   -3.7890   43.0180 O.3   200  GDP200     -0.3326
     13  C3'        9.6850   -2.2870   44.9000 C.3   200  GDP200      0.2158
     14  O3'       10.3430   -3.0240   45.9720 O.3   200  GDP200     -0.2175
     15  C2'       10.6870   -1.8470   43.8450 C.3   200  GDP200      0.2310
     16  O2'       11.8780   -1.3450   44.4020 O.3   200  GDP200     -0.2158
     17  C1'       10.8440   -3.1090   43.0070 C.3   200  GDP200      0.2293
     18  N9        11.1550   -2.8000   41.5410 N.pl3 200  GDP200     -0.2354
     19  C8        10.4170   -1.9720   40.7170 C.3   200  GDP200      0.2246
     20  N7        10.9610   -1.9370   39.4950 N.2   200  GDP200     -0.2322
     21  C5        12.0870   -2.7800   39.5720 C.2   200  GDP200      0.2182
     22  C6        13.0460   -3.1300   38.5930 C.1   200  GDP200      0.2372
     23  O6        13.0850   -2.7260   37.4330 O.2   200  GDP200     -0.2069
     24  N1        14.0290   -4.0250   39.0510 N.2   200  GDP200     -0.2485
     25  C2        14.0560   -4.5220   40.3580 C.1   200  GDP200      0.2531
     26  N2        15.0290   -5.3680   40.6880 N.pl3 200  GDP200     -0.0226
     27  N3        13.1470   -4.1780   41.2960 N.2   200  GDP200     -0.3074
     28  C4        12.2050   -3.3120   40.8330 C.2   200  GDP200      0.2300
@<TRIPOS>BOND
     1    23    22    2
     2    22    24    2
     3    22    21    1
     4    24    25    2
     5    20    21    2
     6    20    19    1
     7    21    28    1
     8     2     1    2
     9    25    26    1
    10    25    27    2
    11    19    18    1
    12    28    27    2
    13    28    18    1
    14    18    17    1
    15     4     1    1
    16     1     5    1
    17     1     3    1
    18     8     6    2
    19     5     6    1
    20     6     9    1
    21     6     7    1
    22     9    10    1
    23    17    12    1
    24    17    15    1
    25    12    11    1
    26    10    11    1
    27    15    16    1
    28    15    13    1
    29    11    13    1
    30    13    14    1
