@<TRIPOS>MOLECULE
1n6l_GTP_A_1.pdb
 32 34 0 0 0
SMALL
GASTEIGER

@<TRIPOS>ATOM
      1  PG         1.2950   -1.2920   43.2080 P.3   200  GTP200      0.5373
      2  O1G        0.8880   -2.1060   44.3810 O.3   200  GTP200     -0.1143
      3  O2G        1.2940    0.1580   43.4680 O.3   200  GTP200     -0.1143
      4  O3G        0.4710   -1.6520   42.0020 O.2   200  GTP200     -0.2221
      5  O3B        2.8390   -1.7440   42.8770 O.3   200  GTP200     -0.2258
      6  PB         3.7840   -1.1420   41.7160 P.3   200  GTP200      0.2277
      7  O1B        3.5320   -1.8230   40.3790 O.2   200  GTP200     -0.5168
      8  O2B        3.6740    0.3200   41.7140 O.3   200  GTP200     -0.4368
      9  O3A        5.2630   -1.5910   42.1920 O.3   200  GTP200     -0.2700
     10  PA         6.4020   -0.6400   42.8610 P.3   200  GTP200      0.2189
     11  O1A        6.8750    0.4070   41.9530 O.2   200  GTP200     -0.5170
     12  O2A        5.8240   -0.2190   44.1760 O.3   200  GTP200     -0.4371
     13  O5'        7.5280   -1.7230   43.0290 O.3   200  GTP200     -0.3112
     14  C5'        7.3560   -2.8880   43.8380 C.3   200  GTP200      0.1813
     15  C4'        8.7300   -3.4220   44.2940 C.3   200  GTP200      0.1799
     16  O4'        9.4880   -3.8090   43.1120 O.3   200  GTP200     -0.3326
     17  C3'        9.6010   -2.4290   45.0070 C.3   200  GTP200      0.2158
     18  O3'       10.3310   -3.1040   46.0660 O.3   200  GTP200     -0.2175
     19  C2'       10.5610   -1.9280   43.9630 C.3   200  GTP200      0.2310
     20  O2'       11.7860   -1.4490   44.4680 O.3   200  GTP200     -0.2158
     21  C1'       10.7080   -3.1340   43.0990 C.3   200  GTP200      0.2293
     22  N9        11.0100   -2.8360   41.7020 N.pl3 200  GTP200     -0.2354
     23  C8        10.3340   -2.0130   40.8260 C.3   200  GTP200      0.2246
     24  N7        10.8520   -1.9480   39.5990 N.2   200  GTP200     -0.2322
     25  C5        11.9450   -2.8040   39.6990 C.2   200  GTP200      0.2182
     26  C6        12.9100   -3.1700   38.7260 C.1   200  GTP200      0.2372
     27  O6        13.0060   -2.7980   37.5530 O.2   200  GTP200     -0.2069
     28  N1        13.8780   -4.0970   39.2100 N.2   200  GTP200     -0.2485
     29  C2        13.9200   -4.6210   40.5140 C.1   200  GTP200      0.2531
     30  N2        14.8810   -5.4800   40.8160 N.pl3 200  GTP200     -0.0226
     31  N3        12.9970   -4.2510   41.4450 N.2   200  GTP200     -0.3074
     32  C4        12.0500   -3.3570   40.9700 C.2   200  GTP200      0.2300
@<TRIPOS>BOND
     1    27    26    2
     2    26    28    2
     3    26    25    1
     4    28    29    2
     5    24    25    2
     6    24    23    1
     7    25    32    1
     8     7     6    2
     9    29    30    1
    10    29    31    2
    11    23    22    1
    12    32    31    2
    13    32    22    1
    14    22    21    1
    15     8     6    1
    16     6     9    1
    17     6     5    1
    18    11    10    2
    19     4     1    2
    20     9    10    1
    21    10    13    1
    22    10    12    1
    23     5     1    1
    24    13    14    1
    25    21    16    1
    26    21    19    1
    27    16    15    1
    28     1     3    1
    29     1     2    1
    30    14    15    1
    31    19    20    1
    32    19    17    1
    33    15    17    1
    34    17    18    1
