@<TRIPOS>MOLECULE
1n6m_ADP_A_1.pdb
 27 29 0 0 0
SMALL
GASTEIGER

@<TRIPOS>ATOM
      1  PB        81.2450   47.2900   62.9920 P.3   998  ADP998      0.5373
      2  O1B       82.5320   47.7760   63.5330 O.3   998  ADP998     -0.1143
      3  O2B       81.4890   46.0560   61.9800 O.2   998  ADP998     -0.2221
      4  O3B       80.3380   46.8900   64.0940 O.3   998  ADP998     -0.1143
      5  PA        79.1730   48.0530   61.3530 P.3   998  ADP998      0.2231
      6  O1A       79.4640   47.0160   60.3950 O.2   998  ADP998     -0.5169
      7  O2A       78.2530   47.6250   62.3990 O.3   998  ADP998     -0.4370
      8  O3A       80.5090   48.3390   62.0890 O.3   998  ADP998     -0.2261
      9  O5'       78.6010   49.2910   60.5640 O.3   998  ADP998     -0.3111
     10  C5'       79.2080   50.5360   60.3860 C.3   998  ADP998      0.1813
     11  C4'       78.9500   50.8460   58.8780 C.3   998  ADP998      0.1821
     12  O4'       78.7040   49.6280   58.1030 O.3   998  ADP998     -0.3135
     13  C3'       77.7190   51.7040   58.6760 C.3   998  ADP998      0.2184
     14  O3'       77.9240   52.7230   57.6960 O.3   998  ADP998     -0.2174
     15  C2'       76.6390   50.7380   58.2430 C.3   998  ADP998      0.2570
     16  O2'       75.5600   51.4010   57.5680 O.3   998  ADP998     -0.2130
     17  C1'       77.4170   49.7310   57.4260 C.3   998  ADP998      0.3186
     18  N9        76.7410   48.3600   57.3230 N.pl3 998  ADP998     -0.1439
     19  C8        77.1700   47.2600   57.9450 C.3   998  ADP998      0.3377
     20  N7        76.3990   46.2180   57.6320 N.2   998  ADP998     -0.2095
     21  C5        75.4660   46.6290   56.8150 C.2   998  ADP998      0.2526
     22  C6        74.3940   46.0100   56.1370 C.2   998  ADP998      0.4393
     23  N6        74.1570   44.7010   56.3030 N.pl3 998  ADP998      0.2180
     24  N1        73.5760   46.7490   55.3190 N.2   998  ADP998      0.0021
     25  C2        73.7860   48.0760   55.1310 C.3   998  ADP998      0.5254
     26  N3        74.8230   48.6790   55.7760 N.2   998  ADP998     -0.0055
     27  C4        75.6770   48.0120   56.5970 C.2   998  ADP998      0.3518
@<TRIPOS>BOND
     1    25    24    1
     2    25    26    1
     3    24    22    2
     4    26    27    2
     5    22    23    1
     6    22    21    1
     7    27    21    1
     8    27    18    1
     9    21    20    2
    10    18    17    1
    11    18    19    1
    12    17    12    1
    13    17    15    1
    14    16    15    1
    15    20    19    1
    16    14    13    1
    17    12    11    1
    18    15    13    1
    19    13    11    1
    20    11    10    1
    21    10     9    1
    22     6     5    2
    23     9     5    1
    24     5     8    1
    25     5     7    1
    26     3     1    2
    27     8     1    1
    28     1     2    1
    29     1     4    1
