@<TRIPOS>MOLECULE
1n6n_GNP_A_1.pdb
 32 34 0 0 0
SMALL
GASTEIGER

@<TRIPOS>ATOM
      1  PG         1.2060   -1.3120   43.0400 P.3   200  GNP200      0.4884
      2  O1G        0.7420   -2.1510   44.2090 O.3   200  GNP200     -0.1240
      3  O2G        1.2070    0.1600   43.3580 O.3   200  GNP200     -0.1240
      4  O3G        0.4360   -1.5800   41.7820 O.2   200  GNP200     -0.2331
      5  N3B        2.8450   -1.8370   42.8130 N.3   200  GNP200     -0.0163
      6  PB         3.8040   -1.1600   41.6010 P.3   200  GNP200      0.4669
      7  O1B        3.5440   -1.8190   40.2880 O.2   200  GNP200     -0.2351
      8  O2B        3.6580    0.2970   41.6630 O.3   200  GNP200     -0.1253
      9  O3A        5.3140   -1.5740   42.0810 O.3   200  GNP200     -0.2360
     10  PA         6.4210   -0.6990   42.7920 P.3   200  GNP200      0.2220
     11  O1A        6.9420    0.3590   41.9050 O.2   200  GNP200     -0.5170
     12  O2A        5.8460   -0.3210   44.1320 O.3   200  GNP200     -0.4370
     13  O5'        7.5390   -1.7610   42.9490 O.3   200  GNP200     -0.3111
     14  C5'        7.3610   -2.9470   43.7530 C.3   200  GNP200      0.1813
     15  C4'        8.7130   -3.5060   44.1020 C.3   200  GNP200      0.1799
     16  O4'        9.5020   -3.8310   43.0140 O.3   200  GNP200     -0.3326
     17  C3'        9.5870   -2.5060   44.9250 C.3   200  GNP200      0.2158
     18  O3'       10.3130   -3.1930   45.9730 O.3   200  GNP200     -0.2175
     19  C2'       10.5440   -1.9390   43.8730 C.3   200  GNP200      0.2310
     20  O2'       11.7400   -1.4550   44.4280 O.3   200  GNP200     -0.2158
     21  C1'       10.7340   -3.1580   43.0290 C.3   200  GNP200      0.2293
     22  N9        11.0850   -2.8310   41.6300 N.pl3 200  GNP200     -0.2354
     23  C8        10.3200   -1.9330   40.7730 C.3   200  GNP200      0.2246
     24  N7        10.8930   -1.8580   39.5810 N.2   200  GNP200     -0.2322
     25  C5        12.0580   -2.7360   39.6700 C.2   200  GNP200      0.2182
     26  C6        13.0450   -3.0400   38.6570 C.1   200  GNP200      0.2372
     27  O6        13.1080   -2.6300   37.5400 O.2   200  GNP200     -0.2069
     28  N1        14.0030   -3.9340   39.1340 N.2   200  GNP200     -0.2485
     29  C2        13.9090   -4.4040   40.4490 C.1   200  GNP200      0.2531
     30  N2        14.9940   -5.3040   40.7300 N.pl3 200  GNP200     -0.0226
     31  N3        13.0660   -4.1780   41.3990 N.2   200  GNP200     -0.3074
     32  C4        12.1290   -3.2940   40.9130 C.2   200  GNP200      0.2300
@<TRIPOS>BOND
     1    27    26    2
     2    26    28    2
     3    26    25    1
     4    28    29    2
     5    24    25    2
     6    24    23    1
     7    25    32    1
     8     7     6    2
     9    29    30    1
    10    29    31    2
    11    23    22    1
    12    32    31    2
    13    32    22    1
    14     6     8    1
    15     6     9    1
    16     6     5    1
    17    22    21    1
    18     4     1    2
    19    11    10    2
    20     9    10    1
    21    10    13    1
    22    10    12    1
    23     5     1    1
    24    13    14    1
    25    16    21    1
    26    16    15    1
    27    21    19    1
    28     1     3    1
    29     1     2    1
    30    14    15    1
    31    19    20    1
    32    19    17    1
    33    15    17    1
    34    17    18    1
