@<TRIPOS>MOLECULE
1n6o_GNP_A_1.pdb
 32 34 0 0 0
SMALL
GASTEIGER

@<TRIPOS>ATOM
      1  PG         1.1700   -1.3870   42.7690 P.3   200  GNP200      0.4884
      2  O1G        0.6850   -2.1930   43.9350 O.3   200  GNP200     -0.1240
      3  O2G        1.1850    0.0920   43.0800 O.3   200  GNP200     -0.1240
      4  O3G        0.4170   -1.6650   41.5100 O.2   200  GNP200     -0.2331
      5  N3B        2.8170   -1.8690   42.5710 N.3   200  GNP200     -0.0163
      6  PB         3.7710   -1.1970   41.3620 P.3   200  GNP200      0.4669
      7  O1B        3.5100   -1.8350   40.0660 O.2   200  GNP200     -0.2351
      8  O2B        3.6200    0.2740   41.4340 O.3   200  GNP200     -0.1253
      9  O3A        5.2750   -1.5800   41.8270 O.3   200  GNP200     -0.2360
     10  PA         6.3990   -0.7160   42.5120 P.3   200  GNP200      0.2220
     11  O1A        6.9190    0.3390   41.6540 O.2   200  GNP200     -0.5170
     12  O2A        5.8730   -0.3330   43.8880 O.3   200  GNP200     -0.4370
     13  O5'        7.5060   -1.7720   42.6730 O.3   200  GNP200     -0.3111
     14  C5'        7.3200   -2.9840   43.4540 C.3   200  GNP200      0.1813
     15  C4'        8.6710   -3.5230   43.8580 C.3   200  GNP200      0.1799
     16  O4'        9.4790   -3.8790   42.7980 O.3   200  GNP200     -0.3326
     17  C3'        9.5100   -2.4750   44.6680 C.3   200  GNP200      0.2158
     18  O3'       10.2010   -3.1070   45.7590 O.3   200  GNP200     -0.2175
     19  C2'       10.5030   -1.9390   43.6400 C.3   200  GNP200      0.2310
     20  O2'       11.6920   -1.4640   44.2400 O.3   200  GNP200     -0.2158
     21  C1'       10.6960   -3.1710   42.8040 C.3   200  GNP200      0.2293
     22  N9        11.0400   -2.8390   41.3980 N.pl3 200  GNP200     -0.2354
     23  C8        10.2700   -1.9530   40.5420 C.3   200  GNP200      0.2246
     24  N7        10.8240   -1.8570   39.3510 N.2   200  GNP200     -0.2322
     25  C5        12.0080   -2.7210   39.4290 C.2   200  GNP200      0.2182
     26  C6        13.0030   -3.0080   38.4130 C.1   200  GNP200      0.2372
     27  O6        13.0670   -2.6000   37.3030 O.2   200  GNP200     -0.2069
     28  N1        13.9660   -3.8970   38.9020 N.2   200  GNP200     -0.2485
     29  C2        13.8690   -4.3610   40.2140 C.1   200  GNP200      0.2531
     30  N2        14.9580   -5.2610   40.5100 N.pl3 200  GNP200     -0.0226
     31  N3        13.0290   -4.1470   41.1620 N.2   200  GNP200     -0.3074
     32  C4        12.0880   -3.2850   40.6810 C.2   200  GNP200      0.2300
@<TRIPOS>BOND
     1    27    26    2
     2    26    28    2
     3    26    25    1
     4    28    29    2
     5    24    25    2
     6    24    23    1
     7    25    32    1
     8     7     6    2
     9    29    30    1
    10    29    31    2
    11    23    22    1
    12    32    31    2
    13    32    22    1
    14     6     8    1
    15     6     9    1
    16     6     5    1
    17    22    21    1
    18     4     1    2
    19    11    10    2
    20     9    10    1
    21    10    13    1
    22    10    12    1
    23     5     1    1
    24    13    14    1
    25     1     3    1
    26     1     2    1
    27    16    21    1
    28    16    15    1
    29    21    19    1
    30    14    15    1
    31    19    20    1
    32    19    17    1
    33    15    17    1
    34    17    18    1
