@<TRIPOS>MOLECULE
1n6p_GNP_A_1.pdb
 32 34 0 0 0
SMALL
GASTEIGER

@<TRIPOS>ATOM
      1  PG         1.1870   -1.2190   42.8880 P.3   200  GNP200      0.4884
      2  O1G        0.7200   -2.0360   44.0500 O.3   200  GNP200     -0.1240
      3  O2G        1.2200    0.2540   43.2350 O.3   200  GNP200     -0.1240
      4  O3G        0.4230   -1.4870   41.6300 O.2   200  GNP200     -0.2331
      5  N3B        2.8160   -1.7580   42.6610 N.3   200  GNP200     -0.0163
      6  PB         3.7840   -1.0900   41.4520 P.3   200  GNP200      0.4669
      7  O1B        3.5520   -1.7530   40.1480 O.2   200  GNP200     -0.2351
      8  O2B        3.6360    0.3990   41.5160 O.3   200  GNP200     -0.1253
      9  O3A        5.2820   -1.5090   41.9360 O.3   200  GNP200     -0.2360
     10  PA         6.4020   -0.6290   42.6500 P.3   200  GNP200      0.2220
     11  O1A        6.9080    0.4100   41.7570 O.2   200  GNP200     -0.5170
     12  O2A        5.8420   -0.2320   43.9910 O.3   200  GNP200     -0.4370
     13  O5'        7.5310   -1.6850   42.8140 O.3   200  GNP200     -0.3111
     14  C5'        7.3390   -2.8800   43.6430 C.3   200  GNP200      0.1813
     15  C4'        8.6820   -3.4310   44.0040 C.3   200  GNP200      0.1799
     16  O4'        9.4740   -3.7920   42.9090 O.3   200  GNP200     -0.3326
     17  C3'        9.5380   -2.4170   44.8070 C.3   200  GNP200      0.2158
     18  O3'       10.2250   -3.0680   45.9120 O.3   200  GNP200     -0.2175
     19  C2'       10.5390   -1.8940   43.7470 C.3   200  GNP200      0.2310
     20  O2'       11.7510   -1.4460   44.2990 O.3   200  GNP200     -0.2158
     21  C1'       10.7130   -3.1230   42.9190 C.3   200  GNP200      0.2293
     22  N9        11.0610   -2.8110   41.5180 N.pl3 200  GNP200     -0.2354
     23  C8        10.2990   -1.9420   40.6590 C.3   200  GNP200      0.2246
     24  N7        10.8500   -1.8630   39.4710 N.2   200  GNP200     -0.2322
     25  C5        12.0370   -2.7270   39.5510 C.2   200  GNP200      0.2182
     26  C6        13.0180   -3.0210   38.5490 C.1   200  GNP200      0.2372
     27  O6        13.0970   -2.6250   37.4390 O.2   200  GNP200     -0.2069
     28  N1        13.9670   -3.9060   39.0280 N.2   200  GNP200     -0.2485
     29  C2        13.8860   -4.3690   40.3340 C.1   200  GNP200      0.2531
     30  N2        14.9560   -5.2770   40.5940 N.pl3 200  GNP200     -0.0226
     31  N3        13.0530   -4.1440   41.2980 N.2   200  GNP200     -0.3074
     32  C4        12.1200   -3.2790   40.8030 C.2   200  GNP200      0.2300
@<TRIPOS>BOND
     1    27    26    2
     2    26    28    2
     3    26    25    1
     4    28    29    2
     5    24    25    2
     6    24    23    1
     7    25    32    1
     8     7     6    2
     9    29    30    1
    10    29    31    2
    11    23    22    1
    12    32    31    2
    13    32    22    1
    14     6     8    1
    15     6     9    1
    16     6     5    1
    17    22    21    1
    18     4     1    2
    19    11    10    2
    20     9    10    1
    21    10    13    1
    22    10    12    1
    23     5     1    1
    24    13    14    1
    25     1     3    1
    26     1     2    1
    27    16    21    1
    28    16    15    1
    29    21    19    1
    30    14    15    1
    31    19    20    1
    32    19    17    1
    33    15    17    1
    34    17    18    1
