@<TRIPOS>MOLECULE
1n6r_GNP_A_1.pdb
 32 34 0 0 0
SMALL
GASTEIGER

@<TRIPOS>ATOM
      1  PG         1.1900   -1.2660   42.9310 P.3   200  GNP200      0.4884
      2  O1G        0.7180   -2.0900   44.0860 O.3   200  GNP200     -0.1240
      3  O2G        1.1970    0.2070   43.2560 O.3   200  GNP200     -0.1240
      4  O3G        0.4360   -1.5510   41.6780 O.2   200  GNP200     -0.2331
      5  N3B        2.8130   -1.7860   42.6950 N.3   200  GNP200     -0.0163
      6  PB         3.7660   -1.1190   41.4860 P.3   200  GNP200      0.4669
      7  O1B        3.5220   -1.7650   40.1670 O.2   200  GNP200     -0.2351
      8  O2B        3.6430    0.3710   41.5260 O.3   200  GNP200     -0.1253
      9  O3A        5.2570   -1.5140   41.9860 O.3   200  GNP200     -0.2360
     10  PA         6.3920   -0.6110   42.6340 P.3   200  GNP200      0.2220
     11  O1A        6.9190    0.3620   41.6850 O.2   200  GNP200     -0.5170
     12  O2A        5.8380   -0.1430   43.9380 O.3   200  GNP200     -0.4370
     13  O5'        7.4940   -1.6720   42.8430 O.3   200  GNP200     -0.3111
     14  C5'        7.3310   -2.8350   43.7060 C.3   200  GNP200      0.1813
     15  C4'        8.6840   -3.4020   44.0210 C.3   200  GNP200      0.1799
     16  O4'        9.4590   -3.7770   42.9000 O.3   200  GNP200     -0.3326
     17  C3'        9.5680   -2.4050   44.7950 C.3   200  GNP200      0.2158
     18  O3'       10.2830   -3.1070   45.8410 O.3   200  GNP200     -0.2175
     19  C2'       10.5250   -1.8850   43.7320 C.3   200  GNP200      0.2310
     20  O2'       11.7410   -1.4300   44.2480 O.3   200  GNP200     -0.2158
     21  C1'       10.6820   -3.1120   42.9000 C.3   200  GNP200      0.2293
     22  N9        11.0240   -2.7990   41.5090 N.pl3 200  GNP200     -0.2354
     23  C8        10.2530   -1.9130   40.6530 C.3   200  GNP200      0.2246
     24  N7        10.8080   -1.8320   39.4660 N.2   200  GNP200     -0.2322
     25  C5        11.9880   -2.7020   39.5560 C.2   200  GNP200      0.2182
     26  C6        12.9700   -2.9880   38.5440 C.1   200  GNP200      0.2372
     27  O6        13.0430   -2.5740   37.4340 O.2   200  GNP200     -0.2069
     28  N1        13.9240   -3.8710   39.0080 N.2   200  GNP200     -0.2485
     29  C2        13.8480   -4.3400   40.3140 C.1   200  GNP200      0.2531
     30  N2        14.9390   -5.2250   40.5670 N.pl3 200  GNP200     -0.0226
     31  N3        13.0160   -4.1270   41.2750 N.2   200  GNP200     -0.3074
     32  C4        12.0740   -3.2590   40.7930 C.2   200  GNP200      0.2300
@<TRIPOS>BOND
     1    27    26    2
     2    26    28    2
     3    26    25    1
     4    28    29    2
     5    24    25    2
     6    24    23    1
     7    25    32    1
     8     7     6    2
     9    29    30    1
    10    29    31    2
    11    23    22    1
    12    32    31    2
    13    32    22    1
    14     6     8    1
    15     6     9    1
    16     6     5    1
    17    22    21    1
    18     4     1    2
    19    11    10    2
    20     9    10    1
    21    10    13    1
    22    10    12    1
    23     5     1    1
    24    13    14    1
    25    16    21    1
    26    16    15    1
    27    21    19    1
    28     1     3    1
    29     1     2    1
    30    14    15    1
    31    19    20    1
    32    19    17    1
    33    15    17    1
    34    17    18    1
