@<TRIPOS>MOLECULE
1n71_COA_A_1.pdb
 48 50 0 0 0
SMALL
GASTEIGER

@<TRIPOS>ATOM
      1  N1A       38.0180   82.7280   69.1240 N.2   601  COA601      0.0021
      2  C2A       37.5890   83.0350   67.8860 C.3   601  COA601      0.5254
      3  N3A       36.3570   83.4510   67.5150 N.2   601  COA601     -0.0055
      4  C4A       35.5160   83.5520   68.6010 C.2   601  COA601      0.3518
      5  C5A       35.8140   83.2710   69.9150 C.2   601  COA601      0.2526
      6  C6A       37.1530   82.8410   70.1830 C.2   601  COA601      0.4393
      7  N6A       37.5730   82.5380   71.4090 N.pl3 601  COA601      0.2180
      8  N7A       34.7130   83.4900   70.7290 N.2   601  COA601     -0.2095
      9  C8A       33.7890   83.8770   69.8990 C.3   601  COA601      0.3377
     10  N9A       34.2000   83.9370   68.5880 N.pl3 601  COA601     -0.1439
     11  C1B       33.4240   84.3220   67.4000 C.3   601  COA601      0.3185
     12  C2B       32.2900   83.3450   67.0770 C.3   601  COA601      0.2543
     13  O2B       32.7980   82.2890   66.2520 O.3   601  COA601     -0.2131
     14  C3B       31.2700   84.1540   66.2830 C.3   601  COA601      0.1928
     15  O3B       31.7610   84.2940   64.9390 O.3   601  COA601     -0.2673
     16  P3B       30.8400   83.9150   63.6700 P.3   601  COA601      0.5327
     17  O7A       30.4920   82.4890   63.8850 O.3   601  COA601     -0.1145
     18  O8A       31.7290   84.1620   62.5080 O.2   601  COA601     -0.2224
     19  O9A       29.6900   84.8470   63.7630 O.3   601  COA601     -0.1145
     20  C4B       31.3760   85.5230   66.9700 C.3   601  COA601      0.1795
     21  O4B       32.6920   85.5360   67.5370 O.3   601  COA601     -0.3136
     22  C5B       30.3000   85.8020   68.0290 C.3   601  COA601      0.1812
     23  O5B       30.5020   84.9690   69.1770 O.3   601  COA601     -0.3112
     24  P1A       29.4770   84.9610   70.4240 P.3   601  COA601      0.2189
     25  O1A       28.6670   83.7250   70.3580 O.2   601  COA601     -0.5170
     26  O2A       28.8110   86.2800   70.5110 O.3   601  COA601     -0.4371
     27  O3A       30.5120   84.8400   71.6450 O.3   601  COA601     -0.2703
     28  P2A       30.2420   84.2560   73.1190 P.3   601  COA601      0.2188
     29  O4A       30.7500   82.8690   73.1770 O.2   601  COA601     -0.5170
     30  O5A       28.8580   84.5510   73.5420 O.3   601  COA601     -0.4371
     31  O6A       31.2240   85.1810   73.9910 O.3   601  COA601     -0.3138
     32  CBP       33.5080   85.3900   74.8030 C.3   601  COA601      0.0645
     33  CCP       32.5880   85.3850   73.5900 C.3   601  COA601      0.1519
     34  CDP       34.9550   85.5100   74.3060 C.3   601  COA601      0.0056
     35  CEP       33.1530   86.6140   75.6980 C.3   601  COA601      0.0056
     36  CAP       33.2910   84.0290   75.5960 C.3   601  COA601      0.2312
     37  OAP       33.6520   82.8900   74.8080 O.3   601  COA601     -0.2131
     38  C9P       33.9680   84.0200   76.9780 C.2   601  COA601      0.2719
     39  O9P       33.2970   84.2090   78.0020 O.2   601  COA601     -0.2706
     40  N8P       35.2900   83.8030   76.9900 N.am  601  COA601     -0.2028
     41  C7P       36.1280   83.7550   78.1830 C.3   601  COA601      0.1248
     42  C6P       36.4190   85.1390   78.7580 C.3   601  COA601      0.1102
     43  C5P       37.5230   85.8800   78.0260 C.2   601  COA601      0.2432
     44  O5P       38.6150   85.3370   77.8180 O.2   601  COA601     -0.2733
     45  N4P       37.2350   87.1310   77.6380 N.am  601  COA601     -0.2044
     46  C3P       38.1490   88.0280   76.9220 C.3   601  COA601      0.1276
     47  C2P       38.3090   89.3650   77.6290 C.3   601  COA601      0.0920
     48  S1P       40.0230   89.9110   77.7400 S.3   601  COA601     -0.0802
@<TRIPOS>BOND
     1    18    16    2
     2    16    19    1
     3    16    17    1
     4    16    15    1
     5    15    14    1
     6    13    12    1
     7    14    20    1
     8    14    12    1
     9    20    21    1
    10    20    22    1
    11    12    11    1
    12    11    21    1
    13    11    10    1
    14     3     2    1
    15     3     4    2
    16     2     1    1
    17    22    23    1
    18    10     4    1
    19    10     9    1
    20     4     5    1
    21     1     6    2
    22    23    24    1
    23     9     8    1
    24     5     6    1
    25     5     8    2
    26     6     7    1
    27    25    24    2
    28    24    26    1
    29    24    27    1
    30    27    28    1
    31    28    29    2
    32    28    30    1
    33    28    31    1
    34    33    31    1
    35    33    32    1
    36    34    32    1
    37    32    36    1
    38    32    35    1
    39    37    36    1
    40    36    38    1
    41    46    47    1
    42    46    45    1
    43    38    40   am
    44    38    39    2
    45    40    41    1
    46    47    48    1
    47    45    43   am
    48    44    43    2
    49    43    42    1
    50    41    42    1
