@<TRIPOS>MOLECULE
1n73_III_G_1.pdb
 32 33 0 0 0
SMALL
GASTEIGER

@<TRIPOS>ATOM
      1  N         -9.6040  -31.6070    0.6840 N.3     1  GLY1       -0.1210
      2  CA        -9.8950  -33.0360    0.8990 C.3     1  GLY1        0.1956
      3  C         -8.9600  -33.8740    0.0620 C.2     1  GLY1        0.2612
      4  O         -7.9870  -33.3470   -0.4730 O.2     1  GLY1       -0.2717
      5  N         -9.2390  -35.1710   -0.0470 N.am    2  HIS2       -0.1961
      6  CA        -8.3990  -36.0410   -0.8510 C.3     2  HIS2        0.1784
      7  C         -8.9210  -35.9970   -2.2700 C.2     2  HIS2        0.2620
      8  O        -10.0440  -35.5540   -2.5050 O.2     2  HIS2       -0.2715
      9  CB        -8.4270  -37.4750   -0.3320 C.3     2  HIS2        0.0745
     10  CG        -7.4130  -38.3710   -0.9860 C.2     2  HIS2        0.0653
     11  ND1       -6.1800  -37.9160   -1.4110 N.2     2  HIS2       -0.2310
     12  CD2       -7.4310  -39.7000   -1.2490 C.3     2  HIS2        0.1683
     13  CE1       -5.4860  -38.9250   -1.9050 C.2     2  HIS2        0.1939
     14  NE2       -6.2210  -40.0190   -1.8190 N.2     2  HIS2       -0.2440
     15  N         -8.1220  -36.4580   -3.2250 N.am    3  ARG3       -0.1964
     16  CA        -8.5630  -36.4260   -4.6060 C.3     3  ARG3        0.1714
     17  C         -8.6740  -37.7990   -5.2790 C.2     3  ARG3        0.2458
     18  O         -8.5780  -37.8940   -6.4990 O.2     3  ARG3       -0.2730
     19  CB        -7.6210  -35.5270   -5.4040 C.3     3  ARG3        0.0347
     20  CG        -8.3100  -34.8540   -6.5800 C.3     3  ARG3        0.0492
     21  CD        -8.3310  -33.3380   -6.4360 C.3     3  ARG3        0.2205
     22  NE        -8.8070  -32.9270   -5.1220 N.pl3   3  ARG3       -0.0865
     23  CZ        -9.0040  -31.6670   -4.7590 C.cat   3  ARG3        0.5346
     24  NH1       -8.7730  -30.6790   -5.6150 N.pl3   3  ARG3        0.1354
     25  NH2       -9.4220  -31.3970   -3.5300 N.pl3   3  ARG3        0.1354
     26  N         -8.9500  -38.8650   -4.5010 N.am    4  PRO4       -0.2727
     27  CA        -9.0610  -40.2190   -5.0570 C.3     4  PRO4        0.1402
     28  C         -9.1520  -40.2700   -6.5690 C.2     4  PRO4        0.2269
     29  O        -10.2810  -40.4080   -7.0870 O.2     4  PRO4       -0.2865
     30  CB       -10.3050  -40.7730   -4.3730 C.3     4  PRO4        0.0296
     31  CG       -10.1650  -40.2200   -2.9980 C.3     4  PRO4        0.0237
     32  CD        -9.7700  -38.7650   -3.2750 C.3     4  PRO4        0.0939
@<TRIPOS>BOND
     1    29    28    2
     2    20    21    1
     3    20    19    1
     4    28    27    1
     5    18    17    2
     6    21    22    1
     7    24    23    1
     8    19    16    1
     9    17    16    1
    10    17    26   am
    11    22    23    2
    12    27    26    1
    13    27    30    1
    14    23    25    1
    15    16    15    1
    16    26    32    1
    17    30    31    1
    18    32    31    1
    19    15     7   am
    20     8     7    2
    21     7     6    1
    22    13    14    2
    23    13    11    1
    24    14    12    1
    25    11    10    2
    26    12    10    1
    27    10     9    1
    28     6     9    1
    29     6     5    1
    30     4     3    2
    31     5     3   am
    32     3     2    1
    33     1     2    1
