@<TRIPOS>MOLECULE
1n75_ATP_A_1.pdb
 31 33 0 0 0
SMALL
GASTEIGER

@<TRIPOS>ATOM
      1  PG        35.6660    1.8170   47.5510 P.3   501  ATP501      0.5373
      2  O1G       36.7000    2.1040   48.6280 O.3   501  ATP501     -0.1143
      3  O2G       34.3850    2.5660   47.8520 O.3   501  ATP501     -0.1143
      4  O3G       35.3720    0.3270   47.5120 O.2   501  ATP501     -0.2221
      5  PB        36.9830    3.7040   45.8730 P.3   501  ATP501      0.2277
      6  O1B       37.4520    4.2290   47.1830 O.3   501  ATP501     -0.4368
      7  O2B       36.0800    4.5220   45.0230 O.2   501  ATP501     -0.5168
      8  O3B       36.2460    2.2690   46.0960 O.3   501  ATP501     -0.2258
      9  PA        39.5900    2.5910   45.5950 P.3   501  ATP501      0.2189
     10  O1A       39.2880    2.2840   47.0170 O.3   501  ATP501     -0.4371
     11  O2A       39.9260    1.4900   44.6600 O.2   501  ATP501     -0.5170
     12  O3A       38.2860    3.3400   44.9600 O.3   501  ATP501     -0.2700
     13  O5'       40.7380    3.6900   45.5210 O.3   501  ATP501     -0.3112
     14  C5'       41.4310    3.9390   44.3000 C.3   501  ATP501      0.1813
     15  C4'       42.2600    5.1940   44.4200 C.3   501  ATP501      0.1821
     16  O4'       41.3840    6.3540   44.3570 O.3   501  ATP501     -0.3135
     17  C3'       43.0620    5.3420   45.7090 C.3   501  ATP501      0.2184
     18  O3'       44.2900    6.0140   45.4480 O.3   501  ATP501     -0.2174
     19  C2'       42.1460    6.1960   46.5780 C.3   501  ATP501      0.2570
     20  O2'       42.8320    6.9290   47.5740 O.3   501  ATP501     -0.2130
     21  C1'       41.5280    7.1270   45.5360 C.3   501  ATP501      0.3186
     22  N9        40.2030    7.6210   45.9080 N.pl3 501  ATP501     -0.1439
     23  C8        39.0760    6.8760   46.1540 C.3   501  ATP501      0.3377
     24  N7        38.0200    7.5950   46.4440 N.2   501  ATP501     -0.2095
     25  C5        38.4810    8.9000   46.3870 C.2   501  ATP501      0.2526
     26  C6        37.8420   10.1340   46.5920 C.2   501  ATP501      0.4393
     27  N6        36.5410   10.2530   46.8860 N.pl3 501  ATP501      0.2180
     28  N1        38.5890   11.2550   46.4780 N.2   501  ATP501      0.0021
     29  C2        39.8910   11.1300   46.1670 C.3   501  ATP501      0.5254
     30  N3        40.6010   10.0240   45.9390 N.2   501  ATP501     -0.0055
     31  C4        39.8280    8.9320   46.0670 C.2   501  ATP501      0.3518
@<TRIPOS>BOND
     1    14    15    1
     2    14    13    1
     3    16    15    1
     4    16    21    1
     5    15    17    1
     6    11     9    2
     7    12     9    1
     8    12     5    1
     9     7     5    2
    10    18    17    1
    11    13     9    1
    12    21    22    1
    13    21    19    1
    14     9    10    1
    15    17    19    1
    16     5     8    1
    17     5     6    1
    18    22    31    1
    19    22    23    1
    20    30    31    2
    21    30    29    1
    22    31    25    1
    23     8     1    1
    24    23    24    1
    25    29    28    1
    26    25    24    2
    27    25    26    1
    28    28    26    2
    29    19    20    1
    30    26    27    1
    31     4     1    2
    32     1     3    1
    33     1     2    1
