@<TRIPOS>MOLECULE
1n77_ATP_A_1.pdb
 31 33 0 0 0
SMALL
GASTEIGER

@<TRIPOS>ATOM
      1  PG        40.3070   79.6550   58.4500 P.3   600  ATP600      0.5373
      2  O1G       39.1220   80.4750   57.9540 O.2   600  ATP600     -0.2221
      3  O2G       40.2500   79.5620   59.9690 O.3   600  ATP600     -0.1143
      4  O3G       41.6040   80.3370   58.0370 O.3   600  ATP600     -0.1143
      5  PB        38.9690   77.6240   56.9490 P.3   600  ATP600      0.2277
      6  O1B       38.1810   78.8090   56.5120 O.2   600  ATP600     -0.5168
      7  O2B       38.3120   76.5360   57.7210 O.3   600  ATP600     -0.4368
      8  O3B       40.2560   78.1510   57.8090 O.3   600  ATP600     -0.2258
      9  PA        39.9010   77.8170   54.2660 P.3   600  ATP600      0.2189
     10  O1A       40.0870   79.2350   54.6760 O.3   600  ATP600     -0.4371
     11  O2A       40.9870   77.1160   53.5290 O.2   600  ATP600     -0.5170
     12  O3A       39.6160   76.9410   55.6150 O.3   600  ATP600     -0.2700
     13  O5'       38.5470   77.7080   53.4280 O.3   600  ATP600     -0.3112
     14  C5'       38.5570   77.2210   52.0860 C.3   600  ATP600      0.1813
     15  C4'       37.1960   77.3840   51.4400 C.3   600  ATP600      0.1821
     16  O4'       36.2410   76.5450   52.1500 O.3   600  ATP600     -0.3135
     17  C3'       36.6400   78.8020   51.5350 C.3   600  ATP600      0.2184
     18  O3'       36.3760   79.5210   50.3320 O.3   600  ATP600     -0.2174
     19  C2'       35.6500   78.8260   52.6970 C.3   600  ATP600      0.2570
     20  O2'       34.4580   79.4760   52.3030 O.3   600  ATP600     -0.2130
     21  C1'       35.3170   77.3400   52.8800 C.3   600  ATP600      0.3186
     22  N9        35.2520   76.8630   54.2700 N.pl3 600  ATP600     -0.1439
     23  C8        36.1330   77.1020   55.2970 C.3   600  ATP600      0.3377
     24  N7        35.7830   76.5500   56.4370 N.2   600  ATP600     -0.2095
     25  C5        34.5910   75.8990   56.1420 C.2   600  ATP600      0.2526
     26  C6        33.7060   75.1260   56.9300 C.2   600  ATP600      0.4393
     27  N6        33.8900   74.8770   58.2310 N.pl3 600  ATP600      0.2180
     28  N1        32.6080   74.6150   56.3250 N.2   600  ATP600      0.0021
     29  C2        32.4170   74.8720   55.0250 C.3   600  ATP600      0.5254
     30  N3        33.1680   75.5860   54.1850 N.2   600  ATP600     -0.0055
     31  C4        34.2540   76.0780   54.8110 C.2   600  ATP600      0.3518
@<TRIPOS>BOND
     1    18    17    1
     2    15    17    1
     3    15    14    1
     4    15    16    1
     5    17    19    1
     6    14    13    1
     7    16    21    1
     8    20    19    1
     9    19    21    1
    10    21    22    1
    11    13     9    1
    12    11     9    2
    13    30    31    2
    14    30    29    1
    15     9    10    1
    16     9    12    1
    17    22    31    1
    18    22    23    1
    19    31    25    1
    20    29    28    1
    21    23    24    1
    22    12     5    1
    23    25    24    2
    24    25    26    1
    25    28    26    2
    26     6     5    2
    27    26    27    1
    28     5     7    1
    29     5     8    1
    30     8     1    1
    31     2     1    2
    32     4     1    1
    33     1     3    1
