@<TRIPOS>MOLECULE
1n78_GOM_A_1.pdb
 31 33 0 0 0
SMALL
GASTEIGER

@<TRIPOS>ATOM
      1  N         40.6320   82.2840   52.6680 N.3   600  GOM600     -0.1302
      2  C         38.6910   80.7840   52.9210 C.3   600  GOM600      0.1680
      3  CA        39.1760   82.2100   52.6240 C.3   600  GOM600      0.1223
      4  CB        38.6810   82.6540   51.2460 C.3   600  GOM600      0.0334
      5  CG        37.1740   82.5960   51.0790 C.3   600  GOM600      0.1156
      6  CD        36.7160   83.1160   49.7370 C.2   600  GOM600      0.3649
      7  OE1       36.6800   84.3530   49.5350 O.co2 600  GOM600     -0.2457
      8  OE2       36.3970   82.2750   48.8810 O.co2 600  GOM600     -0.2457
      9  P         39.2380   78.7100   54.4500 P.3   600  GOM600      0.2141
     10  OP1       40.4250   77.9060   54.0540 O.2   600  GOM600     -0.5172
     11  OP2       38.8310   78.7530   55.8850 O.3   600  GOM600     -0.4373
     12  OP3       39.4890   80.2040   53.9490 O.3   600  GOM600     -0.3125
     13  O5'       37.9720   78.2140   53.6180 O.3   600  GOM600     -0.3114
     14  C5'       38.1180   77.5480   52.3690 C.3   600  GOM600      0.1813
     15  C4'       36.7640   77.3810   51.6910 C.3   600  GOM600      0.1821
     16  O4'       35.9530   76.4390   52.4560 O.3   600  GOM600     -0.3135
     17  C1'       34.8460   77.1100   53.0310 C.3   600  GOM600      0.3186
     18  N9        34.5460   76.5950   54.3680 N.pl3 600  GOM600     -0.1439
     19  C4        33.4540   75.8120   54.6420 C.2   600  GOM600      0.3518
     20  N3        32.5390   75.3590   53.7600 N.2   600  GOM600     -0.0055
     21  C2        31.5960   74.6560   54.3830 C.3   600  GOM600      0.5254
     22  N1        31.4750   74.3750   55.6880 N.2   600  GOM600      0.0021
     23  C6        32.4160   74.8420   56.5430 C.2   600  GOM600      0.4393
     24  N6        32.2910   74.5580   57.8370 N.pl3 600  GOM600      0.2180
     25  C5        33.4690   75.6020   56.0070 C.2   600  GOM600      0.2526
     26  N7        34.5720   76.2190   56.5850 N.2   600  GOM600     -0.2095
     27  C8        35.1830   76.7840   55.5700 C.3   600  GOM600      0.3377
     28  C2'       34.9890   78.6220   52.8460 C.3   600  GOM600      0.2570
     29  O2'       33.7290   79.1550   52.4970 O.3   600  GOM600     -0.2130
     30  C3'       35.9790   78.6960   51.6850 C.3   600  GOM600      0.2184
     31  O3'       35.5120   79.1800   50.4270 O.3   600  GOM600     -0.2174
@<TRIPOS>BOND
     1     8     6   ar
     2     7     6   ar
     3     6     5    1
     4    31    30    1
     5     5     4    1
     6     4     3    1
     7    30    15    1
     8    30    28    1
     9    15    14    1
    10    15    16    1
    11    14    13    1
    12    16    17    1
    13    29    28    1
    14     3     1    1
    15     3     2    1
    16    28    17    1
    17     2    12    1
    18    17    18    1
    19    13     9    1
    20    20    21    1
    21    20    19    2
    22    12     9    1
    23    10     9    2
    24    18    19    1
    25    18    27    1
    26    21    22    1
    27     9    11    1
    28    19    25    1
    29    27    26    1
    30    22    23    2
    31    25    23    1
    32    25    26    2
    33    23    24    1
