@<TRIPOS>MOLECULE
1n7g_GDR_A_1.pdb
 38 41 0 0 0
SMALL
GASTEIGER

@<TRIPOS>ATOM
      1  PB         1.8910   27.7210   40.1420 P.3   801  GDR801      0.2208
      2  O3A        1.3550   26.1970   40.3440 O.3   801  GDR801     -0.2703
      3  O1B        2.6430   28.1520   41.3940 O.3   801  GDR801     -0.4371
      4  O2B        0.6960   28.6380   39.8950 O.2   801  GDR801     -0.5170
      5  O3B        2.8220   27.7200   38.9330 O.3   801  GDR801     -0.2857
      6  PA         0.9640   25.2460   41.6090 P.3   801  GDR801      0.2189
      7  O1A       -0.0370   24.2590   41.1320 O.2   801  GDR801     -0.5170
      8  O2A        2.2130   24.7540   42.2500 O.3   801  GDR801     -0.4371
      9  O5D        0.2630   26.2190   42.6610 O.3   801  GDR801     -0.3112
     10  C5D       -0.9370   26.9160   42.3310 C.3   801  GDR801      0.1813
     11  C4D       -1.4670   27.6580   43.5370 C.3   801  GDR801      0.1799
     12  O4D       -1.9660   26.6980   44.5190 O.3   801  GDR801     -0.3326
     13  C1D       -1.2640   26.8690   45.7330 C.3   801  GDR801      0.2293
     14  N9        -1.1900   25.5820   46.4250 N.pl3 801  GDR801     -0.2354
     15  C4        -0.2290   24.6020   46.2600 C.2   801  GDR801      0.2300
     16  N3         0.6670   24.5270   45.2510 N.2   801  GDR801     -0.3074
     17  C2         1.4460   23.4600   45.3610 C.1   801  GDR801      0.2531
     18  N2         2.3850   23.2200   44.4380 N.pl3 801  GDR801     -0.0226
     19  N1         1.3620   22.5480   46.3830 N.2   801  GDR801     -0.2485
     20  C6         0.4530   22.6040   47.4310 C.1   801  GDR801      0.2372
     21  O6         0.4670   21.7260   48.3040 O.2   801  GDR801     -0.2069
     22  C5        -0.3990   23.7370   47.3240 C.2   801  GDR801      0.2182
     23  N7        -1.4410   24.1570   48.1380 N.2   801  GDR801     -0.2322
     24  C8        -1.8810   25.2470   47.5660 C.3   801  GDR801      0.2246
     25  C2D        0.0520   27.5320   45.3480 C.3   801  GDR801      0.2310
     26  O2D        0.5930   28.2020   46.4680 O.3   801  GDR801     -0.2158
     27  C3D       -0.4420   28.5070   44.2860 C.3   801  GDR801      0.2158
     28  O3D       -1.0950   29.6000   44.9150 O.3   801  GDR801     -0.2175
     29  C1'        2.5120   26.9390   37.7790 C.3   801  GDR801      0.2741
     30  C2'        3.7990   26.3580   37.1740 C.3   801  GDR801      0.2409
     31  O2'        3.4590   25.4310   36.1580 O.3   801  GDR801     -0.2149
     32  C3'        4.6570   27.4740   36.5750 C.3   801  GDR801      0.2197
     33  O3'        5.7880   26.9180   35.9220 O.3   801  GDR801     -0.2174
     34  C4'        3.8320   28.2700   35.5720 C.3   801  GDR801      0.2118
     35  O4'        4.6000   29.3520   35.0730 O.3   801  GDR801     -0.2177
     36  C5'        2.5560   28.7960   36.2440 C.3   801  GDR801      0.1508
     37  O5'        1.7880   27.6970   36.7940 O.3   801  GDR801     -0.3281
     38  C6'        1.6560   29.5190   35.2590 C.3   801  GDR801      0.0350
@<TRIPOS>BOND
     1    35    34    1
     2    38    36    1
     3    34    36    1
     4    34    32    1
     5    33    32    1
     6    31    30    1
     7    36    37    1
     8    32    30    1
     9    37    29    1
    10    30    29    1
    11    29     5    1
    12     5     1    1
    13     4     1    2
    14     1     2    1
    15     1     3    1
    16     2     6    1
    17     7     6    2
    18     6     8    1
    19     6     9    1
    20    10     9    1
    21    10    11    1
    22    11    27    1
    23    11    12    1
    24    27    28    1
    25    27    25    1
    26    18    17    1
    27    12    13    1
    28    16    17    2
    29    16    15    2
    30    25    13    1
    31    25    26    1
    32    17    19    2
    33    13    14    1
    34    15    14    1
    35    15    22    1
    36    19    20    2
    37    14    24    1
    38    22    20    1
    39    22    23    2
    40    20    21    2
    41    24    23    1
