@<TRIPOS>MOLECULE
1n7g_NDP_A_1.pdb
 48 52 0 0 0
SMALL
GASTEIGER

@<TRIPOS>ATOM
      1  PA         7.8280   20.7700   33.3410 P.3   701  NDP701      0.2189
      2  O1A        8.4930   21.1080   34.6240 O.3   701  NDP701     -0.4371
      3  O2A        6.9240   19.5960   33.2790 O.2   701  NDP701     -0.5170
      4  O5B        8.9360   20.5270   32.2330 O.3   701  NDP701     -0.3112
      5  C5B       10.1710   21.2300   32.2580 C.3   701  NDP701      0.1813
      6  C4B       11.0700   20.6860   31.1830 C.3   701  NDP701      0.1820
      7  O4B       12.3140   21.4470   31.1770 O.3   701  NDP701     -0.3136
      8  C3B       11.4880   19.2310   31.3950 C.3   701  NDP701      0.2157
      9  O3B       11.6820   18.6190   30.1250 O.3   701  NDP701     -0.2175
     10  C2B       12.8200   19.4050   32.1160 C.3   701  NDP701      0.2314
     11  O2B       13.6860   18.2850   32.0520 O.3   701  NDP701     -0.2630
     12  C1B       13.3980   20.5520   31.2980 C.3   701  NDP701      0.3158
     13  N9A       14.5000   21.2450   31.9560 N.pl3 701  NDP701     -0.1439
     14  C8A       14.5480   21.7660   33.2230 C.3   701  NDP701      0.3377
     15  N7A       15.7190   22.2520   33.5500 N.2   701  NDP701     -0.2095
     16  C5A       16.4950   22.0340   32.4200 C.2   701  NDP701      0.2526
     17  C6A       17.8340   22.3320   32.1160 C.2   701  NDP701      0.4393
     18  N6A       18.6770   22.9210   32.9700 N.pl3 701  NDP701      0.2180
     19  N1A       18.2870   21.9980   30.8870 N.2   701  NDP701      0.0021
     20  C2A       17.4470   21.4020   30.0360 C.3   701  NDP701      0.5254
     21  N3A       16.1760   21.0650   30.2070 N.2   701  NDP701     -0.0055
     22  C4A       15.7560   21.4140   31.4320 C.2   701  NDP701      0.3518
     23  O3         7.0390   22.0880   32.8200 O.3   701  NDP701     -0.2703
     24  PN         5.7450   22.3730   31.8810 P.3   701  NDP701      0.2189
     25  O1N        4.4970   22.2220   32.7250 O.3   701  NDP701     -0.4371
     26  O2N        5.7480   21.3650   30.7490 O.2   701  NDP701     -0.5170
     27  O5D        5.8660   23.7910   31.3430 O.3   701  NDP701     -0.3112
     28  C5D        6.5330   24.0440   30.1130 C.3   701  NDP701      0.1813
     29  C4D        7.1770   25.4090   30.1290 C.3   701  NDP701      0.1799
     30  O4D        6.1620   26.4420   30.2150 O.3   701  NDP701     -0.3327
     31  C3D        8.1260   25.6850   31.2880 C.3   701  NDP701      0.2158
     32  O3D        9.0750   26.6560   30.8680 O.3   701  NDP701     -0.2175
     33  C2D        7.1950   26.2900   32.3320 C.3   701  NDP701      0.2309
     34  O2D        7.8800   27.1260   33.2440 O.3   701  NDP701     -0.2158
     35  C1D        6.3000   27.1380   31.4380 C.3   701  NDP701      0.2263
     36  N1N        4.9570   27.4450   31.9390 N.pl3 701  NDP701     -0.2787
     37  C2N        4.2110   26.5360   32.6200 C.3   701  NDP701      0.1244
     38  C3N        2.9350   26.7410   32.9360 C.2   701  NDP701      0.0544
     39  C7N        2.1460   25.6910   33.2600 C.2   701  NDP701      0.2818
     40  O7N        1.0240   25.7960   33.7560 O.2   701  NDP701     -0.2670
     41  N7N        2.6420   24.4880   32.9600 N.am  701  NDP701     -0.0839
     42  C4N        2.3580   27.9210   32.6120 C.2   701  NDP701      0.0033
     43  C5N        3.1260   28.9360   32.0900 C.2   701  NDP701      0.0157
     44  C6N        4.4240   28.7020   31.7460 C.2   701  NDP701      0.0633
     45  P2B       13.6500   17.2060   33.0880 P.3   701  NDP701      0.5328
     46  O1X       15.0260   16.5700   33.1500 O.3   701  NDP701     -0.1145
     47  O2X       13.3050   17.7800   34.4570 O.3   701  NDP701     -0.1145
     48  O3X       12.6300   16.1420   32.7340 O.2   701  NDP701     -0.2224
@<TRIPOS>BOND
     1    20    21    1
     2    20    19    1
     3    28    29    1
     4    28    27    1
     5     9     8    1
     6    29    30    1
     7    29    31    1
     8    21    22    2
     9    30    35    1
    10    26    24    2
    11    32    31    1
    12    19    17    2
    13     7     6    1
    14     7    12    1
    15     6     8    1
    16     6     5    1
    17    31    33    1
    18    12    13    1
    19    12    10    1
    20    27    24    1
    21     8    10    1
    22    22    13    1
    23    22    16    1
    24    35    36    1
    25    35    33    1
    26    44    36    1
    27    44    43    2
    28    24    25    1
    29    24    23    1
    30    36    37    1
    31    13    14    1
    32    11    10    1
    33    11    45    1
    34    43    42    1
    35    17    16    1
    36    17    18    1
    37     4     5    1
    38     4     1    1
    39    33    34    1
    40    16    15    2
    41    42    38    2
    42    37    38    1
    43    48    45    2
    44    23     1    1
    45    38    39    1
    46    41    39   am
    47    45    46    1
    48    45    47    1
    49    14    15    1
    50    39    40    2
    51     3     1    2
    52     1     2    1
