@<TRIPOS>MOLECULE
1n7h_GDP_A_1.pdb
 28 30 0 0 0
SMALL
GASTEIGER

@<TRIPOS>ATOM
      1  PB        55.5340   43.3680    1.4480 P.3   602  GDP602      0.5373
      2  O1B       55.4840   42.2140    2.4370 O.3   602  GDP602     -0.1143
      3  O2B       55.6960   44.7660    2.0320 O.3   602  GDP602     -0.1143
      4  O3B       56.2240   43.0960    0.1130 O.2   602  GDP602     -0.2221
      5  O3A       53.9570   43.4210    1.0300 O.3   602  GDP602     -0.2261
      6  PA        52.8290   44.5830    0.8490 P.3   602  GDP602      0.2231
      7  O1A       51.7860   44.0180   -0.0490 O.2   602  GDP602     -0.5169
      8  O2A       52.4280   45.1330    2.1650 O.3   602  GDP602     -0.4370
      9  O5'       53.5380   45.7760    0.0670 O.3   602  GDP602     -0.3111
     10  C5'       54.1300   45.5500   -1.2060 C.3   602  GDP602      0.1813
     11  C4'       54.7080   46.8320   -1.7530 C.3   602  GDP602      0.1799
     12  O4'       53.6110   47.7120   -2.1260 O.3   602  GDP602     -0.3326
     13  C3'       55.5800   47.6250   -0.7740 C.3   602  GDP602      0.2158
     14  O3'       56.6840   48.2100   -1.4620 O.3   602  GDP602     -0.2175
     15  C2'       54.6260   48.7110   -0.2770 C.3   602  GDP602      0.2310
     16  O2'       55.3180   49.8910    0.1080 O.3   602  GDP602     -0.2158
     17  C1'       53.8230   48.9810   -1.5440 C.3   602  GDP602      0.2293
     18  N9        52.5270   49.6330   -1.3710 N.pl3 602  GDP602     -0.2354
     19  C8        52.0910   50.7560   -2.0340 C.3   602  GDP602      0.2246
     20  N7        50.9610   51.2170   -1.5760 N.2   602  GDP602     -0.2322
     21  C5        50.6260   50.3510   -0.5460 C.2   602  GDP602      0.2182
     22  C6        49.4970   50.3400    0.3110 C.1   602  GDP602      0.2372
     23  O6        48.5500   51.1380    0.3500 O.2   602  GDP602     -0.2069
     24  N1        49.5360   49.2640    1.1980 N.2   602  GDP602     -0.2485
     25  C2        50.5370   48.3250    1.2530 C.1   602  GDP602      0.2531
     26  N2        50.3780   47.3470    2.1560 N.pl3 602  GDP602     -0.0226
     27  N3        51.6060   48.3370    0.4730 N.2   602  GDP602     -0.3074
     28  C4        51.5820   49.3680   -0.4020 C.2   602  GDP602      0.2300
@<TRIPOS>BOND
     1    12    11    1
     2    12    17    1
     3    19    20    1
     4    19    18    1
     5    11    10    1
     6    11    13    1
     7    20    21    2
     8    17    18    1
     9    17    15    1
    10    14    13    1
    11    18    28    1
    12    10     9    1
    13    13    15    1
    14    21    28    1
    15    21    22    1
    16    28    27    2
    17    15    16    1
    18     7     6    2
    19     9     6    1
    20     4     1    2
    21    22    23    2
    22    22    24    2
    23    27    25    2
    24     6     5    1
    25     6     8    1
    26     5     1    1
    27    24    25    2
    28    25    26    1
    29     1     3    1
    30     1     2    1
