@<TRIPOS>MOLECULE
1n7h_NDP_A_1.pdb
 48 52 0 0 0
SMALL
GASTEIGER

@<TRIPOS>ATOM
      1  PA        49.1020   35.6820    7.7160 P.3   601  NDP601      0.2189
      2  O1A       49.3190   37.0290    8.3120 O.3   601  NDP601     -0.4371
      3  O2A       47.9220   35.4640    6.8380 O.2   601  NDP601     -0.5170
      4  O5B       48.9630   34.6260    8.8900 O.3   601  NDP601     -0.3112
      5  C5B       49.7690   34.6930   10.0550 C.3   601  NDP601      0.1813
      6  C4B       49.3920   33.5620   10.9770 C.3   601  NDP601      0.1820
      7  O4B       50.1950   33.6530   12.1940 O.3   601  NDP601     -0.3136
      8  C3B       47.9390   33.6070   11.4590 C.3   601  NDP601      0.2157
      9  O3B       47.5090   32.2680   11.6910 O.3   601  NDP601     -0.2175
     10  C2B       48.0870   34.3590   12.7800 C.3   601  NDP601      0.2314
     11  O2B       46.9850   34.2520   13.6810 O.3   601  NDP601     -0.2630
     12  C1B       49.3320   33.6530   13.3180 C.3   601  NDP601      0.3158
     13  N9A       50.0190   34.3160   14.4310 N.pl3 601  NDP601     -0.1439
     14  C8A       50.4000   35.6310   14.5300 C.3   601  NDP601      0.3377
     15  N7A       50.9330   35.9420   15.6910 N.2   601  NDP601     -0.2095
     16  C5A       50.8970   34.7490   16.4040 C.2   601  NDP601      0.2526
     17  C6A       51.3090   34.4100   17.7100 C.2   601  NDP601      0.4393
     18  N6A       51.8450   35.2770   18.5670 N.pl3 601  NDP601      0.2180
     19  N1A       51.1420   33.1330   18.1110 N.2   601  NDP601      0.0021
     20  C2A       50.5910   32.2600   17.2540 C.3   601  NDP601      0.5254
     21  N3A       50.1610   32.4570   16.0090 N.2   601  NDP601     -0.0055
     22  C4A       50.3420   33.7400   15.6400 C.2   601  NDP601      0.3518
     23  O3        50.4310   35.2160    6.9020 O.3   601  NDP601     -0.2703
     24  PN        50.7210   34.3280    5.5690 P.3   601  NDP601      0.2189
     25  O1N       50.4160   35.3090    4.4610 O.2   601  NDP601     -0.5170
     26  O2N       49.7400   33.1890    5.7580 O.3   601  NDP601     -0.4371
     27  O5D       52.1880   33.9700    5.7500 O.3   601  NDP601     -0.3112
     28  C5D       52.5570   32.7480    6.3860 C.3   601  NDP601      0.1813
     29  C4D       53.9760   32.8400    6.8880 C.3   601  NDP601      0.1799
     30  O4D       54.8660   33.0680    5.7640 O.3   601  NDP601     -0.3327
     31  C3D       54.2380   33.9860    7.8590 C.3   601  NDP601      0.2158
     32  O3D       55.2990   33.6090    8.7300 O.3   601  NDP601     -0.2175
     33  C2D       54.6900   35.1180    6.9420 C.3   601  NDP601      0.2309
     34  O2D       55.5230   36.0110    7.6690 O.3   601  NDP601     -0.2158
     35  C1D       55.4950   34.3290    5.9090 C.3   601  NDP601      0.2263
     36  N1N       55.7220   34.8650    4.5580 N.pl3 601  NDP601     -0.2787
     37  C2N       54.6980   35.4280    3.7970 C.3   601  NDP601      0.1244
     38  C3N       54.8520   35.8590    2.5340 C.2   601  NDP601      0.0544
     39  C7N       53.7540   36.1480    1.7870 C.2   601  NDP601      0.2818
     40  O7N       53.7980   36.7410    0.7080 O.2   601  NDP601     -0.2670
     41  N7N       52.5870   35.6970    2.2620 N.am  601  NDP601     -0.0839
     42  C4N       56.2250   35.8450    1.8910 C.2   601  NDP601      0.0033
     43  C5N       57.2010   34.9670    2.6820 C.2   601  NDP601      0.0157
     44  C6N       56.9360   34.5460    3.9450 C.2   601  NDP601      0.0633
     45  P2B       45.8540   35.2660   13.7300 P.3   601  NDP601      0.5328
     46  O1X       45.3620   35.0490   15.1560 O.3   601  NDP601     -0.1145
     47  O2X       46.4660   36.6330   13.4650 O.3   601  NDP601     -0.1145
     48  O3X       44.9210   34.7520   12.6350 O.2   601  NDP601     -0.2224
@<TRIPOS>BOND
     1    40    39    2
     2    39    41   am
     3    39    38    1
     4    42    38    2
     5    42    43    1
     6    38    37    1
     7    43    44    2
     8    37    36    1
     9    44    36    1
    10    25    24    2
    11    36    35    1
    12    24    27    1
    13    24    26    1
    14    24    23    1
    15    27    28    1
    16    30    35    1
    17    30    29    1
    18    35    33    1
    19    28    29    1
    20     3     1    2
    21    29    31    1
    22    23     1    1
    23    33    34    1
    24    33    31    1
    25     1     2    1
    26     1     4    1
    27    31    32    1
    28     4     5    1
    29     5     6    1
    30     6     8    1
    31     6     7    1
    32     8     9    1
    33     8    10    1
    34     7    12    1
    35    48    45    2
    36    10    12    1
    37    10    11    1
    38    12    13    1
    39    47    45    1
    40    11    45    1
    41    45    46    1
    42    13    14    1
    43    13    22    1
    44    14    15    1
    45    22    21    2
    46    22    16    1
    47    15    16    2
    48    21    20    1
    49    16    17    1
    50    20    19    1
    51    17    19    2
    52    17    18    1
