@<TRIPOS>MOLECULE
1n7i_LY1_A_1.pdb
 13 14 0 0 0
SMALL
GASTEIGER

@<TRIPOS>ATOM
      1  C1        28.7410   42.9880   18.6050 C.3   3002  LY13002     0.1155
      2  N1        30.2040   42.9620   18.9620 N.3   3002  LY13002    -0.2133
      3  C2        30.5990   44.0970   19.8420 C.3   3002  LY13002     0.0894
      4  C3        30.5780   45.4320   19.1100 C.3   3002  LY13002     0.0235
      5  C4        29.1820   45.8330   18.6630 C.3   3002  LY13002     0.0276
      6  C4A       28.7280   45.1740   17.3900 C.ar  3002  LY13002    -0.0239
      7  C5        28.5330   45.9550   16.2670 C.ar  3002  LY13002    -0.0036
      8  C6        28.1150   45.3690   15.0850 C.ar  3002  LY13002     0.0119
      9  C7        27.8760   43.9940   15.0050 C.ar  3002  LY13002     0.0679
     10  C8        28.0670   43.1600   16.1520 C.ar  3002  LY13002     0.0653
     11  C8A       28.5030   43.7870   17.3460 C.ar  3002  LY13002     0.0027
     12 CL1        27.4610   43.4860   13.6900 Cl    3002  LY13002    -0.0814
     13 CL2        27.7990   41.6700   16.1480 Cl    3002  LY13002    -0.0817
@<TRIPOS>BOND
     1    12     9    1
     2     9     8   ar
     3     9    10   ar
     4     8     7   ar
     5    13    10    1
     6    10    11   ar
     7     7     6   ar
     8    11     6   ar
     9    11     1    1
    10     6     5    1
    11     1     2    1
    12     5     4    1
    13     2     3    1
    14     4     3    1
