@<TRIPOS>MOLECULE
1n7i_SAH_A_1.pdb
 26 28 0 0 0
SMALL
GASTEIGER

@<TRIPOS>ATOM
      1  N         27.0230   52.6680   18.4350 N.3   2002  SAH2002    -0.1245
      2  CA        28.3760   52.4130   17.9210 C.3   2002  SAH2002     0.1844
      3  CB        29.4190   52.0220   18.9660 C.3   2002  SAH2002     0.0388
      4  CG        28.9760   51.0000   19.9810 C.3   2002  SAH2002     0.0594
      5  SD        30.4250   50.6820   21.0030 S.3   2002  SAH2002    -0.1376
      6  C         28.2050   51.3310   16.8460 C.3   2002  SAH2002     0.4429
      7  O         27.0010   50.9480   16.6510 O.2   2002  SAH2002    -0.2654
      8  OXT       28.9520   50.2830   16.9960 O.2   2002  SAH2002    -0.2654
      9  C5'       30.0790   51.3040   22.6700 C.3   2002  SAH2002     0.0899
     10  C4'       30.3690   52.8090   22.7890 C.3   2002  SAH2002     0.1630
     11  O4'       30.1030   53.2570   24.1020 O.3   2002  SAH2002    -0.3153
     12  C3'       31.8090   53.1610   22.5530 C.3   2002  SAH2002     0.2168
     13  O3'       31.9620   54.0300   21.4300 O.3   2002  SAH2002    -0.2175
     14  C2'       32.2360   53.8250   23.8400 C.3   2002  SAH2002     0.2569
     15  O2'       33.1970   54.8430   23.6520 O.3   2002  SAH2002    -0.2130
     16  C1'       30.9600   54.3700   24.3570 C.3   2002  SAH2002     0.3185
     17  N9        30.9710   54.5770   25.7810 N.pl3 2002  SAH2002    -0.1439
     18  C8        31.8770   54.0820   26.7400 C.3   2002  SAH2002     0.3377
     19  N7        31.6060   54.4580   27.9430 N.2   2002  SAH2002    -0.2095
     20  C5        30.4600   55.2440   27.7860 C.2   2002  SAH2002     0.2526
     21  C6        29.6680   55.9510   28.7090 C.2   2002  SAH2002     0.4393
     22  N6        29.9320   55.9640   30.0190 N.pl3 2002  SAH2002     0.2180
     23  N1        28.5840   56.6390   28.1950 N.2   2002  SAH2002     0.0021
     24  C2        28.2880   56.6520   26.8700 C.3   2002  SAH2002     0.5254
     25  N3        28.9500   56.0320   25.9120 N.2   2002  SAH2002    -0.0055
     26  C4        30.0530   55.3370   26.4600 C.2   2002  SAH2002     0.3518
@<TRIPOS>BOND
     1     7     6    1
     2     6     8    1
     3     6     2    1
     4     2     1    1
     5     2     3    1
     6     3     4    1
     7     4     5    1
     8     5     9    1
     9    13    12    1
    10    12    10    1
    11    12    14    1
    12     9    10    1
    13    10    11    1
    14    15    14    1
    15    14    16    1
    16    11    16    1
    17    16    17    1
    18    17    26    1
    19    17    18    1
    20    25    26    2
    21    25    24    1
    22    26    20    1
    23    18    19    1
    24    24    23    1
    25    20    19    2
    26    20    21    1
    27    23    21    2
    28    21    22    1
