@<TRIPOS>MOLECULE
1n7j_SAH_A_1.pdb
 26 28 0 0 0
SMALL
GASTEIGER

@<TRIPOS>ATOM
      1  N         26.7690   52.9530   18.0460 N.3   2002  SAH2002    -0.1208
      2  CA        28.0710   52.2920   18.0220 C.3   2002  SAH2002     0.1952
      3  CB        28.3940   51.7610   19.4200 C.3   2002  SAH2002     0.0422
      4  CG        29.8590   51.5490   19.7120 C.3   2002  SAH2002     0.0597
      5  SD        30.1330   50.4990   21.1760 S.3   2002  SAH2002    -0.1375
      6  C         28.0560   51.1440   17.0080 C.2   2002  SAH2002     0.3819
      7  O         26.9520   50.6560   16.6860 O.co2 2002  SAH2002    -0.2441
      8  OXT       29.1470   50.7340   16.5580 O.co2 2002  SAH2002    -0.2441
      9  C5'       29.6480   51.5720   22.5850 C.3   2002  SAH2002     0.0899
     10  C4'       30.1930   52.9820   22.5890 C.3   2002  SAH2002     0.1630
     11  O4'       29.7940   53.6910   23.7960 O.3   2002  SAH2002    -0.3153
     12  C3'       31.7040   53.1490   22.4460 C.3   2002  SAH2002     0.2168
     13  O3'       32.0040   54.0150   21.3600 O.3   2002  SAH2002    -0.2175
     14  C2'       32.1380   53.7050   23.8010 C.3   2002  SAH2002     0.2569
     15  O2'       33.2450   54.5820   23.7260 O.3   2002  SAH2002    -0.2130
     16  C1'       30.8860   54.4560   24.2610 C.3   2002  SAH2002     0.3185
     17  N9        30.7760   54.6150   25.7190 N.pl3 2002  SAH2002    -0.1439
     18  C8        31.6340   54.0750   26.7460 C.3   2002  SAH2002     0.3377
     19  N7        31.2800   54.4350   27.9570 N.2   2002  SAH2002    -0.2095
     20  C5        30.1600   55.2290   27.7430 C.2   2002  SAH2002     0.2526
     21  C6        29.3600   55.9050   28.6930 C.2   2002  SAH2002     0.4393
     22  N6        29.5890   55.8820   30.0090 N.pl3 2002  SAH2002     0.2180
     23  N1        28.3000   56.6220   28.2210 N.2   2002  SAH2002     0.0021
     24  C2        28.0830   56.6520   26.8780 C.3   2002  SAH2002     0.5254
     25  N3        28.7900   56.0510   25.8880 N.2   2002  SAH2002    -0.0055
     26  C4        29.8280   55.3460   26.3960 C.2   2002  SAH2002     0.3518
@<TRIPOS>BOND
     1     8     6   ar
     2     7     6   ar
     3     6     2    1
     4     2     1    1
     5     2     3    1
     6     3     4    1
     7     4     5    1
     8     5     9    1
     9    13    12    1
    10    12    10    1
    11    12    14    1
    12     9    10    1
    13    10    11    1
    14    15    14    1
    15    11    16    1
    16    14    16    1
    17    16    17    1
    18    17    26    1
    19    17    18    1
    20    25    26    2
    21    25    24    1
    22    26    20    1
    23    18    19    1
    24    24    23    1
    25    20    19    2
    26    20    21    1
    27    23    21    2
    28    21    22    1
