@<TRIPOS>MOLECULE
1n7j_IDI_A_1.pdb
 11 12 0 0 0
SMALL
GASTEIGER

@<TRIPOS>ATOM
      1  I         27.2250   42.7080   14.7090 I     3003  IDI3003    -0.0425
      2  C4        28.6850   46.0030   17.0170 C.ar  3003  IDI3003    -0.0041
      3  C5        28.0930   45.2320   16.0220 C.ar  3003  IDI3003     0.0054
      4  C6        28.0810   43.8470   16.1260 C.ar  3003  IDI3003     0.0298
      5  C7        28.6550   43.2510   17.2440 C.ar  3003  IDI3003     0.0026
      6  C8        29.2410   44.0130   18.2380 C.ar  3003  IDI3003    -0.0083
      7  C9        29.2610   45.3980   18.1250 C.ar  3003  IDI3003    -0.0233
      8  C1        29.8120   43.3320   19.4510 C.3   3003  IDI3003     0.1147
      9  C2        29.7740   45.5420   20.5440 C.3   3003  IDI3003     0.0937
     10  C3        29.9300   46.2150   19.1920 C.3   3003  IDI3003     0.0449
     11  N1        30.4600   44.2360   20.4170 N.3   3003  IDI3003    -0.2129
@<TRIPOS>BOND
     1     1     4    1
     2     3     4   ar
     3     3     2   ar
     4     4     5   ar
     5     2     7   ar
     6     5     6   ar
     7     7     6   ar
     8     7    10    1
     9     6     8    1
    10    10     9    1
    11     8    11    1
    12    11     9    1
