@<TRIPOS>MOLECULE
1n7m_MMP_L_1.pdb
 43 47 0 0 0
SMALL
GASTEIGER

@<TRIPOS>ATOM
      1  C1       -10.3560 -109.9990   10.3250 C.3   600  MMP600      0.1304
      2  N1       -11.0950 -109.1940   11.4260 N.ar  600  MMP600     -0.3253
      3  C11      -11.9490 -108.1050   11.0300 C.ar  600  MMP600      0.0585
      4  C12      -11.6970 -106.9430   11.8850 C.ar  600  MMP600     -0.0046
      5  C13      -10.7060 -107.2990   12.8050 C.ar  600  MMP600      0.0133
      6  C14      -10.3280 -108.6810   12.5330 C.ar  600  MMP600      0.0622
      7  C15       -9.3310 -109.4340   13.2790 C.2   600  MMP600      0.0498
      8  C16      -12.4300 -105.5560   11.7800 C.3   600  MMP600      0.0326
      9  C17      -10.1080 -106.4250   13.9180 C.2   600  MMP600      0.0012
     10  C18       -9.4360 -105.3000   13.7030 C.2   600  MMP600      0.0000
     11  N2       -10.7220 -111.4910   13.3960 N.2   600  MMP600     -0.3677
     12  C21       -9.6400 -110.7290   13.8250 C.2   600  MMP600      0.1391
     13  C22       -8.9250 -111.4540   14.8710 C.2   600  MMP600      0.0175
     14  C23       -9.6030 -112.6670   15.0570 C.2   600  MMP600      0.0555
     15  C24      -10.7290 -112.6720   14.1220 C.1   600  MMP600      0.0124
     16  C25      -11.6930 -113.7190   13.9610 C.2   600  MMP600      0.1304
     17  C26       -7.6550 -110.9700   15.6310 C.3   600  MMP600      0.0344
     18  C27       -9.2400 -113.7820   16.0510 C.2   600  MMP600      0.0093
     19  C28       -9.8010 -113.8310   17.2700 C.2   600  MMP600      0.0007
     20  N3       -13.2030 -112.8140   12.2030 N.2   600  MMP600     -0.3327
     21  C31      -12.8210 -113.8040   13.0870 C.1   600  MMP600      0.0183
     22  C32      -13.7410 -114.9370   12.9820 C.2   600  MMP600      0.0408
     23  C33      -14.6860 -114.6070   12.0060 C.2   600  MMP600      0.0410
     24  C34      -14.3260 -113.2600   11.5300 C.1   600  MMP600      0.0183
     25  C35      -15.0190 -112.5170   10.5220 C.2   600  MMP600      0.1301
     26  C36      -13.6760 -116.2630   13.8020 C.3   600  MMP600      0.0418
     27  C37      -15.9070 -115.4960   11.5070 C.3   600  MMP600      0.0482
     28  C38      -17.2360 -115.1950   12.2830 C.3   600  MMP600      0.1194
     29  C39      -18.3850 -114.7790   11.3690 C.2   600  MMP600      0.3652
     30  O31      -18.7720 -113.4600   11.3080 O.co2 600  MMP600     -0.2456
     31  O32      -19.0380 -115.7230   10.6120 O.co2 600  MMP600     -0.2456
     32  N4       -13.7820 -110.3610   10.4800 N.2   600  MMP600     -0.3680
     33  C41      -14.7700 -111.1990   10.0180 C.1   600  MMP600      0.0084
     34  C42      -15.5260 -110.5310    8.9390 C.2   600  MMP600      0.0338
     35  C43      -14.9390 -109.2600    8.7760 C.2   600  MMP600      0.0135
     36  C44      -13.8520 -109.1640    9.7510 C.2   600  MMP600      0.1388
     37  C45      -12.9570 -108.0400    9.9810 C.2   600  MMP600      0.0494
     38  C46      -15.3740 -108.1570    7.7540 C.3   600  MMP600      0.0341
     39  C47      -16.7540 -111.1270    8.1230 C.3   600  MMP600      0.0476
     40  C48      -18.1340 -110.9130    8.8410 C.3   600  MMP600      0.1194
     41  C49      -19.1900 -110.2830    7.9310 C.2   600  MMP600      0.3652
     42  O41      -20.1010 -111.0840    7.2830 O.co2 600  MMP600     -0.2456
     43  O42      -19.2330 -108.9160    7.7660 O.co2 600  MMP600     -0.2456
@<TRIPOS>BOND
     1    42    41   ar
     2    38    35    1
     3    43    41   ar
     4    41    40    1
     5    39    40    1
     6    39    34    1
     7    35    34    2
     8    35    36    1
     9    34    33    1
    10    36    37    1
    11    36    32    2
    12    37     3    2
    13    33    32    2
    14    33    25    2
    15     1     2    1
    16    25    24    1
    17    31    29   ar
    18     3     2   ar
    19     3     4   ar
    20    30    29   ar
    21    29    28    1
    22     2     6   ar
    23    27    23    1
    24    27    28    1
    25    24    23    2
    26    24    20    2
    27     8     4    1
    28     4     5   ar
    29    23    22    1
    30    20    21    2
    31     6     5   ar
    32     6     7    2
    33     5     9    1
    34    22    21    2
    35    22    26    1
    36    21    16    1
    37     7    12    1
    38    11    12    2
    39    11    15    2
    40    10     9    2
    41    12    13    1
    42    16    15    2
    43    15    14    1
    44    13    14    2
    45    13    17    1
    46    14    18    1
    47    18    19    2
