@<TRIPOS>MOLECULE
1n7q_BDP_A_1.pdb
 12 12 0 0 0
SMALL
GASTEIGER

@<TRIPOS>ATOM
      1  C1        14.5470  -13.6830   33.3400 C.3   1001  BDP1001     0.1783
      2  C2        14.4510  -12.1520   33.1040 C.3   1001  BDP1001     0.2141
      3  C3        13.0420  -11.6780   33.5550 C.3   1001  BDP1001     0.2178
      4  C4        11.9890  -12.4260   32.6780 C.3   1001  BDP1001     0.2227
      5  C5        12.0350  -14.0640   32.8230 C.3   1001  BDP1001     0.2512
      6  C6        11.1860  -14.8450   32.0890 C.2   1001  BDP1001     0.3940
      7  O2        15.4850  -11.4880   33.8590 O.3   1001  BDP1001    -0.2176
      8  O3        12.9380  -10.2510   33.3440 O.3   1001  BDP1001    -0.2175
      9  O4        10.5730  -12.1260   32.9800 O.3   1001  BDP1001    -0.2171
     10  O5        13.5190  -14.4060   32.6160 O.3   1001  BDP1001    -0.3403
     11  O6A       11.2130  -16.0620   32.3870 O.co2 1001  BDP1001    -0.2429
     12  O6B       10.5030  -14.2480   31.2170 O.co2 1001  BDP1001    -0.2429
@<TRIPOS>BOND
     1    12     6   ar
     2     6    11   ar
     3     6     5    1
     4    10     5    1
     5    10     1    1
     6     4     5    1
     7     4     9    1
     8     4     3    1
     9     2     1    1
    10     2     3    1
    11     2     7    1
    12     8     3    1
