@<TRIPOS>MOLECULE
1n7q_GTR_A_1.pdb
 12 12 0 0 0
SMALL
GASTEIGER

@<TRIPOS>ATOM
      1  C1        -0.9920   -7.8750   23.8400 C.3   1005  GTR1005     0.1791
      2  C2        -0.6650   -7.4400   22.4330 C.3   1005  GTR1005     0.2188
      3  C3        -2.0120   -6.9960   21.8660 C.3   1005  GTR1005     0.2443
      4  C4        -3.3940   -7.5060   22.0730 C.2   1005  GTR1005     0.2214
      5  C5        -3.3030   -8.4550   23.0380 C.3   1005  GTR1005     0.2783
      6  C6        -4.1270   -9.6560   23.0240 C.2   1005  GTR1005     0.3987
      7  O2         0.2810   -6.3780   22.4620 O.3   1005  GTR1005    -0.2172
      8  O3        -1.7540   -6.6950   20.4720 O.3   1005  GTR1005    -0.2122
      9  O4        -4.1740   -7.5770   21.3550 O.2   1005  GTR1005    -0.2901
     10  O5        -1.9830   -8.9160   23.6670 O.3   1005  GTR1005    -0.3362
     11  O61       -4.9250   -9.7760   24.0050 O.co2 1005  GTR1005    -0.2425
     12  O62       -3.9300  -10.4230   22.0290 O.co2 1005  GTR1005    -0.2425
@<TRIPOS>BOND
     1     8     3    1
     2     9     4    2
     3     3     4    1
     4     3     2    1
     5    12     6   ar
     6     4     5    1
     7     2     7    1
     8     2     1    1
     9     6     5    1
    10     6    11   ar
    11     5    10    1
    12    10     1    1
