@<TRIPOS>MOLECULE
1n7r_BDP_A_1.pdb
 12 12 0 0 0
SMALL
GASTEIGER

@<TRIPOS>ATOM
      1  C1        14.9840  -13.5580   33.3200 C.3   1001  BDP1001     0.1783
      2  C2        14.7340  -12.0300   33.3270 C.3   1001  BDP1001     0.2141
      3  C3        13.3400  -11.7380   33.9710 C.3   1001  BDP1001     0.2178
      4  C4        12.2770  -12.4570   33.0680 C.3   1001  BDP1001     0.2227
      5  C5        12.4640  -14.1080   33.0020 C.3   1001  BDP1001     0.2512
      6  C6        11.6100  -14.8890   32.2480 C.2   1001  BDP1001     0.3940
      7  O2        15.7950  -11.3960   34.0690 O.3   1001  BDP1001    -0.2176
      8  O3        13.1140  -10.3030   33.9860 O.3   1001  BDP1001    -0.2175
      9  O4        10.8630  -12.3060   33.4510 O.3   1001  BDP1001    -0.2171
     10  O5        13.9420  -14.2770   32.6070 O.3   1001  BDP1001    -0.3403
     11  O6A       11.5480  -16.0870   32.6140 O.co2 1001  BDP1001    -0.2429
     12  O6B       11.0130  -14.3040   31.3130 O.co2 1001  BDP1001    -0.2429
@<TRIPOS>BOND
     1    12     6   ar
     2     6    11   ar
     3     6     5    1
     4    10     5    1
     5    10     1    1
     6     5     4    1
     7     4     9    1
     8     4     3    1
     9     1     2    1
    10     2     3    1
    11     2     7    1
    12     3     8    1
