@<TRIPOS>MOLECULE
1n83_CLR_A_1.pdb
 28 31 0 0 0
SMALL
GASTEIGER

@<TRIPOS>ATOM
      1  C1        18.1620   26.6830   16.0970 C.3   1000  CLR1000     0.0063
      2  C2        16.6490   26.9790   16.2050 C.3   1000  CLR1000     0.0335
      3  C3        15.9100   25.7820   16.8160 C.3   1000  CLR1000     0.1560
      4  C4        16.4600   25.5010   18.2320 C.3   1000  CLR1000     0.0545
      5  C5        17.9500   25.2840   18.1690 C.2   1000  CLR1000    -0.0466
      6  C6        18.4660   24.2240   18.7960 C.2   1000  CLR1000    -0.0345
      7  C7        19.9330   23.9290   18.9580 C.3   1000  CLR1000     0.0254
      8  C8        20.7970   25.1260   18.5420 C.3   1000  CLR1000     0.0046
      9  C9        20.2170   25.7950   17.2610 C.3   1000  CLR1000     0.0038
     10  C10       18.7870   26.3410   17.4780 C.3   1000  CLR1000     0.0150
     11  C11       21.1900   26.8660   16.7210 C.3   1000  CLR1000     0.0003
     12  C12       22.6770   26.4180   16.6340 C.3   1000  CLR1000     0.0000
     13  C13       23.1500   25.8270   17.9850 C.3   1000  CLR1000     0.0000
     14  C14       22.2140   24.6490   18.2490 C.3   1000  CLR1000     0.0003
     15  C15       22.8740   23.8550   19.3820 C.3   1000  CLR1000     0.0000
     16  C16       24.3780   24.0460   19.1290 C.3   1000  CLR1000     0.0000
     17  C17       24.4980   25.0670   17.9550 C.3   1000  CLR1000     0.0000
     18  C18       23.0690   26.9140   19.1010 C.3   1000  CLR1000     0.0000
     19  C19       18.7480   27.5930   18.4080 C.3   1000  CLR1000     0.0040
     20  C20       25.7960   25.8950   18.0620 C.3   1000  CLR1000     0.0000
     21  C21       25.9120   26.8450   16.8440 C.3   1000  CLR1000     0.0000
     22  C22       27.0790   25.0440   18.1720 C.3   1000  CLR1000     0.0000
     23  C23       27.2530   23.9450   17.1080 C.3   1000  CLR1000     0.0000
     24  C24       28.7280   23.4400   17.1320 C.3   1000  CLR1000     0.0000
     25  C25       28.9200   22.2710   16.1490 C.3   1000  CLR1000     0.0000
     26  C26       30.4380   22.0740   15.9350 C.3   1000  CLR1000     0.0000
     27  C27       28.3000   20.9910   16.7550 C.3   1000  CLR1000     0.0000
     28  O1        14.5130   26.0470   16.9670 O.3   1000  CLR1000    -0.2228
@<TRIPOS>BOND
     1    26    25    1
     2     1     2    1
     3     1    10    1
     4    25    27    1
     5    25    24    1
     6     2     3    1
     7    12    11    1
     8    12    13    1
     9    11     9    1
    10     3    28    1
    11     3     4    1
    12    21    20    1
    13    23    24    1
    14    23    22    1
    15     9    10    1
    16     9     8    1
    17    10     5    1
    18    10    19    1
    19    17    13    1
    20    17    20    1
    21    17    16    1
    22    13    14    1
    23    13    18    1
    24    20    22    1
    25     5     4    1
    26     5     6    2
    27    14     8    1
    28    14    15    1
    29     8     7    1
    30     6     7    1
    31    16    15    1
