@<TRIPOS>MOLECULE
1n86_III_G_1.pdb
 23 23 0 0 0
SMALL
GASTEIGER

@<TRIPOS>ATOM
      1  N         17.5040   -6.1770   96.0230 N.3     1  GLY1       -0.1210
      2  CA        17.9220   -6.4450   97.4300 C.3     1  GLY1        0.1940
      3  C         19.1680   -7.3060   97.5030 C.2     1  GLY1        0.2454
      4  O         20.2110   -6.9410   96.9420 O.2     1  GLY1       -0.2732
      5  N         19.1060   -8.4460   98.2110 N.am    2  PRO2       -0.2717
      6  CA        20.2360   -9.3680   98.3560 C.3     2  PRO2        0.1536
      7  C         20.1770  -10.4220   97.2650 C.2     2  PRO2        0.2599
      8  O         19.2770  -10.3900   96.4240 O.2     2  PRO2       -0.2715
      9  CB        19.9980   -9.9700   99.7320 C.3     2  PRO2        0.0310
     10  CG        18.5330  -10.1120   99.7460 C.3     2  PRO2        0.0237
     11  CD        18.0540   -8.7790   99.1840 C.3     2  PRO2        0.0939
     12  N         21.1230  -11.3570   97.2730 N.am    3  ARG3       -0.1942
     13  CA        21.1000  -12.4120   96.2630 C.3     3  ARG3        0.1979
     14  C         21.5440  -13.7830   96.8050 C.2     3  ARG3        0.3842
     15  O         21.9080  -14.6440   95.9710 O.co2   3  ARG3       -0.2437
     16  CB        21.9720  -12.0100   95.0630 C.3     3  ARG3        0.0370
     17  CG        21.6080  -10.6670   94.4120 C.3     3  ARG3        0.0493
     18  CD        20.5740  -10.8020   93.3130 C.3     3  ARG3        0.2205
     19  NE        19.5000   -9.8260   93.4760 N.pl3   3  ARG3       -0.0865
     20  CZ        19.2170   -8.8420   92.6230 C.cat   3  ARG3        0.5346
     21  NH1       19.9270   -8.6790   91.5170 N.pl3   3  ARG3        0.1354
     22  NH2       18.2130   -8.0090   92.8860 N.pl3   3  ARG3        0.1354
     23  OXT       21.4960  -13.9960   98.0420 O.co2   3  ARG3       -0.2437
@<TRIPOS>BOND
     1    21    20    1
     2    20    22    1
     3    20    19    2
     4    18    19    1
     5    18    17    1
     6    17    16    1
     7    16    13    1
     8    15    14   ar
     9     1     2    1
    10    13    14    1
    11    13    12    1
    12     8     7    2
    13    14    23   ar
    14     4     3    2
    15     7    12   am
    16     7     6    1
    17     2     3    1
    18     3     5   am
    19     5     6    1
    20     5    11    1
    21     6     9    1
    22    11    10    1
    23     9    10    1
