@<TRIPOS>MOLECULE
1n89_PGM_A_1.pdb
 32 31 0 0 0
SMALL
GASTEIGER

@<TRIPOS>ATOM
      1  C1        -4.6260   -8.7850   15.9800 C.3    68  PGM68       0.2174
      2  O1        -5.9010   -9.3680   16.0880 O.3    68  PGM68      -0.2175
      3  C2        -4.5140   -8.1150   14.6820 C.3    68  PGM68       0.2146
      4  O2        -3.1920   -8.2290   14.2190 O.3    68  PGM68      -0.2176
      5  C3        -4.8720   -6.6970   14.7650 C.3    68  PGM68       0.1846
      6  O4        -4.4530   -6.0520   13.5540 O.3    68  PGM68      -0.3112
      7  P5        -5.5710   -5.6620   12.4720 P.3    68  PGM68       0.2141
      8  O5A       -6.1380   -6.8990   11.8890 O.2    68  PGM68      -0.5172
      9  O5B       -6.5060   -4.6980   13.0910 O.3    68  PGM68      -0.4373
     10  O6        -4.7710   -4.8950   11.3170 O.3    68  PGM68      -0.3112
     11  C7        -5.5170   -4.4030   10.1270 C.3    68  PGM68       0.1857
     12  C8        -4.6740   -4.0710    8.9760 C.3    68  PGM68       0.2252
     13  O8        -4.5020   -5.0670    7.9980 O.3    68  PGM68      -0.2164
     14  C9        -5.0920   -2.8490    8.3360 C.3    68  PGM68       0.2437
     15  OQ1       -4.8090   -0.0140    7.5400 O.2    68  PGM68      -0.2501
     16  OQ2       -3.9870   -1.8430    8.3320 O.3    68  PGM68      -0.4456
     17  CA        -3.9830   -0.9900    7.4980 C.2    68  PGM68       0.3171
     18  CB        -2.9540   -0.9050    6.4540 C.3    68  PGM68       0.1096
     19  CC        -3.4200   -1.1530    5.0440 C.3    68  PGM68       0.0117
     20  CD        -2.3570   -1.6590    4.1090 C.3    68  PGM68       0.0009
     21  CE        -1.9180   -0.6590    3.0820 C.3    68  PGM68       0.0047
     22  CF        -0.4820   -0.2440    3.2000 C.3    68  PGM68       0.0257
     23  CG         0.0860    0.3970    1.9670 C.2    68  PGM68      -0.0304
     24  CH         1.2940    1.2440    2.1910 C.2    68  PGM68      -0.0260
     25  CI         2.1080    1.5230    0.9710 C.3    68  PGM68       0.0513
     26  CJ         2.2570    2.9700    0.6370 C.2    68  PGM68      -0.0260
     27  CK         1.5100    3.4300   -0.5720 C.2    68  PGM68      -0.0304
     28  CL         1.8600    4.8050   -1.0530 C.3    68  PGM68       0.0257
     29  CM         0.8050    5.4840   -1.8660 C.3    68  PGM68       0.0047
     30  CN         1.1020    5.5990   -3.3270 C.3    68  PGM68       0.0003
     31  CO         0.8930    6.9580   -3.9140 C.3    68  PGM68       0.0000
     32  CP         2.0610    7.4810   -4.6970 C.3    68  PGM68       0.0000
@<TRIPOS>BOND
     1    32    31    1
     2    31    30    1
     3    30    29    1
     4    29    28    1
     5    28    27    1
     6    27    26    2
     7    26    25    1
     8    25    24    1
     9    23    24    2
    10    23    22    1
    11    21    22    1
    12    21    20    1
    13    20    19    1
    14    19    18    1
    15    18    17    1
    16    17    15    2
    17    17    16    1
    18    13    12    1
    19    16    14    1
    20    14    12    1
    21    12    11    1
    22    11    10    1
    23    10     7    1
    24     8     7    2
    25     7     9    1
    26     7     6    1
    27     6     5    1
    28     4     3    1
    29     3     5    1
    30     3     1    1
    31     1     2    1
