@<TRIPOS>MOLECULE
1n8f_PEP_A_1.pdb
 10 9 0 0 0
SMALL
GASTEIGER

@<TRIPOS>ATOM
      1  C1        28.8120    7.1260   26.5490 C.2   1396  PEP1396     0.4216
      2  O1        29.5240    6.2060   25.9970 O.co2 1396  PEP1396    -0.2371
      3  O2'       28.2810    8.0060   25.9150 O.co2 1396  PEP1396    -0.2371
      4  C2        28.6780    6.9950   28.0600 C.2   1396  PEP1396     0.2283
      5  C3        29.6090    6.5990   28.9730 C.2   1396  PEP1396     0.0477
      6  O2        27.3930    7.3240   28.5120 O.2   1396  PEP1396    -0.3930
      7  P         26.8460    7.5920   29.9910 P.3   1396  PEP1396     0.5889
      8  O1P       27.8060    8.6160   30.6300 O.3   1396  PEP1396    -0.1039
      9  O2P       26.8520    6.2380   30.6410 O.3   1396  PEP1396    -0.1039
     10  O3P       25.5170    8.2340   29.8410 O.2   1396  PEP1396    -0.2114
@<TRIPOS>BOND
     1     3     1   ar
     2     2     1   ar
     3     1     4    1
     4     4     6    1
     5     4     5    2
     6     6     7    1
     7    10     7    2
     8     7     8    1
     9     7     9    1
