@<TRIPOS>MOLECULE
1n8k_NAJ_A_1.pdb
 44 48 0 0 0
SMALL
GASTEIGER

@<TRIPOS>ATOM
      1  PA        14.4920  -25.9430   -1.4860 P.3   377  NAJ377      0.2189
      2  O1A       15.8060  -26.5130   -1.1620 O.2   377  NAJ377     -0.5170
      3  O2A       13.3570  -26.2460   -0.5840 O.3   377  NAJ377     -0.4371
      4  O5B       14.0190  -26.3690   -2.9170 O.3   377  NAJ377     -0.3112
      5  C5B       14.9470  -26.6670   -4.0100 C.3   377  NAJ377      0.1813
      6  C4B       14.4530  -27.8760   -4.7370 C.3   377  NAJ377      0.1821
      7  O4B       15.3660  -28.1210   -5.8120 O.3   377  NAJ377     -0.3135
      8  C3B       14.3740  -29.1540   -3.9080 C.3   377  NAJ377      0.2184
      9  O3B       13.0630  -29.7000   -3.8690 O.3   377  NAJ377     -0.2174
     10  C2B       15.3920  -30.1040   -4.5760 C.3   377  NAJ377      0.2570
     11  O2B       15.1300  -31.4790   -4.5850 O.3   377  NAJ377     -0.2130
     12  C1B       15.4590  -29.5110   -5.9880 C.3   377  NAJ377      0.3186
     13  N9A       16.6730  -29.8060   -6.7100 N.pl3 377  NAJ377     -0.1439
     14  C8A       17.9600  -29.8140   -6.2080 C.3   377  NAJ377      0.3377
     15  N7A       18.8440  -30.0730   -7.1580 N.2   377  NAJ377     -0.2095
     16  C5A       18.1280  -30.3040   -8.3040 C.2   377  NAJ377      0.2526
     17  C6A       18.4930  -30.6270   -9.6550 C.2   377  NAJ377      0.4393
     18  N6A       19.7190  -30.9180  -10.0880 N.pl3 377  NAJ377      0.2180
     19  N1A       17.4210  -30.6940  -10.5040 N.2   377  NAJ377      0.0021
     20  C2A       16.1300  -30.4850  -10.1440 C.3   377  NAJ377      0.5254
     21  N3A       15.7340  -30.1990   -8.9000 N.2   377  NAJ377     -0.0055
     22  C4A       16.7620  -30.1230   -8.0330 C.2   377  NAJ377      0.3518
     23  O3        14.7010  -24.3700   -1.5990 O.3   377  NAJ377     -0.2703
     24  PN        13.7400  -23.0660   -1.5840 P.3   377  NAJ377      0.2189
     25  O1N       13.6640  -22.4940   -0.2120 O.3   377  NAJ377     -0.4371
     26  O2N       12.5430  -23.3830   -2.3620 O.2   377  NAJ377     -0.5170
     27  O5D       14.6980  -22.0800   -2.3890 O.3   377  NAJ377     -0.3112
     28  C5D       14.9600  -22.3710   -3.7830 C.3   377  NAJ377      0.1813
     29  C4D       16.0870  -21.4750   -4.2480 C.3   377  NAJ377      0.1799
     30  O4D       15.6380  -20.1090   -4.2910 O.3   377  NAJ377     -0.3324
     31  C3D       17.3480  -21.4890   -3.3530 C.3   377  NAJ377      0.2158
     32  O3D       18.5290  -21.3200   -4.1250 O.3   377  NAJ377     -0.2175
     33  C2D       17.1910  -20.2010   -2.5380 C.3   377  NAJ377      0.2312
     34  O2D       18.3930  -19.7010   -2.0310 O.3   377  NAJ377     -0.2158
     35  C1D       16.5640  -19.2810   -3.5980 C.3   377  NAJ377      0.2299
     36  N1N       15.8520  -18.1070   -3.0920 N.pl3 377  NAJ377     -0.2608
     37  C2N       15.8680  -16.9680   -3.8430 C.2   377  NAJ377      0.0678
     38  C3N       15.2080  -15.8310   -3.4760 C.2   377  NAJ377      0.0537
     39  C7N       15.1000  -14.6590   -4.3300 C.2   377  NAJ377      0.2818
     40  O7N       14.6810  -13.6010   -3.8240 O.2   377  NAJ377     -0.2670
     41  N7N       15.4580  -14.7740   -5.6200 N.am  377  NAJ377     -0.0839
     42  C4N       14.5930  -15.7910   -2.0650 C.3   377  NAJ377      0.0597
     43  C5N       14.2250  -17.1790   -1.6430 C.2   377  NAJ377     -0.0051
     44  C6N       14.8960  -18.2510   -2.0910 C.2   377  NAJ377      0.0630
@<TRIPOS>BOND
     1    19    20    1
     2    19    17    2
     3    20    21    1
     4    18    17    1
     5    17    16    1
     6    21    22    2
     7    16    22    1
     8    16    15    2
     9    22    13    1
    10    15    14    1
    11    13    14    1
    12    13    12    1
    13    12     7    1
    14    12    10    1
    15     7     6    1
    16    41    39   am
    17     6     5    1
    18     6     8    1
    19    11    10    1
    20    10     8    1
    21    39    40    2
    22    39    38    1
    23    30    29    1
    24    30    35    1
    25    29    28    1
    26    29    31    1
    27    32    31    1
    28     5     4    1
    29     8     9    1
    30    37    38    2
    31    37    36    1
    32    28    27    1
    33    35    36    1
    34    35    33    1
    35    38    42    1
    36    31    33    1
    37    36    44    1
    38     4     1    1
    39    33    34    1
    40    27    24    1
    41    26    24    2
    42    44    43    2
    43    42    43    1
    44    23    24    1
    45    23     1    1
    46    24    25    1
    47     1     2    2
    48     1     3    1
