@<TRIPOS>MOLECULE
1n8p_PLP_A_1.pdb
 15 15 0 0 0
SMALL
GASTEIGER

@<TRIPOS>ATOM
      1  N1        48.6380   -4.6430   18.7350 N.ar  400  PLP400     -0.2452
      2  C2        49.6190   -5.0340   17.8480 C.ar  400  PLP400      0.0978
      3  C2A       49.3670   -4.6460   16.3950 C.3   400  PLP400      0.0555
      4  C3        50.7820   -5.7680   18.4270 C.ar  400  PLP400      0.2049
      5  O3        51.7070   -6.0740   17.4850 O.3   400  PLP400     -0.2857
      6  C4        50.8430   -6.0470   19.8260 C.ar  400  PLP400      0.0182
      7  C4A       51.9960   -6.8230   20.3990 C.3   400  PLP400      0.0342
      8  C5        49.7080   -5.5640   20.6630 C.ar  400  PLP400      0.0261
      9  C6        48.6500   -4.8770   20.0950 C.ar  400  PLP400      0.0965
     10  C5A       49.7930   -5.7790   22.1830 C.3   400  PLP400      0.1815
     11  O4P       50.3610   -4.6860   22.8810 O.3   400  PLP400     -0.2653
     12  P         50.4420   -4.7210   24.4420 P.3   400  PLP400      0.5329
     13  O1P       51.2690   -3.5810   24.7540 O.2   400  PLP400     -0.2224
     14  O2P       51.1060   -6.0340   24.8000 O.3   400  PLP400     -0.1145
     15  O3P       49.0460   -4.6760   24.8490 O.3   400  PLP400     -0.1145
@<TRIPOS>BOND
     1     3     2    1
     2     5     4    1
     3     2     4   ar
     4     2     1   ar
     5     4     6   ar
     6     1     9   ar
     7     6     7    1
     8     6     8   ar
     9     9     8   ar
    10     8    10    1
    11    10    11    1
    12    11    12    1
    13    12    13    2
    14    12    14    1
    15    12    15    1
