@<TRIPOS>MOLECULE
1n8q_DHB_A_1.pdb
 11 11 0 0 0
SMALL
GASTEIGER

@<TRIPOS>ATOM
      1  C1        20.8700    1.6330   20.0090 C.ar  859  DHB859      0.0832
      2  C2        21.5750    2.5320   19.2370 C.ar  859  DHB859      0.0520
      3  C3        21.6940    2.2980   17.8950 C.ar  859  DHB859      0.2345
      4  O3        22.3240    3.1460   17.1240 O.3   859  DHB859     -0.2831
      5  C4        21.0830    1.2130   17.3540 C.ar  859  DHB859      0.2343
      6  O4        21.2240    1.0130   16.0770 O.3   859  DHB859     -0.2831
      7  C5        20.3640    0.3390   18.1320 C.ar  859  DHB859      0.0456
      8  C6        20.2490    0.5350   19.4780 C.ar  859  DHB859      0.0101
      9  C         20.7770    1.8970   21.4480 C.2   859  DHB859      0.3879
     10  O1        20.8540    3.1000   21.7090 O.co2 859  DHB859     -0.2406
     11  O2        20.6720    0.9560   22.2640 O.co2 859  DHB859     -0.2406
@<TRIPOS>BOND
     1     6     5    1
     2     4     3    1
     3     5     3   ar
     4     5     7   ar
     5     3     2   ar
     6     7     8   ar
     7     2     1   ar
     8     8     1   ar
     9     1     9    1
    10     9    10   ar
    11     9    11   ar
