@<TRIPOS>MOLECULE
1n8u_BDD_A_1.pdb
 14 13 0 0 0
SMALL
GASTEIGER

@<TRIPOS>ATOM
      1  O1        15.5060    0.4920   -7.0240 O.3   411  BDD411     -0.2204
      2  C1        15.2670    0.3800   -5.6160 C.3   411  BDD411      0.1821
      3  C2        16.4650    0.9730   -4.8880 C.3   411  BDD411      0.0355
      4  C3        16.7210    0.3200   -3.5410 C.3   411  BDD411      0.0027
      5  C4        18.1880    0.0880   -3.3740 C.3   411  BDD411      0.0001
      6  C5        18.6120    0.0260   -1.9100 C.3   411  BDD411      0.0000
      7  C6        18.1700   -1.2520   -1.2230 C.3   411  BDD411      0.0000
      8  C7        18.8790   -1.4130    0.1190 C.3   411  BDD411      0.0000
      9  C8        18.1810   -2.3990    1.0450 C.3   411  BDD411      0.0000
     10  C9        18.8010   -2.3310    2.4370 C.3   411  BDD411      0.0000
     11  C10       18.0880   -1.3300    3.3240 C.3   411  BDD411      0.0009
     12  C11       18.2910   -1.5730    4.8090 C.3   411  BDD411      0.0122
     13  C12       17.6030   -0.5430    5.6990 C.3   411  BDD411      0.0676
     14 BR         18.1010    0.9010    5.3080 Br    411  BDD411     -0.0808
@<TRIPOS>BOND
     1     1     2    1
     2     2     3    1
     3     3     4    1
     4     4     5    1
     5     5     6    1
     6     6     7    1
     7     7     8    1
     8     8     9    1
     9     9    10    1
    10    10    11    1
    11    11    12    1
    12    12    13    1
    13    14    13    1
