@<TRIPOS>MOLECULE
1n8v_BDD_A_1.pdb
 14 13 0 0 0
SMALL
GASTEIGER

@<TRIPOS>ATOM
      1  O1        18.7430   23.9450   24.1990 O.3   501  BDD501     -0.2204
      2  C1        18.8500   24.0610   25.6100 C.3   501  BDD501      0.1821
      3  C2        19.0340   25.5260   25.9950 C.3   501  BDD501      0.0355
      4  C3        18.1300   25.9000   27.1620 C.3   501  BDD501      0.0027
      5  C4        18.7550   25.5480   28.5040 C.3   501  BDD501      0.0001
      6  C5        17.7040   25.5940   29.6090 C.3   501  BDD501      0.0000
      7  C6        16.9440   24.2710   29.7340 C.3   501  BDD501      0.0000
      8  C7        15.6900   24.3910   30.5990 C.3   501  BDD501      0.0000
      9  C8        14.6800   23.2810   30.3060 C.3   501  BDD501      0.0000
     10  C9        13.5600   23.2720   31.3410 C.3   501  BDD501      0.0000
     11  C10       12.4830   24.3030   31.0310 C.3   501  BDD501      0.0009
     12  C11       11.3100   24.2240   31.9910 C.3   501  BDD501      0.0122
     13  C12       10.1960   25.2010   31.6200 C.3   501  BDD501      0.0676
     14 BR         10.5440   26.7090   32.1190 Br    501  BDD501     -0.0808
@<TRIPOS>BOND
     1     1     2    1
     2     2     3    1
     3     3     4    1
     4     4     5    1
     5     5     6    1
     6     6     7    1
     7     7     8    1
     8     9     8    1
     9     9    10    1
    10    11    10    1
    11    11    12    1
    12    13    12    1
    13    13    14    1
