@<TRIPOS>MOLECULE
1n8w_COA_A_1.pdb
 48 50 0 0 0
SMALL
GASTEIGER

@<TRIPOS>ATOM
      1  N1A       10.3530   33.0970   77.1780 N.2   903  COA903      0.0021
      2  C2A       10.3320   34.4330   76.8070 C.3   903  COA903      0.5254
      3  N3A       11.5160   35.1050   76.5610 N.2   903  COA903     -0.0055
      4  C4A       12.7090   34.4510   76.6890 C.2   903  COA903      0.3518
      5  C5A       12.7510   33.0980   77.0670 C.2   903  COA903      0.2526
      6  C6A       11.5440   32.4150   77.3110 C.2   903  COA903      0.4393
      7  N6A       11.4670   31.0890   77.2280 N.pl3 903  COA903      0.2180
      8  N7A       14.0600   32.7330   77.1120 N.2   903  COA903     -0.2095
      9  C8A       14.8200   33.8110   76.7760 C.3   903  COA903      0.3377
     10  N9A       14.0010   34.8900   76.5130 N.pl3 903  COA903     -0.1439
     11  C1B       14.3560   36.1840   75.8730 C.3   903  COA903      0.3185
     12  C2B       14.3060   37.3770   76.8330 C.3   903  COA903      0.2543
     13  O2B       12.9920   37.8990   76.9640 O.3   903  COA903     -0.2131
     14  C3B       15.3740   38.3630   76.3210 C.3   903  COA903      0.1928
     15  O3B       14.8770   39.5600   75.7150 O.3   903  COA903     -0.2673
     16  P3B       14.4490   40.9170   76.5150 P.3   903  COA903      0.5327
     17  O7A       15.5740   41.8930   76.5520 O.3   903  COA903     -0.1145
     18  O8A       13.2790   41.6150   75.7860 O.2   903  COA903     -0.2224
     19  O9A       14.0110   40.5190   77.9380 O.3   903  COA903     -0.1145
     20  C4B       16.1540   37.5330   75.2840 C.3   903  COA903      0.1795
     21  O4B       15.6810   36.1900   75.3750 O.3   903  COA903     -0.3136
     22  C5B       17.6930   37.6120   75.4000 C.3   903  COA903      0.1812
     23  O5B       18.2680   36.6340   76.2590 O.3   903  COA903     -0.3112
     24  P1A       18.0920   36.7350   77.8680 P.3   903  COA903      0.2189
     25  O1A       16.8260   36.0460   78.2480 O.2   903  COA903     -0.5170
     26  O2A       18.1420   38.2130   78.3410 O.3   903  COA903     -0.4371
     27  O3A       19.3400   35.9400   78.5090 O.3   903  COA903     -0.2703
     28  P2A       19.4230   34.3250   78.4510 P.3   903  COA903      0.2188
     29  O4A       20.8300   33.9330   78.7700 O.3   903  COA903     -0.4371
     30  O5A       18.9540   33.8180   77.0570 O.2   903  COA903     -0.5170
     31  O6A       18.4540   33.7800   79.6450 O.3   903  COA903     -0.3138
     32  CBP       17.3120   32.0070   80.9230 C.3   903  COA903      0.0645
     33  CCP       18.4870   32.4080   80.0230 C.3   903  COA903      0.1519
     34  CDP       17.2010   33.0620   82.0270 C.3   903  COA903      0.0056
     35  CEP       17.6130   30.6430   81.5520 C.3   903  COA903      0.0056
     36  CAP       15.9980   31.9190   80.1310 C.3   903  COA903      0.2312
     37  OAP       16.2570   31.6230   78.7700 O.3   903  COA903     -0.2131
     38  C9P       14.9950   30.9370   80.7130 C.2   903  COA903      0.2719
     39  O9P       14.2970   31.2150   81.9120 O.2   903  COA903     -0.2706
     40  N8P       14.7920   29.8010   80.0440 N.am  903  COA903     -0.2028
     41  C7P       13.7390   29.6950   79.0530 C.3   903  COA903      0.1248
     42  C6P       12.4210   29.3000   79.7080 C.3   903  COA903      0.1102
     43  C5P       12.0590   27.8730   79.3610 C.2   903  COA903      0.2432
     44  O5P       11.9390   27.5460   78.1680 O.2   903  COA903     -0.2733
     45  N4P       11.8900   27.0250   80.3840 N.am  903  COA903     -0.2044
     46  C3P       10.9630   25.9060   80.3340 C.3   903  COA903      0.1276
     47  C2P       11.4370   24.7160   81.1610 C.3   903  COA903      0.0920
     48  S1P       10.3390   23.2770   81.0150 S.3   903  COA903     -0.0802
@<TRIPOS>BOND
     1    20    21    1
     2    20    22    1
     3    20    14    1
     4    21    11    1
     5    22    23    1
     6    15    14    1
     7    15    16    1
     8    18    16    2
     9    11    10    1
    10    11    12    1
    11    23    24    1
    12    14    12    1
    13    10     4    1
    14    10     9    1
    15    16    17    1
    16    16    19    1
    17     3     4    2
    18     3     2    1
    19     4     5    1
    20     9     8    1
    21     2     1    1
    22    12    13    1
    23    30    28    2
    24     5     8    2
    25     5     6    1
    26     1     6    2
    27     7     6    1
    28    24    25    2
    29    24    26    1
    30    24    27    1
    31    44    43    2
    32    28    27    1
    33    28    29    1
    34    28    31    1
    35    37    36    1
    36    41    42    1
    37    41    40    1
    38    43    42    1
    39    43    45   am
    40    31    33    1
    41    33    32    1
    42    40    38   am
    43    36    38    1
    44    36    32    1
    45    46    45    1
    46    46    47    1
    47    38    39    2
    48    32    35    1
    49    32    34    1
    50    48    47    1
