@<TRIPOS>MOLECULE
1n90_DHE_A_1.pdb
 49 56 0 0 0
SMALL
GASTEIGER

@<TRIPOS>ATOM
      1 FE         27.4480   22.3560    5.7420 Fe    602  DHE602      0.0000
      2  CHA       24.1550   22.4820    6.3790 C.2   602  DHE602      0.0000
      3  CHB       28.0030   20.4170    8.4850 C.2   602  DHE602      0.0000
      4  CHC       30.5510   21.6900    4.6420 C.2   602  DHE602      0.0000
      5  CHD       27.2770   25.1040    3.7920 C.2   602  DHE602      0.0000
      6  NA        26.2350   21.4990    7.1620 N.2   602  DHE602      0.0000
      7  C1A       24.8800   21.6800    7.2450 C.2   602  DHE602      0.0000
      8  C2A       24.4000   20.9470    8.3520 C.2   602  DHE602      0.0000
      9  C3A       25.4940   20.4070    9.0040 C.2   602  DHE602      0.0000
     10  C4A       26.6640   20.7520    8.2370 C.2   602  DHE602      0.0000
     11  CMA       25.5110   19.6260   10.2840 C.3   602  DHE602      0.0000
     12  CAA       22.9510   20.8340    8.7260 C.3   602  DHE602      0.0000
     13  CBA       22.5130   21.8530    9.6790 C.3   602  DHE602      0.0000
     14  CGA       21.0760   21.9770    9.9060 C.2   602  DHE602      0.0000
     15  O1A       20.2940   21.6410    8.9710 O.co2 602  DHE602      0.0000
     16  O2A       20.6720   22.4120   11.0210 O.co2 602  DHE602      0.0000
     17  NB        29.0430   21.2070    6.4200 N.pl3 602  DHE602      0.0000
     18  C1B       29.0470   20.5490    7.6100 C.2   602  DHE602      0.0000
     19  C2B       30.3960   19.9700    7.8410 C.2   602  DHE602      0.0000
     20  OMB       30.8310   19.5260    8.8750 O.2   602  DHE602      0.0000
     21  C3B       31.1300   20.0390    6.5180 C.2   602  DHE602      0.0000
     22  CGB       30.9720   18.5870    5.8660 C.3   602  DHE602      0.0000
     23  CAB       32.5710   20.3780    6.6180 C.3   602  DHE602      0.0000
     24  CBB       32.8730   21.7500    6.9850 C.2   602  DHE602      0.0000
     25  O1B       33.8590   22.3260    6.4500 O.co2 602  DHE602      0.0000
     26  O2B       32.1340   22.2910    7.8190 O.co2 602  DHE602      0.0000
     27  C4B       30.2290   21.0400    5.7910 C.2   602  DHE602      0.0000
     28  NC        28.7170   23.2680    4.3830 N.2   602  DHE602      0.0000
     29  C1C       29.9300   22.7460    4.0470 C.2   602  DHE602      0.0000
     30  C2C       30.5150   23.5050    2.9190 C.2   602  DHE602      0.0000
     31  OMC       31.5160   23.2080    2.2930 O.2   602  DHE602      0.0000
     32  C3C       29.6210   24.7410    2.7030 C.2   602  DHE602      0.0000
     33  CGC       29.0680   24.6950    1.1730 C.3   602  DHE602      0.0000
     34  CAC       30.3270   26.0300    2.9300 C.3   602  DHE602      0.0000
     35  CBC       30.8810   26.2520    4.2740 C.2   602  DHE602      0.0000
     36  O1C       30.5000   27.2840    4.9050 O.co2 602  DHE602      0.0000
     37  O2C       31.7230   25.4100    4.7300 O.co2 602  DHE602      0.0000
     38  C4C       28.4570   24.3970    3.6710 C.2   602  DHE602      0.0000
     39  ND        25.9110   23.5440    5.1010 N.ar  602  DHE602      0.0000
     40  C1D       26.0540   24.6350    4.2780 C.ar  602  DHE602      0.0000
     41  C2D       24.7650   25.1740    4.0470 C.ar  602  DHE602      0.0000
     42  C3D       23.8660   24.4130    4.7670 C.ar  602  DHE602      0.0000
     43  C4D       24.6070   23.4240    5.4760 C.ar  602  DHE602      0.0000
     44  CMD       24.4990   26.3530    3.1730 C.3   602  DHE602      0.0000
     45  CAD       22.4110   24.5380    4.7670 C.2   602  DHE602      0.0000
     46  CBD       21.6850   24.5580    3.7180 C.2   602  DHE602      0.0000
     47  CGD       20.2230   24.4340    3.6400 C.2   602  DHE602      0.0000
     48  O1D       19.6520   24.8570    2.6080 O.co2 602  DHE602      0.0000
     49  O2D       19.5970   23.9130    4.6000 O.co2 602  DHE602      0.0000
@<TRIPOS>BOND
     1    33    32    1
     2    31    30    1
     3    48    47   ar
     4    32    30    2
     5    32    34    1
     6    32    38    1
     7    30    29    1
     8    34    35    1
     9    44    41    1
    10    47    46    1
    11    47    49   ar
    12    38     5    1
    13    38    28    2
    14    46    45    2
    15     5    40    2
    16    29    28    1
    17    29     4    2
    18    41    40   ar
    19    41    42   ar
    20    35    37   ar
    21    35    36   ar
    22    40    39   ar
    23    28     1    1
    24     4    27    1
    25    42    45    1
    26    42    43   ar
    27    39    43   ar
    28    39     1    1
    29    43     2    2
    30     1    17    1
    31     1     6    1
    32    27    17    1
    33    27    21    2
    34    22    21    1
    35     2     7    1
    36    17    18    1
    37    25    24   ar
    38    21    23    1
    39    21    19    1
    40    23    24    1
    41    24    26   ar
    42     6     7    2
    43     6    10    1
    44     7     8    1
    45    18    19    2
    46    18     3    1
    47    19    20    1
    48    10     3    2
    49    10     9    1
    50     8    12    1
    51     8     9    2
    52    12    13    1
    53    15    14   ar
    54     9    11    1
    55    13    14    1
    56    14    16   ar
