@<TRIPOS>MOLECULE
1n90_HEC_A_1.pdb
 43 50 0 0 0
SMALL
GASTEIGER

@<TRIPOS>ATOM
      1 FE         42.8060   10.1790    7.0410 Fe    601  HEC601      0.0000
      2  CHA       42.5690    6.8180    7.1150 C.2   601  HEC601      0.0000
      3  CHB       45.8250   10.1020    8.4530 C.2   601  HEC601      0.0000
      4  CHC       43.1590   13.5930    6.5850 C.2   601  HEC601      0.0000
      5  CHD       39.6540   10.4260    5.7310 C.2   601  HEC601      0.0000
      6  NA        43.9620    8.7550    7.5880 N.2   601  HEC601      0.0000
      7  C1A       43.7160    7.4060    7.6090 C.2   601  HEC601      0.0000
      8  C2A       44.8150    6.7060    8.1890 C.2   601  HEC601      0.0000
      9  C3A       45.7460    7.6240    8.5080 C.2   601  HEC601      0.0000
     10  C4A       45.2060    8.8990    8.1320 C.2   601  HEC601      0.0000
     11  CMA       47.0970    7.3830    9.1680 C.3   601  HEC601      0.0000
     12  CAA       44.9670    5.2000    8.3000 C.3   601  HEC601      0.0000
     13  CBA       44.2100    4.5230    9.4270 C.3   601  HEC601      0.0000
     14  CGA       44.7250    3.1070    9.6750 C.2   601  HEC601      0.0000
     15  O1A       44.3210    2.1910    8.9210 O.co2 601  HEC601      0.0000
     16  O2A       45.5570    2.9190   10.5990 O.co2 601  HEC601      0.0000
     17  NB        44.1530   11.5620    7.5060 N.ar  601  HEC601      0.0000
     18  C1B       45.3250   11.3470    8.1730 C.ar  601  HEC601      0.0000
     19  C2B       46.0610   12.5410    8.3400 C.ar  601  HEC601      0.0000
     20  C3B       45.3550   13.5120    7.7180 C.ar  601  HEC601      0.0000
     21  C4B       44.1660   12.9240    7.2400 C.ar  601  HEC601      0.0000
     22  CMB       47.3430   12.6070    9.1350 C.3   601  HEC601      0.0000
     23  CAB       45.6670   14.9660    7.5920 C.3   601  HEC601      0.0000
     24  CBB       47.0530   15.4590    7.1810 C.3   601  HEC601      0.0000
     25  NC        41.6860   11.6770    6.3030 N.2   601  HEC601      0.0000
     26  C1C       41.9990   13.0190    6.1360 C.2   601  HEC601      0.0000
     27  C2C       40.9180   13.7540    5.5360 C.2   601  HEC601      0.0000
     28  C3C       39.9120   12.8570    5.3390 C.2   601  HEC601      0.0000
     29  C4C       40.3800   11.5940    5.8380 C.2   601  HEC601      0.0000
     30  CMC       40.9330   15.2640    5.2320 C.3   601  HEC601      0.0000
     31  CAC       38.4840   13.1320    4.9350 C.3   601  HEC601      0.0000
     32  CBC       38.1000   14.1320    3.8240 C.3   601  HEC601      0.0000
     33  ND        41.4250    8.8950    6.4780 N.ar  601  HEC601      0.0000
     34  C1D       40.1320    9.1540    5.9900 C.ar  601  HEC601      0.0000
     35  C2D       39.3320    7.9270    5.8750 C.ar  601  HEC601      0.0000
     36  C3D       40.1830    6.9280    6.2740 C.ar  601  HEC601      0.0000
     37  C4D       41.4770    7.5280    6.6160 C.ar  601  HEC601      0.0000
     38  CMD       37.8900    7.7710    5.4480 C.3   601  HEC601      0.0000
     39  CAD       39.9050    5.4470    6.1660 C.3   601  HEC601      0.0000
     40  CBD       40.6250    5.1000    4.8650 C.3   601  HEC601      0.0000
     41  CGD       40.5950    3.6140    4.5340 C.2   601  HEC601      0.0000
     42  O1D       40.6470    3.2670    3.3170 O.co2 601  HEC601      0.0000
     43  O2D       40.5290    2.7890    5.4940 O.co2 601  HEC601      0.0000
@<TRIPOS>BOND
     1    42    41   ar
     2    32    31    1
     3    41    40    1
     4    41    43   ar
     5    40    39    1
     6    31    28    1
     7    30    27    1
     8    28    27    2
     9    28    29    1
    10    38    35    1
    11    27    26    1
    12     5    29    1
    13     5    34    2
    14    29    25    2
    15    35    34   ar
    16    35    36   ar
    17    34    33   ar
    18    26    25    1
    19    26     4    2
    20    39    36    1
    21    36    37   ar
    22    25     1    1
    23    33    37   ar
    24    33     1    1
    25     4    21    1
    26    37     2    2
    27     1    17    1
    28     1     6    1
    29     2     7    1
    30    24    23    1
    31    21    17   ar
    32    21    20   ar
    33    17    18   ar
    34     6     7    2
    35     6    10    1
    36    23    20    1
    37     7     8    1
    38    20    19   ar
    39    10     3    2
    40    10     9    1
    41    18    19   ar
    42    18     3    1
    43     8    12    1
    44     8     9    2
    45    12    13    1
    46    19    22    1
    47     9    11    1
    48    15    14   ar
    49    13    14    1
    50    14    16   ar
