@<TRIPOS>MOLECULE
1n92_NAJ_A_1.pdb
 44 48 0 0 0
SMALL
GASTEIGER

@<TRIPOS>ATOM
      1  PA       -13.2980    8.2210   18.0650 P.3   377  NAJ377      0.2189
      2  O1A      -14.5700    7.4600   18.2040 O.2   377  NAJ377     -0.5170
      3  O2A      -13.0310    9.2520   19.0880 O.3   377  NAJ377     -0.4371
      4  O5B      -13.2920    8.9870   16.6680 O.3   377  NAJ377     -0.3112
      5  C5B      -13.9440    8.4200   15.4960 C.3   377  NAJ377      0.1813
      6  C4B      -14.5190    9.5590   14.6920 C.3   377  NAJ377      0.1821
      7  O4B      -15.0250    8.9560   13.4610 O.3   377  NAJ377     -0.3135
      8  C3B      -15.7100   10.2540   15.3760 C.3   377  NAJ377      0.2184
      9  O3B      -15.5230   11.6510   15.4660 O.3   377  NAJ377     -0.2174
     10  C2B      -16.9180    9.9010   14.4790 C.3   377  NAJ377      0.2570
     11  O2B      -17.9050   10.8970   14.3760 O.3   377  NAJ377     -0.2130
     12  C1B      -16.2150    9.6330   13.1270 C.3   377  NAJ377      0.3186
     13  N9A      -17.0150    8.8380   12.2020 N.pl3 377  NAJ377     -0.1439
     14  C8A      -17.7570    7.7470   12.5150 C.3   377  NAJ377      0.3377
     15  N7A      -18.3510    7.2250   11.4510 N.2   377  NAJ377     -0.2095
     16  C5A      -17.9570    8.0190   10.3920 C.2   377  NAJ377      0.2526
     17  C6A      -18.2580    7.9800    8.9980 C.2   377  NAJ377      0.4393
     18  N6A      -19.0620    7.1070    8.4200 N.pl3 377  NAJ377      0.2180
     19  N1A      -17.6340    8.9670    8.2800 N.2   377  NAJ377      0.0021
     20  C2A      -16.8130    9.9240    8.8090 C.3   377  NAJ377      0.5254
     21  N3A      -16.5180    9.9910   10.1120 N.2   377  NAJ377     -0.0055
     22  C4A      -17.1080    9.0270   10.8450 C.2   377  NAJ377      0.3518
     23  O3       -12.1270    7.1730   17.9370 O.3   377  NAJ377     -0.2703
     24  PN       -10.5320    7.3010   18.1840 P.3   377  NAJ377      0.2189
     25  O1N      -10.2190    6.9430   19.5860 O.3   377  NAJ377     -0.4371
     26  O2N      -10.0660    8.5720   17.5860 O.2   377  NAJ377     -0.5170
     27  O5D      -10.0850    6.0280   17.3380 O.3   377  NAJ377     -0.3112
     28  C5D      -10.3270    6.0810   15.9050 C.3   377  NAJ377      0.1813
     29  C4D      -10.1260    4.7070   15.3110 C.3   377  NAJ377      0.1799
     30  O4D       -8.7010    4.3900   15.3980 O.3   377  NAJ377     -0.3324
     31  C3D      -10.8940    3.5460   16.0160 C.3   377  NAJ377      0.2158
     32  O3D      -11.2170    2.5260   15.0950 O.3   377  NAJ377     -0.2175
     33  C2D       -9.8040    2.9420   16.8960 C.3   377  NAJ377      0.2312
     34  O2D      -10.0700    1.6110   17.3140 O.3   377  NAJ377     -0.2158
     35  C1D       -8.5610    3.1350   15.9920 C.3   377  NAJ377      0.2299
     36  N1N       -7.2540    3.0440   16.7570 N.pl3 377  NAJ377     -0.2608
     37  C2N       -6.2340    2.4620   16.0740 C.2   377  NAJ377      0.0678
     38  C3N       -4.9220    2.3860   16.6480 C.2   377  NAJ377      0.0537
     39  C7N       -3.7370    1.9270   15.9240 C.2   377  NAJ377      0.2818
     40  O7N       -2.7220    1.6780   16.6100 O.2   377  NAJ377     -0.2670
     41  N7N       -3.8090    1.8250   14.5470 N.am  377  NAJ377     -0.0839
     42  C4N       -4.7550    2.8360   18.0880 C.3   377  NAJ377      0.0597
     43  C5N       -5.8600    3.7950   18.4960 C.2   377  NAJ377     -0.0051
     44  C6N       -7.0250    3.7860   17.8740 C.2   377  NAJ377      0.0630
@<TRIPOS>BOND
     1    19    20    1
     2    19    17    2
     3    18    17    1
     4    20    21    1
     5    17    16    1
     6    21    22    2
     7    16    22    1
     8    16    15    2
     9    22    13    1
    10    15    14    1
    11    13    14    1
    12    13    12    1
    13    12     7    1
    14    12    10    1
    15     7     6    1
    16    11    10    1
    17    10     8    1
    18    41    39   am
    19     6     8    1
    20     6     5    1
    21    32    31    1
    22    29    30    1
    23    29    28    1
    24    29    31    1
    25     8     9    1
    26    30    35    1
    27     5     4    1
    28    28    27    1
    29    39    40    2
    30    39    38    1
    31    35    36    1
    32    35    33    1
    33    31    33    1
    34    37    38    2
    35    37    36    1
    36    38    42    1
    37     4     1    1
    38    36    44    1
    39    33    34    1
    40    27    24    1
    41    26    24    2
    42    44    43    2
    43    23     1    1
    44    23    24    1
    45     1     2    2
    46     1     3    1
    47    42    43    1
    48    24    25    1
