@<TRIPOS>MOLECULE
1n94_TIN_A_1.pdb
 38 40 0 0 0
SMALL
GASTEIGER

@<TRIPOS>ATOM
      1  C1        47.6960   52.9350   -1.5700 C.3     1  TIN1        0.0000
      2  C2        47.9690   51.4130   -1.6920 C.3     1  TIN1        0.0000
      3  C3        49.4790   51.0980   -1.5290 C.3     1  TIN1        0.0014
      4  C4        50.3400   51.8830   -2.5440 C.3     1  TIN1        0.0000
      5  C5        50.0940   53.4070   -2.4240 C.3     1  TIN1        0.0000
      6  C6        48.5870   53.7630   -2.5460 C.3     1  TIN1        0.0000
      7  C17       49.7340   49.5860   -1.6560 C.3     1  TIN1        0.0173
      8  C19       50.4210   48.9800   -0.4140 C.3     1  TIN1        0.0724
      9  N2        51.0880   47.6990   -0.7830 N.3     1  TIN1       -0.2690
     10  C25       50.5450   46.5510    0.0000 C.3     1  TIN1        0.0724
     11  C26       49.4630   45.8440   -0.8420 C.3     1  TIN1        0.0173
     12  C29       48.8230   44.6440   -0.1410 C.3     1  TIN1        0.0014
     13  C32       48.0000   43.7760   -1.1100 C.3     1  TIN1        0.0000
     14  C38       52.6160   47.7450   -0.8390 C.3     1  TIN1        0.0991
     15  C40       53.3460   48.3930    0.3360 C.ar    1  TIN1       -0.0061
     16  C43       53.8740   47.5700    1.3900 C.ar    1  TIN1       -0.0028
     17  C44       54.5420   48.1890    2.4960 C.ar    1  TIN1        0.0043
     18  C45       54.6680   49.6220    2.5340 C.ar    1  TIN1        0.0550
     19  C46       54.1390   50.4430    1.4620 C.ar    1  TIN1        0.0038
     20  C47       53.4810   49.8040    0.3750 C.ar    1  TIN1       -0.0028
     21  C51       54.2180   51.9260    1.4090 C.ar    1  TIN1       -0.0038
     22  C52       53.0910   52.7250    1.7800 C.ar    1  TIN1       -0.0218
     23  C53       53.1940   54.1440    1.7270 C.ar    1  TIN1       -0.0043
     24  C54       54.4050   54.7820    1.3070 C.ar    1  TIN1       -0.0003
     25  C55       55.5320   53.9920    0.9310 C.ar    1  TIN1       -0.0000
     26  C56       55.4270   52.5750    0.9870 C.ar    1  TIN1       -0.0003
     27  C65       55.3630   50.1820    3.7340 C.2     1  TIN1        0.2652
     28  C66       54.3100   51.5240    5.7660 C.3     1  TIN1        0.1989
     29  O67       56.5560   50.4810    3.7010 O.2     1  TIN1       -0.2684
     30  C68       52.9250   51.5820    6.3730 C.2     1  TIN1        0.3842
     31  O69       52.0520   50.8970    5.8700 O.co2   1  TIN1       -0.2437
     32  O70       52.7130   52.3130    7.3310 O.co2   1  TIN1       -0.2437
     33  N1        54.6550   50.3620    4.9050 N.am    1  TIN1       -0.1918
     34  C74       54.6460   52.8460    5.0700 C.3     1  TIN1        0.0449
     35  C76       54.7710   54.0290    6.0200 C.3     1  TIN1        0.0599
     36  S1        55.1420   55.5470    5.1620 S.3     1  TIN1       -0.1393
     37  C82       55.0830   56.6070    6.6160 C.3     1  TIN1        0.0692
     38  C7        51.7570   52.2490    2.3720 C.3     1  TIN1        0.0310
@<TRIPOS>BOND
     1     6     5    1
     2     6     1    1
     3     4     5    1
     4     4     3    1
     5     2     1    1
     6     2     3    1
     7     7     3    1
     8     7     8    1
     9    13    12    1
    10    11    12    1
    11    11    10    1
    12    14     9    1
    13    14    15    1
    14     9     8    1
    15     9    10    1
    16    15    20   ar
    17    15    16   ar
    18    20    19   ar
    19    25    26   ar
    20    25    24   ar
    21    26    21   ar
    22    24    23   ar
    23    16    17   ar
    24    21    19    1
    25    21    22   ar
    26    19    18   ar
    27    23    22   ar
    28    22    38    1
    29    17    18   ar
    30    18    27    1
    31    29    27    2
    32    27    33   am
    33    33    28    1
    34    34    28    1
    35    34    35    1
    36    36    35    1
    37    36    37    1
    38    28    30    1
    39    31    30   ar
    40    30    32   ar
