@<TRIPOS>MOLECULE
1n94_HFP_A_1.pdb
 20 19 0 0 0
SMALL
GASTEIGER

@<TRIPOS>ATOM
      1  P         50.3070   41.8640    3.1070 P.3   501  HFP501      0.1473
      2  O1P       49.0190   42.5390    3.1610 O.3   501  HFP501     -0.3555
      3  O2P       50.6830   41.1820    4.4650 O.3   501  HFP501     -0.3555
      4  O3P       50.3580   40.8060    1.9870 O.2   501  HFP501     -0.4576
      5  C1        51.5910   43.1250    2.7390 C.3   501  HFP501      0.2029
      6  O1        51.0440   44.1130    1.8450 O.3   501  HFP501     -0.2152
      7  C2        52.7740   42.4590    2.0710 C.3   501  HFP501      0.0405
      8  C3        54.0330   42.6060    2.5080 C.3   501  HFP501      0.0030
      9  C4        54.7590   41.4550    3.1570 C.3   501  HFP501      0.0001
     10  C5        54.7470   43.9410    2.3630 C.3   501  HFP501      0.0001
     11  C6        55.3520   44.1190    0.9400 C.3   501  HFP501      0.0000
     12  C7        56.5660   45.0350    0.9930 C.3   501  HFP501      0.0000
     13  C8        57.0640   45.6320   -0.1060 C.3   501  HFP501      0.0003
     14  C9        56.1920   45.8210   -1.3240 C.3   501  HFP501      0.0000
     15  C10       58.5100   46.1090   -0.1620 C.3   501  HFP501      0.0046
     16  C11       58.7220   47.3420    0.6850 C.3   501  HFP501      0.0254
     17  C12       60.1210   47.8940    0.4410 C.2   501  HFP501     -0.0346
     18  C13       60.5750   49.0360    1.0130 C.2   501  HFP501     -0.0478
     19  C14       59.7120   49.8430    1.9580 C.3   501  HFP501      0.0260
     20  C15       61.9800   49.5390    0.7370 C.3   501  HFP501      0.0260
@<TRIPOS>BOND
     1    14    13    1
     2    15    13    1
     3    15    16    1
     4    13    12    1
     5    17    16    1
     6    17    18    2
     7    20    18    1
     8    11    12    1
     9    11    10    1
    10    18    19    1
    11     6     5    1
    12     4     1    2
    13     7     8    1
    14     7     5    1
    15    10     8    1
    16     8     9    1
    17     5     1    1
    18     1     2    1
    19     1     3    1
