@<TRIPOS>MOLECULE
1n95_HFP_B_1.pdb
 20 19 0 0 0
SMALL
GASTEIGER

@<TRIPOS>ATOM
      1  P         51.5650   41.9370    0.0490 P.3   501  HFP501      0.1516
      2  O1P       50.2290   41.3480    0.0640 O.3   501  HFP501     -0.3553
      3  O2P       52.6540   40.9430   -0.4850 O.3   501  HFP501     -0.3553
      4  O3P       51.6010   43.2180   -0.8210 O.2   501  HFP501     -0.4573
      5  C1        51.9860   42.4170    1.8240 C.3   501  HFP501      0.2242
      6  O1        50.8210   42.9250    2.5480 O.3   501  HFP501     -0.2104
      7  C2        53.0390   43.4970    1.7830 C.2   501  HFP501      0.0051
      8  C3        54.0820   43.5510    2.6320 C.2   501  HFP501     -0.0450
      9  C4        54.2630   42.5560    3.7080 C.3   501  HFP501      0.0261
     10  C5        55.1380   44.6290    2.5410 C.3   501  HFP501      0.0264
     11  C6        55.5300   44.9840    1.0690 C.3   501  HFP501      0.0297
     12  C7        56.9140   45.6310    1.0430 C.2   501  HFP501     -0.0342
     13  C8        57.3320   46.3520   -0.0300 C.2   501  HFP501     -0.0478
     14  C9        56.4600   46.5000   -1.2630 C.3   501  HFP501      0.0260
     15  C10       58.7080   46.9850   -0.0600 C.3   501  HFP501      0.0263
     16  C11       58.7830   48.2030    0.7940 C.3   501  HFP501      0.0297
     17  C12       60.1320   48.8740    0.6400 C.2   501  HFP501     -0.0342
     18  C13       60.4800   50.0420    1.2840 C.2   501  HFP501     -0.0478
     19  C14       59.5470   50.7720    2.2440 C.3   501  HFP501      0.0260
     20  C15       61.8450   50.6750    1.0380 C.3   501  HFP501      0.0260
@<TRIPOS>BOND
     1    14    13    1
     2     4     1    2
     3     3     1    1
     4    15    13    1
     5    15    16    1
     6    13    12    2
     7     1     2    1
     8     1     5    1
     9    17    16    1
    10    17    18    2
    11    20    18    1
    12    12    11    1
    13    11    10    1
    14    18    19    1
    15     7     5    1
    16     7     8    2
    17     5     6    1
    18    10     8    1
    19     8     9    1
