@<TRIPOS>MOLECULE
1n95_FTH_B_1.pdb
 38 42 0 0 0
SMALL
GASTEIGER

@<TRIPOS>ATOM
      1  C1        46.6010   46.4380   -3.4140 C.3   1001  FTH1001     0.1317
      2  N2        47.9470   46.9410   -3.7430 N.ar  1001  FTH1001    -0.3104
      3  C3        48.6270   46.7630   -4.8790 C.ar  1001  FTH1001     0.1784
      4  N4        49.8220   47.3410   -4.8720 N.ar  1001  FTH1001    -0.2227
      5  C5        49.9430   47.9170   -3.6950 C.ar  1001  FTH1001     0.1134
      6  C6        48.7700   47.6730   -2.9740 C.ar  1001  FTH1001     0.0595
      7  C7        48.3470   48.1030   -1.5510 C.3   1001  FTH1001     0.0721
      8  C8        49.4760   48.5780   -0.6050 C.3   1001  FTH1001     0.1555
      9  N9        49.9860   49.8450   -1.0900 N.3   1001  FTH1001    -0.2051
     10  C10       49.6010   51.0270   -0.3570 C.3   1001  FTH1001     0.1155
     11  C11       49.6470   52.2480   -1.1790 C.ar  1001  FTH1001    -0.0047
     12  C12       50.7700   53.1130   -1.0950 C.ar  1001  FTH1001    -0.0022
     13  C13       50.8120   54.2890   -1.9100 C.ar  1001  FTH1001     0.0100
     14  C14       49.7330   54.5720   -2.8010 C.ar  1001  FTH1001     0.0684
     15  C15       49.7890   55.7460   -3.6060 C.1   1001  FTH1001     0.1004
     16  N16       49.8030   56.7240   -4.1910 N.1   1001  FTH1001    -0.1908
     17  C17       48.6040   53.7130   -2.8850 C.ar  1001  FTH1001     0.0100
     18  C18       48.5680   52.5460   -2.0700 C.ar  1001  FTH1001    -0.0022
     19  C19       50.5820   47.4720   -0.4130 C.2   1001  FTH1001     0.2459
     20  O20       50.4930   46.3350   -0.9000 O.2   1001  FTH1001    -0.2730
     21  N21       51.5930   47.7630    0.4060 N.am  1001  FTH1001    -0.2520
     22  C22       51.6850   47.0380    1.6000 C.3   1001  FTH1001     0.1252
     23  C23       53.0210   46.9850    2.2380 C.2   1001  FTH1001     0.0060
     24  C24       53.9880   48.0750    1.9450 C.2   1001  FTH1001     0.0671
     25  C25       53.7510   48.9900    0.9650 C.2   1001  FTH1001     0.0243
     26  C26       52.5430   48.8860    0.0740 C.2   1001  FTH1001     0.0685
     27  C27       54.6850   50.0940    0.7650 C.ar  1001  FTH1001     0.0019
     28  C28       55.9610   49.8600    0.1510 C.ar  1001  FTH1001     0.0001
     29  C29       56.8750   50.9330   -0.0450 C.ar  1001  FTH1001     0.0000
     30  C30       56.5650   52.2340    0.3760 C.ar  1001  FTH1001     0.0000
     31  C31       55.3120   52.4860    0.9940 C.ar  1001  FTH1001     0.0000
     32  C32       55.0010   53.8080    1.4070 C.ar  1001  FTH1001     0.0000
     33  C33       53.7430   54.0840    2.0110 C.ar  1001  FTH1001     0.0000
     34  C34       52.7880   53.0520    2.2100 C.ar  1001  FTH1001     0.0000
     35  C35       53.0760   51.7300    1.8140 C.ar  1001  FTH1001     0.0000
     36  C36       54.3570   51.4170    1.2100 C.ar  1001  FTH1001     0.0001
     37  C37       55.1330   48.1510    2.8500 C.1   1001  FTH1001     0.1002
     38  N38       56.1400   48.1620    3.4450 N.1   1001  FTH1001    -0.1908
@<TRIPOS>BOND
     1     3     4   ar
     2     3     2   ar
     3     4     5   ar
     4    16    15    3
     5     2     1    1
     6     2     6   ar
     7     5     6   ar
     8    15    14    1
     9     6     7    1
    10    17    14   ar
    11    17    18   ar
    12    14    13   ar
    13    18    11   ar
    14    13    12   ar
    15     7     8    1
    16    11    12   ar
    17    11    10    1
    18     9     8    1
    19     9    10    1
    20    20    19    2
    21     8    19    1
    22    19    21   am
    23    29    28   ar
    24    29    30   ar
    25    26    21    1
    26    26    25    2
    27    28    27   ar
    28    30    31   ar
    29    21    22    1
    30    27    25    1
    31    27    36   ar
    32    25    24    1
    33    31    36   ar
    34    31    32   ar
    35    36    35   ar
    36    32    33   ar
    37    22    23    1
    38    35    34   ar
    39    24    23    2
    40    24    37    1
    41    33    34   ar
    42    37    38    3
