@<TRIPOS>MOLECULE
1n9a_HFP_B_1.pdb
 20 19 0 0 0
SMALL
GASTEIGER

@<TRIPOS>ATOM
      1  P         51.5260   41.9080    0.0940 P.3   501  HFP501      0.1516
      2  O1P       50.2140   41.3360    0.1270 O.3   501  HFP501     -0.3553
      3  O2P       52.6340   40.9150   -0.4090 O.3   501  HFP501     -0.3553
      4  O3P       51.5470   43.1710   -0.7870 O.2   501  HFP501     -0.4573
      5  C1        51.9650   42.3910    1.8340 C.3   501  HFP501      0.2242
      6  O1        50.7830   42.8690    2.5120 O.3   501  HFP501     -0.2104
      7  C2        53.0060   43.5250    1.8190 C.2   501  HFP501      0.0051
      8  C3        54.0640   43.6020    2.6530 C.2   501  HFP501     -0.0450
      9  C4        54.2990   42.5580    3.6980 C.3   501  HFP501      0.0261
     10  C5        55.0450   44.7560    2.5590 C.3   501  HFP501      0.0264
     11  C6        55.5640   44.9410    1.0930 C.3   501  HFP501      0.0297
     12  C7        56.9250   45.6230    1.0490 C.2   501  HFP501     -0.0342
     13  C8        57.3270   46.3640   -0.0400 C.2   501  HFP501     -0.0478
     14  C9        56.4540   46.5060   -1.2610 C.3   501  HFP501      0.0260
     15  C10       58.6970   47.0180   -0.0740 C.3   501  HFP501      0.0263
     16  C11       58.7500   48.2500    0.7580 C.3   501  HFP501      0.0297
     17  C12       60.1130   48.8850    0.6160 C.2   501  HFP501     -0.0342
     18  C13       60.4630   50.0390    1.2490 C.2   501  HFP501     -0.0478
     19  C14       59.5030   50.7820    2.1830 C.3   501  HFP501      0.0260
     20  C15       61.8460   50.6490    1.0190 C.3   501  HFP501      0.0260
@<TRIPOS>BOND
     1    14    13    1
     2     4     1    2
     3     3     1    1
     4    15    13    1
     5    15    16    1
     6    13    12    2
     7     1     2    1
     8     1     5    1
     9    17    16    1
    10    17    18    2
    11    20    18    1
    12    12    11    1
    13    11    10    1
    14    18    19    1
    15     7     5    1
    16     7     8    2
    17     5     6    1
    18    10     8    1
    19     8     9    1
