@<TRIPOS>MOLECULE
1n9a_FTI_B_1.pdb
 35 39 0 0 0
SMALL
GASTEIGER

@<TRIPOS>ATOM
      1  C1        48.5240   51.5150   -2.6380 C.3     1  FTI1        0.0580
      2  C2        48.1480   50.2160   -1.9380 C.3     1  FTI1        0.0991
      3  N1        48.8390   49.9400   -0.5970 N.am    1  FTI1       -0.2747
      4  C3        49.6840   50.9510    0.0500 C.3     1  FTI1        0.1205
      5  C4        50.2940   51.9450   -0.9140 C.2     1  FTI1        0.0033
      6  C5        51.5490   52.5590   -0.4830 C.ar    1  FTI1       -0.0020
      7  C6        52.7710   51.8790   -0.5450 C.ar    1  FTI1       -0.0002
      8  C7        54.0280   52.5210   -0.1070 C.ar    1  FTI1       -0.0000
      9  C8        53.9920   53.8130    0.3690 C.ar    1  FTI1       -0.0000
     10  C9        52.7310   54.5040    0.4570 C.ar    1  FTI1       -0.0000
     11  C10       51.4900   53.9250    0.0420 C.ar    1  FTI1       -0.0003
     12  C11       55.2740   51.8460   -0.1900 C.ar    1  FTI1       -0.0000
     13  C12       48.6000   48.8260    0.1630 C.2     1  FTI1        0.2319
     14  C13       52.8090   50.5130   -1.0300 C.ar    1  FTI1       -0.0000
     15  C14       55.2790   50.5170   -0.6580 C.ar    1  FTI1       -0.0000
     16  C15       54.0530   49.8620   -1.0830 C.ar    1  FTI1       -0.0000
     17  C16       51.2410   46.1560    0.5010 C.3     1  FTI1        0.1340
     18  N2        50.7040   46.0350   -3.1260 N.ar    1  FTI1       -0.2227
     19  C17       51.4210   45.8860   -2.0050 C.ar    1  FTI1        0.1786
     20  N3        50.7830   46.3160   -0.8880 N.ar    1  FTI1       -0.3078
     21  C18       49.4550   46.8320   -1.3490 C.ar    1  FTI1        0.0671
     22  C19       49.4320   46.6510   -2.6940 C.ar    1  FTI1        0.1138
     23  C20       48.3120   47.4090   -0.5190 C.3     1  FTI1        0.1305
     24  C21       51.5350   48.1280    1.9960 C.ar    1  FTI1       -0.0017
     25  C22       52.0970   47.1960    1.1070 C.ar    1  FTI1        0.0005
     26  C23       53.4550   47.2100    0.8430 C.ar    1  FTI1       -0.0017
     27  C24       54.3120   48.1580    1.4810 C.ar    1  FTI1        0.0100
     28  C25       53.7640   49.1200    2.3700 C.ar    1  FTI1        0.0684
     29  C26       52.3540   49.1100    2.6470 C.ar    1  FTI1        0.0100
     30  C27       54.6130   50.1100    2.9700 C.1     1  FTI1        0.1004
     31  N4        55.2660   50.9510    3.4180 N.1     1  FTI1       -0.1908
     32  C28       49.7420   52.2080   -2.1700 C.2     1  FTI1        0.0455
     33  O1        48.5630   48.8690    1.4030 O.2     1  FTI1       -0.2744
     34  C29       50.3290   53.1240   -3.1160 C.1     1  FTI1        0.0959
     35  N5        50.7780   53.9700   -3.7570 N.1     1  FTI1       -0.1912
@<TRIPOS>BOND
     1    35    34    3
     2    18    22   ar
     3    18    19   ar
     4    34    32    1
     5    22    21   ar
     6     1    32    1
     7     1     2    1
     8    32     5    2
     9    19    20   ar
    10     2     3    1
    11    21    20   ar
    12    21    23    1
    13    16    14   ar
    14    16    15   ar
    15    14     7   ar
    16     5     6    1
    17     5     4    1
    18    20    17    1
    19    15    12   ar
    20     3     4    1
    21     3    13   am
    22     7     6   ar
    23     7     8   ar
    24    23    13    1
    25     6    11   ar
    26    12     8   ar
    27     8     9   ar
    28    11    10   ar
    29    13    33    2
    30     9    10   ar
    31    17    25    1
    32    26    25   ar
    33    26    27   ar
    34    25    24   ar
    35    27    28   ar
    36    24    29   ar
    37    28    29   ar
    38    28    30    1
    39    30    31    3
