@<TRIPOS>MOLECULE
1n9b_MA4_A_1.pdb
 35 37 0 0 0
SMALL
GASTEIGER

@<TRIPOS>ATOM
      1  C1       -10.6970  -25.3950   43.6140 C.3   300  MA4300      0.2695
      2  C2       -11.2010  -24.7220   42.3190 C.3   300  MA4300      0.2406
      3  C3       -10.9270  -23.2420   42.3430 C.3   300  MA4300      0.2198
      4  C4       -11.3310  -22.5650   43.6590 C.3   300  MA4300      0.2144
      5  C5       -10.8210  -23.3660   44.8630 C.3   300  MA4300      0.1835
      6  C6       -11.3670  -22.8240   46.1560 C.3   300  MA4300      0.2142
      7  O2       -10.5700  -25.3530   41.1650 O.3   300  MA4300     -0.2149
      8  O3       -11.6270  -22.6480   41.2250 O.3   300  MA4300     -0.2174
      9  O5       -11.1950  -24.7110   44.7650 O.3   300  MA4300     -0.3256
     10  O6       -12.7940  -22.8420   46.1350 O.3   300  MA4300     -0.2176
     11  O1        -9.2790  -25.3570   43.5830 O.3   300  MA4300     -0.3257
     12  O4       -10.8010  -21.2690   43.7130 O.3   300  MA4300     -0.2176
     13  C10       -6.0330  -27.7540   44.1620 C.3   300  MA4300      0.2695
     14  C20       -6.7990  -28.0660   42.8880 C.3   300  MA4300      0.2404
     15  C30       -7.6930  -26.8770   42.6120 C.3   300  MA4300      0.2167
     16  C40       -8.5590  -26.5890   43.8300 C.3   300  MA4300      0.1804
     17  C50       -7.7780  -26.4560   45.0820 C.3   300  MA4300      0.1803
     18  C60       -8.6210  -26.3770   46.3520 C.3   300  MA4300      0.2141
     19  O10       -5.2100  -28.8560   44.4600 O.3   300  MA4300     -0.3286
     20  O20       -5.9510  -28.3480   41.8070 O.3   300  MA4300     -0.2149
     21  O30       -8.4990  -27.1670   41.4870 O.3   300  MA4300     -0.2175
     22  O50       -6.9350  -27.5860   45.2370 O.3   300  MA4300     -0.3257
     23  O60       -9.4970  -27.5330   46.3830 O.3   300  MA4300     -0.2176
     24  C11       -4.2410  -28.5760   45.4870 C.3   300  MA4300      0.1449
     25  C21       -2.8900  -28.4740   44.8300 C.3   300  MA4300      0.0325
     26  C31       -1.9340  -28.1320   45.9740 C.3   300  MA4300      0.0072
     27  C41       -0.9070  -27.1290   45.4930 C.3   300  MA4300      0.0258
     28  C51        0.2430  -26.9910   46.4410 C.2   300  MA4300     -0.0307
     29  C61        0.4890  -27.9680   47.5320 C.2   300  MA4300     -0.0310
     30  C12        1.7580  -27.7400   48.3440 C.3   300  MA4300      0.0217
     31  C22        1.5300  -28.1060   49.8090 C.3   300  MA4300      0.0043
     32  C32        1.1390  -26.9300   50.7160 C.3   300  MA4300      0.0003
     33  C42        1.9220  -25.6670   50.4920 C.3   300  MA4300      0.0000
     34  C52        1.9460  -25.2910   49.0270 C.3   300  MA4300      0.0003
     35  C62        2.3600  -26.4010   48.0880 C.3   300  MA4300      0.0043
@<TRIPOS>BOND
     1     7     2    1
     2     8     3    1
     3    21    15    1
     4    20    14    1
     5     2     3    1
     6     2     1    1
     7     3     4    1
     8    15    14    1
     9    15    16    1
    10    14    13    1
    11    11     1    1
    12    11    16    1
    13     1     9    1
    14     4    12    1
    15     4     5    1
    16    16    17    1
    17    13    19    1
    18    13    22    1
    19    19    24    1
    20     9     5    1
    21    25    24    1
    22    25    26    1
    23     5     6    1
    24    17    22    1
    25    17    18    1
    26    27    26    1
    27    27    28    1
    28    10     6    1
    29    18    23    1
    30    28    29    2
    31    29    30    1
    32    35    30    1
    33    35    34    1
    34    30    31    1
    35    34    33    1
    36    31    32    1
    37    33    32    1
