@<TRIPOS>MOLECULE
1n9f_HEM_A_1.pdb
 43 50 0 0 0
SMALL
GASTEIGER

@<TRIPOS>ATOM
      1 FE         34.9430    4.0310   10.1180 Fe    200  HEM200      0.0000
      2  CHA       37.6430    2.2520   11.2810 C.2   200  HEM200      0.0000
      3  CHB       36.8670    5.2260    7.5140 C.2   200  HEM200      0.0000
      4  CHC       32.3360    5.9720    9.0300 C.2   200  HEM200      0.0000
      5  CHD       33.0540    2.9240   12.7020 C.2   200  HEM200      0.0000
      6  NA        36.8540    3.8080    9.5470 N.ar  200  HEM200      0.0000
      7  C1A       37.8170    2.9980   10.1250 C.ar  200  HEM200      0.0000
      8  C2A       39.0220    3.0450    9.3200 C.ar  200  HEM200      0.0000
      9  C3A       38.7980    3.8610    8.2920 C.ar  200  HEM200      0.0000
     10  C4A       37.4510    4.3550    8.4130 C.ar  200  HEM200      0.0000
     11  CMA       39.7370    4.2740    7.1350 C.3   200  HEM200      0.0000
     12  CAA       40.3050    2.2370    9.6340 C.3   200  HEM200      0.0000
     13  CBA       40.4170    0.9840    8.7110 C.3   200  HEM200      0.0000
     14  CGA       39.1870    0.1100    8.6550 C.2   200  HEM200      0.0000
     15  O1A       38.8970   -0.5530    9.6820 O.co2 200  HEM200      0.0000
     16  O2A       38.4920    0.0970    7.5940 O.co2 200  HEM200      0.0000
     17  NB        34.6710    5.3190    8.5800 N.2   200  HEM200      0.0000
     18  C1B       35.5620    5.6630    7.5910 C.2   200  HEM200      0.0000
     19  C2B       34.9310    6.5800    6.6510 C.2   200  HEM200      0.0000
     20  C3B       33.6720    6.7940    7.0780 C.2   200  HEM200      0.0000
     21  C4B       33.5000    6.0120    8.2900 C.2   200  HEM200      0.0000
     22  CMB       35.6460    7.1590    5.4140 C.3   200  HEM200      0.0000
     23  CAB       32.5750    7.6580    6.4640 C.2   200  HEM200      0.0000
     24  CBB       32.8640    8.8970    6.0200 C.2   200  HEM200      0.0000
     25  NC        33.0590    4.3360   10.7120 N.ar  200  HEM200      0.0000
     26  C1C       32.1670    5.2720   10.2040 C.ar  200  HEM200      0.0000
     27  C2C       31.0350    5.4000   11.0990 C.ar  200  HEM200      0.0000
     28  C3C       31.2270    4.5710   12.1330 C.ar  200  HEM200      0.0000
     29  C4C       32.4860    3.8880   11.8940 C.ar  200  HEM200      0.0000
     30  CMC       29.8370    6.3530   10.8510 C.3   200  HEM200      0.0000
     31  CAC       30.3640    4.2870   13.3690 C.2   200  HEM200      0.0000
     32  CBC       29.2350    4.8810   13.7340 C.2   200  HEM200      0.0000
     33  ND        35.2740    2.7780   11.6440 N.2   200  HEM200      0.0000
     34  C1D       34.3780    2.5340   12.6640 C.2   200  HEM200      0.0000
     35  C2D       35.0410    1.7690   13.6940 C.2   200  HEM200      0.0000
     36  C3D       36.2990    1.5950   13.3130 C.2   200  HEM200      0.0000
     37  C4D       36.4770    2.2180   12.0170 C.2   200  HEM200      0.0000
     38  CMD       34.3420    1.3040   14.9970 C.3   200  HEM200      0.0000
     39  CAD       37.4420    0.8780   14.0850 C.3   200  HEM200      0.0000
     40  CBD       38.1270    2.0330   14.9010 C.3   200  HEM200      0.0000
     41  CGD       39.1910    1.6320   15.8710 C.2   200  HEM200      0.0000
     42  O1D       39.0500    1.9070   17.0920 O.co2 200  HEM200      0.0000
     43  O2D       40.1800    1.0330   15.3900 O.co2 200  HEM200      0.0000
@<TRIPOS>BOND
     1    22    19    1
     2    24    23    2
     3    23    20    1
     4    19    20    2
     5    19    18    1
     6    20    21    1
     7    11     9    1
     8     3    18    1
     9     3    10    2
    10    18    17    2
    11    16    14   ar
    12    21    17    1
    13    21     4    2
    14     9    10   ar
    15     9     8   ar
    16    10     6   ar
    17    17     1    1
    18    14    13    1
    19    14    15   ar
    20    13    12    1
    21     4    26    1
    22     8    12    1
    23     8     7   ar
    24     6     1    1
    25     6     7   ar
    26     1    25    1
    27     1    33    1
    28     7     2    2
    29    26    25   ar
    30    26    27   ar
    31    25    29   ar
    32    30    27    1
    33    27    28   ar
    34     2    37    1
    35    33    37    2
    36    33    34    1
    37    29    28   ar
    38    29     5    1
    39    37    36    1
    40    28    31    1
    41    34     5    2
    42    34    35    1
    43    36    35    2
    44    36    39    1
    45    31    32    2
    46    35    38    1
    47    39    40    1
    48    40    41    1
    49    43    41   ar
    50    41    42   ar
