@<TRIPOS>MOLECULE
1n9g_NAP_A_1.pdb
 48 52 0 0 0
SMALL
GASTEIGER

@<TRIPOS>ATOM
      1  PA        79.8980    6.0980    7.0360 P.3   2387  NAP2387     0.2189
      2  O1A       81.2560    6.4580    6.6400 O.2   2387  NAP2387    -0.5170
      3  O2A       79.7280    5.9470    8.5450 O.3   2387  NAP2387    -0.4371
      4  O5B       78.8030    7.1550    6.4410 O.3   2387  NAP2387    -0.3112
      5  C5B       77.3980    7.0220    6.6350 C.3   2387  NAP2387     0.1813
      6  C4B       76.5780    7.9280    5.7060 C.3   2387  NAP2387     0.1820
      7  O4B       75.1800    7.7770    5.9170 O.3   2387  NAP2387    -0.3136
      8  C3B       76.8730    9.4020    5.9090 C.3   2387  NAP2387     0.2157
      9  O3B       77.0310    9.9410    4.6260 O.3   2387  NAP2387    -0.2175
     10  C2B       75.6460    9.9520    6.6040 C.3   2387  NAP2387     0.2314
     11  O2B       75.4560   11.3370    6.3810 O.3   2387  NAP2387    -0.2630
     12  C1B       74.5790    9.0560    5.9810 C.3   2387  NAP2387     0.3158
     13  N9A       73.3100    9.0130    6.7240 N.pl3 2387  NAP2387    -0.1439
     14  C8A       73.1120    8.6220    8.0260 C.3   2387  NAP2387     0.3377
     15  N7A       71.7930    8.7280    8.3070 N.2   2387  NAP2387    -0.2095
     16  C5A       71.1470    9.1810    7.2050 C.2   2387  NAP2387     0.2526
     17  C6A       69.8090    9.4660    6.9450 C.2   2387  NAP2387     0.4393
     18  N6A       68.8900    9.2970    7.8860 N.pl3 2387  NAP2387     0.2180
     19  N1A       69.4430    9.9230    5.6940 N.2   2387  NAP2387     0.0021
     20  C2A       70.3940   10.1010    4.7060 C.3   2387  NAP2387     0.5254
     21  N3A       71.7220    9.8120    4.9680 N.2   2387  NAP2387    -0.0055
     22  C4A       72.0900    9.3590    6.1980 C.2   2387  NAP2387     0.3518
     23  O3        79.5120    4.6830    6.4060 O.3   2387  NAP2387    -0.2703
     24  PN        80.3010    3.8470    5.2780 P.3   2387  NAP2387     0.2189
     25  O1N       80.7480    4.7030    4.1590 O.2   2387  NAP2387    -0.5170
     26  O2N       81.2270    2.9040    6.0060 O.3   2387  NAP2387    -0.4371
     27  O5D       79.0760    3.0280    4.6130 O.3   2387  NAP2387    -0.3112
     28  C5D       77.8050    3.0020    5.2300 C.3   2387  NAP2387     0.1813
     29  C4D       76.6350    2.7120    4.2880 C.3   2387  NAP2387     0.1799
     30  O4D       77.0290    2.0530    3.1000 O.3   2387  NAP2387    -0.3327
     31  C3D       75.7080    1.7600    5.0010 C.3   2387  NAP2387     0.2158
     32  O3D       74.4100    2.0290    4.5340 O.3   2387  NAP2387    -0.2175
     33  C2D       76.2480    0.4030    4.5780 C.3   2387  NAP2387     0.2309
     34  O2D       75.3260   -0.6500    4.6970 O.3   2387  NAP2387    -0.2158
     35  C1D       76.6150    0.6910    3.1350 C.3   2387  NAP2387     0.2263
     36  N1N       77.6370   -0.2350    2.6060 N.pl3 2387  NAP2387    -0.2787
     37  C2N       77.1970   -1.3770    2.0000 C.3   2387  NAP2387     0.1244
     38  C3N       78.1040   -2.2870    1.4560 C.2   2387  NAP2387     0.0544
     39  C7N       77.6290   -3.2090    0.3730 C.2   2387  NAP2387     0.2818
     40  O7N       78.6090   -3.8090   -0.4260 O.2   2387  NAP2387    -0.2670
     41  N7N       76.3290   -3.4000    0.1920 N.am  2387  NAP2387    -0.0839
     42  C4N       79.4720   -2.0210    1.5440 C.2   2387  NAP2387     0.0033
     43  C5N       79.9050   -0.8540    2.1650 C.2   2387  NAP2387     0.0157
     44  C6N       78.9760    0.0340    2.6900 C.2   2387  NAP2387     0.0633
     45  P2B       75.9410   12.5010    7.3960 P.3   2387  NAP2387     0.5328
     46  O1X       75.1680   13.7210    7.1170 O.2   2387  NAP2387    -0.2224
     47  O2X       77.4350   12.7640    7.1630 O.3   2387  NAP2387    -0.1145
     48  O3X       75.7150   12.1040    8.8650 O.3   2387  NAP2387    -0.1145
@<TRIPOS>BOND
     1    40    39    2
     2    41    39   am
     3    39    38    1
     4    38    42    2
     5    38    37    1
     6    42    43    1
     7    37    36    1
     8    43    44    2
     9    36    44    1
    10    36    35    1
    11    30    35    1
    12    30    29    1
    13    35    33    1
    14    25    24    2
    15    29    31    1
    16    29    28    1
    17    32    31    1
    18    33    34    1
    19    33    31    1
    20    27    28    1
    21    27    24    1
    22     9     8    1
    23    20    21    1
    24    20    19    1
    25    21    22    2
    26    24    26    1
    27    24    23    1
    28    19    17    2
    29     6     8    1
    30     6     7    1
    31     6     5    1
    32     8    10    1
    33     7    12    1
    34    12    10    1
    35    12    13    1
    36    22    13    1
    37    22    16    1
    38    11    10    1
    39    11    45    1
    40    23     1    1
    41     4     5    1
    42     4     1    1
    43     2     1    2
    44    13    14    1
    45    17    16    1
    46    17    18    1
    47     1     3    1
    48    46    45    2
    49    47    45    1
    50    16    15    2
    51    45    48    1
    52    14    15    1
