@<TRIPOS>MOLECULE
1n9h_HEM_A_1.pdb
 43 50 0 0 0
SMALL
GASTEIGER

@<TRIPOS>ATOM
      1 FE         35.0000    4.0370   10.0700 Fe    200  HEM200      0.0000
      2  CHA       37.7030    2.3210   11.2920 C.2   200  HEM200      0.0000
      3  CHB       36.9300    5.2420    7.5010 C.2   200  HEM200      0.0000
      4  CHC       32.3870    5.9640    9.0260 C.2   200  HEM200      0.0000
      5  CHD       33.1260    2.9390   12.7090 C.2   200  HEM200      0.0000
      6  NA        36.9260    3.8590    9.5350 N.ar  200  HEM200      0.0000
      7  C1A       37.8750    3.0400   10.1290 C.ar  200  HEM200      0.0000
      8  C2A       39.0810    3.0650    9.3350 C.ar  200  HEM200      0.0000
      9  C3A       38.8650    3.8640    8.2810 C.ar  200  HEM200      0.0000
     10  C4A       37.5260    4.3780    8.3970 C.ar  200  HEM200      0.0000
     11  CMA       39.8530    4.2070    7.1410 C.3   200  HEM200      0.0000
     12  CAA       40.3600    2.2350    9.6420 C.3   200  HEM200      0.0000
     13  CBA       40.4110    1.0080    8.6770 C.3   200  HEM200      0.0000
     14  CGA       39.1540    0.1580    8.6590 C.2   200  HEM200      0.0000
     15  O1A       38.9100   -0.5510    9.6680 O.co2 200  HEM200      0.0000
     16  O2A       38.4510    0.1800    7.6250 O.co2 200  HEM200      0.0000
     17  NB        34.7170    5.3320    8.5780 N.2   200  HEM200      0.0000
     18  C1B       35.6220    5.6750    7.5880 C.2   200  HEM200      0.0000
     19  C2B       34.9890    6.5880    6.6630 C.2   200  HEM200      0.0000
     20  C3B       33.7380    6.7970    7.0780 C.2   200  HEM200      0.0000
     21  C4B       33.5520    6.0130    8.2820 C.2   200  HEM200      0.0000
     22  CMB       35.7050    7.1750    5.4260 C.3   200  HEM200      0.0000
     23  CAB       32.6300    7.6700    6.4770 C.2   200  HEM200      0.0000
     24  CBB       32.9420    8.8440    5.9100 C.2   200  HEM200      0.0000
     25  NC        33.1170    4.3450   10.7110 N.ar  200  HEM200      0.0000
     26  C1C       32.2110    5.2700   10.2090 C.ar  200  HEM200      0.0000
     27  C2C       31.0740    5.3850   11.0920 C.ar  200  HEM200      0.0000
     28  C3C       31.2830    4.5510   12.1220 C.ar  200  HEM200      0.0000
     29  C4C       32.5490    3.8860   11.8900 C.ar  200  HEM200      0.0000
     30  CMC       29.8680    6.3140   10.8490 C.3   200  HEM200      0.0000
     31  CAC       30.4230    4.2530   13.3610 C.2   200  HEM200      0.0000
     32  CBC       29.3320    4.9290   13.7030 C.2   200  HEM200      0.0000
     33  ND        35.3340    2.8330   11.6430 N.2   200  HEM200      0.0000
     34  C1D       34.4390    2.5400   12.6640 C.2   200  HEM200      0.0000
     35  C2D       35.1040    1.7710   13.6880 C.2   200  HEM200      0.0000
     36  C3D       36.3650    1.6020   13.2960 C.2   200  HEM200      0.0000
     37  C4D       36.5320    2.2680   12.0220 C.2   200  HEM200      0.0000
     38  CMD       34.4030    1.2780   14.9710 C.3   200  HEM200      0.0000
     39  CAD       37.5320    0.8960   14.0500 C.3   200  HEM200      0.0000
     40  CBD       38.1110    1.9790   15.0060 C.3   200  HEM200      0.0000
     41  CGD       39.2830    1.6480   15.8660 C.2   200  HEM200      0.0000
     42  O1D       39.1960    1.9480   17.0860 O.co2 200  HEM200      0.0000
     43  O2D       40.2750    1.1060   15.3230 O.co2 200  HEM200      0.0000
@<TRIPOS>BOND
     1    22    19    1
     2    24    23    2
     3    23    20    1
     4    19    20    2
     5    19    18    1
     6    20    21    1
     7    11     9    1
     8     3    18    1
     9     3    10    2
    10    18    17    2
    11    16    14   ar
    12     9    10   ar
    13     9     8   ar
    14    21    17    1
    15    21     4    2
    16    10     6   ar
    17    17     1    1
    18    14    13    1
    19    14    15   ar
    20    13    12    1
    21     4    26    1
    22     8    12    1
    23     8     7   ar
    24     6     1    1
    25     6     7   ar
    26     1    25    1
    27     1    33    1
    28     7     2    2
    29    26    25   ar
    30    26    27   ar
    31    25    29   ar
    32    30    27    1
    33    27    28   ar
    34     2    37    1
    35    33    37    2
    36    33    34    1
    37    29    28   ar
    38    29     5    1
    39    37    36    1
    40    28    31    1
    41    34     5    2
    42    34    35    1
    43    36    35    2
    44    36    39    1
    45    31    32    2
    46    35    38    1
    47    39    40    1
    48    40    41    1
    49    43    41   ar
    50    41    42   ar
