@<TRIPOS>MOLECULE
1n9i_HEM_A_1.pdb
 43 50 0 0 0
SMALL
GASTEIGER

@<TRIPOS>ATOM
      1 FE         34.8970    4.0150   10.0670 Fe    200  HEM200      0.0000
      2  CHA       37.5940    2.2800   11.2640 C.2   200  HEM200      0.0000
      3  CHB       36.8220    5.2320    7.5000 C.2   200  HEM200      0.0000
      4  CHC       32.2660    5.9320    8.9900 C.2   200  HEM200      0.0000
      5  CHD       33.0200    2.9190   12.6870 C.2   200  HEM200      0.0000
      6  NA        36.8230    3.8310    9.5200 N.ar  200  HEM200      0.0000
      7  C1A       37.7750    3.0080   10.1040 C.ar  200  HEM200      0.0000
      8  C2A       38.9840    3.0450    9.3060 C.ar  200  HEM200      0.0000
      9  C3A       38.7670    3.8460    8.2640 C.ar  200  HEM200      0.0000
     10  C4A       37.4190    4.3610    8.3880 C.ar  200  HEM200      0.0000
     11  CMA       39.7160    4.2350    7.1080 C.3   200  HEM200      0.0000
     12  CAA       40.2660    2.2210    9.6070 C.3   200  HEM200      0.0000
     13  CBA       40.3280    0.9850    8.6520 C.3   200  HEM200      0.0000
     14  CGA       39.0830    0.1240    8.6160 C.2   200  HEM200      0.0000
     15  O1A       38.8270   -0.5730    9.6330 O.co2 200  HEM200      0.0000
     16  O2A       38.3930    0.1380    7.5660 O.co2 200  HEM200      0.0000
     17  NB        34.6080    5.3190    8.5660 N.2   200  HEM200      0.0000
     18  C1B       35.5120    5.6600    7.5740 C.2   200  HEM200      0.0000
     19  C2B       34.8750    6.5560    6.6270 C.2   200  HEM200      0.0000
     20  C3B       33.6240    6.7520    7.0400 C.2   200  HEM200      0.0000
     21  C4B       33.4350    5.9830    8.2570 C.2   200  HEM200      0.0000
     22  CMB       35.6020    7.1240    5.3850 C.3   200  HEM200      0.0000
     23  CAB       32.5190    7.6110    6.4030 C.2   200  HEM200      0.0000
     24  CBB       32.7980    8.8490    5.9790 C.2   200  HEM200      0.0000
     25  NC        33.0040    4.3160   10.6820 N.ar  200  HEM200      0.0000
     26  C1C       32.1010    5.2370   10.1770 C.ar  200  HEM200      0.0000
     27  C2C       30.9730    5.3650   11.0770 C.ar  200  HEM200      0.0000
     28  C3C       31.1800    4.5400   12.1090 C.ar  200  HEM200      0.0000
     29  C4C       32.4430    3.8680   11.8740 C.ar  200  HEM200      0.0000
     30  CMC       29.7810    6.3120   10.8260 C.3   200  HEM200      0.0000
     31  CAC       30.3300    4.2530   13.3600 C.2   200  HEM200      0.0000
     32  CBC       29.1760    4.8620   13.6340 C.2   200  HEM200      0.0000
     33  ND        35.2280    2.8060   11.6270 N.2   200  HEM200      0.0000
     34  C1D       34.3350    2.5200   12.6480 C.2   200  HEM200      0.0000
     35  C2D       35.0050    1.7630   13.6790 C.2   200  HEM200      0.0000
     36  C3D       36.2620    1.5890   13.2840 C.2   200  HEM200      0.0000
     37  C4D       36.4330    2.2370   12.0050 C.2   200  HEM200      0.0000
     38  CMD       34.3060    1.2860   14.9750 C.3   200  HEM200      0.0000
     39  CAD       37.4180    0.8820   14.0570 C.3   200  HEM200      0.0000
     40  CBD       38.0270    1.9820   14.9750 C.3   200  HEM200      0.0000
     41  CGD       39.1770    1.6190   15.8600 C.2   200  HEM200      0.0000
     42  O1D       39.0970    1.9850   17.0660 O.co2 200  HEM200      0.0000
     43  O2D       40.1290    0.9880   15.3370 O.co2 200  HEM200      0.0000
@<TRIPOS>BOND
     1    22    19    1
     2    24    23    2
     3    23    20    1
     4    19    20    2
     5    19    18    1
     6    20    21    1
     7    11     9    1
     8     3    18    1
     9     3    10    2
    10    16    14   ar
    11    18    17    2
    12    21    17    1
    13    21     4    2
    14     9    10   ar
    15     9     8   ar
    16    10     6   ar
    17    17     1    1
    18    14    13    1
    19    14    15   ar
    20    13    12    1
    21     4    26    1
    22     8    12    1
    23     8     7   ar
    24     6     1    1
    25     6     7   ar
    26     1    25    1
    27     1    33    1
    28     7     2    2
    29    26    25   ar
    30    26    27   ar
    31    25    29   ar
    32    30    27    1
    33    27    28   ar
    34     2    37    1
    35    33    37    2
    36    33    34    1
    37    29    28   ar
    38    29     5    1
    39    37    36    1
    40    28    31    1
    41    34     5    2
    42    34    35    1
    43    36    35    2
    44    36    39    1
    45    31    32    2
    46    35    38    1
    47    39    40    1
    48    40    41    1
    49    43    41   ar
    50    41    42   ar
