@<TRIPOS>MOLECULE
1n9l_FMN_A_1.pdb
 31 33 0 0 0
SMALL
GASTEIGER

@<TRIPOS>ATOM
      1  N1        11.9200   52.3910   17.0070 N.2   500  FMN500     -0.2890
      2  C2        11.5420   53.1350   15.9310 C.1   500  FMN500      0.3669
      3  O2        10.5370   53.7650   15.8550 O.2   500  FMN500     -0.1744
      4  N3        12.4000   53.1920   14.7710 N.2   500  FMN500     -0.2300
      5  C4        13.6090   52.5460   14.6510 C.1   500  FMN500      0.2513
      6  O4        14.3020   52.6370   13.6060 O.2   500  FMN500     -0.2057
      7  C4A       14.0420   51.7510   15.8010 C.2   500  FMN500      0.2700
      8  N5        15.1930   51.1050   15.7810 N.2   500  FMN500     -0.3878
      9  C5A       15.5690   50.3610   16.8760 C.2   500  FMN500      0.1320
     10  C6        16.8420   49.6520   16.8470 C.2   500  FMN500      0.0250
     11  C7        17.2770   48.8900   17.9190 C.2   500  FMN500     -0.0238
     12  C7M       18.6180   48.1200   17.9360 C.3   500  FMN500      0.0308
     13  C8        16.4330   48.7830   19.1480 C.2   500  FMN500     -0.0280
     14  C8M       16.8650   47.9680   20.3580 C.3   500  FMN500      0.0304
     15  C9        15.2010   49.4460   19.2030 C.2   500  FMN500     -0.0041
     16  C9A       14.7420   50.2400   18.1070 C.3   500  FMN500      0.1497
     17  N10       13.4910   50.9560   18.0720 N.pl3 500  FMN500     -0.2691
     18  C10       13.1060   51.7220   16.9790 C.2   500  FMN500      0.2416
     19  C1'       12.5120   50.9120   19.2200 C.3   500  FMN500      0.1294
     20  C2'       12.7790   51.9170   20.3440 C.3   500  FMN500      0.2044
     21  O2'       14.1790   52.1290   20.5090 O.3   500  FMN500     -0.2185
     22  C3'       12.2180   51.3810   21.6890 C.3   500  FMN500      0.2164
     23  O3'       12.8100   50.0230   21.8930 O.3   500  FMN500     -0.2175
     24  C4'       10.7480   51.1040   21.7300 C.3   500  FMN500      0.2147
     25  O4'        9.9230   52.2610   21.3990 O.3   500  FMN500     -0.2176
     26  C5'       10.4410   50.5810   23.1450 C.3   500  FMN500      0.1892
     27  O5'        9.3010   51.1820   23.7360 O.3   500  FMN500     -0.2674
     28  P          9.2780   52.5350   24.5440 P.3   500  FMN500      0.5327
     29  O1P        9.7330   53.6340   23.6220 O.2   500  FMN500     -0.2224
     30  O2P       10.1970   52.4250   25.7910 O.3   500  FMN500     -0.1145
     31  O3P        7.7910   52.5950   24.8930 O.3   500  FMN500     -0.1145
@<TRIPOS>BOND
     1     6     5    2
     2     5     4    2
     3     5     7    1
     4     4     2    2
     5     8     7    2
     6     8     9    2
     7     7    18    1
     8     3     2    2
     9     2     1    2
    10    10     9    1
    11    10    11    2
    12     9    16    1
    13    18     1    2
    14    18    17    1
    15    11    12    1
    16    11    13    1
    17    17    16    1
    18    17    19    1
    19    16    15    1
    20    13    15    2
    21    13    14    1
    22    19    20    1
    23    20    21    1
    24    20    22    1
    25    25    24    1
    26    22    24    1
    27    22    23    1
    28    24    26    1
    29    26    27    1
    30    29    28    2
    31    27    28    1
    32    28    31    1
    33    28    30    1
