@<TRIPOS>MOLECULE
1n9m_BTN_A_1.pdb
 16 17 0 0 0
SMALL
GASTEIGER

@<TRIPOS>ATOM
      1  C11       17.5910   19.2890   32.1550 C.2   5100  BTN5100     0.3649
      2  O11       18.3220   20.2080   31.6920 O.co2 5100  BTN5100    -0.2457
      3  O12       16.3490   19.2480   31.9060 O.co2 5100  BTN5100    -0.2457
      4  C10       18.2070   18.2580   33.0180 C.3   5100  BTN5100     0.1141
      5  C9        19.7000   18.0010   32.7400 C.3   5100  BTN5100     0.0118
      6  C8        19.8460   17.1860   31.4540 C.3   5100  BTN5100     0.0015
      7  C7        21.2610   16.5720   31.2820 C.3   5100  BTN5100     0.0129
      8  C2        21.3960   15.6170   30.0880 C.3   5100  BTN5100     0.0729
      9  S1        20.7650   13.9110   30.3710 S.3   5100  BTN5100    -0.1369
     10  C6        21.4720   13.4010   28.7790 C.3   5100  BTN5100     0.0848
     11  C5        22.8320   14.0730   28.6830 C.3   5100  BTN5100     0.1509
     12  N1        23.9080   13.3210   29.3080 N.2   5100  BTN5100    -0.1859
     13  C3        24.4610   14.0040   30.3260 C.1   5100  BTN5100     0.2386
     14  O3        25.3840   13.5830   31.0710 O.2   5100  BTN5100    -0.2023
     15  N2        23.8270   15.1890   30.4850 N.2   5100  BTN5100    -0.1860
     16  C4        22.7740   15.3920   29.4990 C.3   5100  BTN5100     0.1500
@<TRIPOS>BOND
     1    11    10    1
     2    11    12    1
     3    11    16    1
     4    10     9    1
     5    12    13    2
     6    16     8    1
     7    16    15    1
     8     8     9    1
     9     8     7    1
    10    13    15    2
    11    13    14    2
    12     7     6    1
    13     6     5    1
    14     2     1   ar
    15     3     1   ar
    16     1     4    1
    17     5     4    1
