@<TRIPOS>MOLECULE
1n9n_FMN_A_1.pdb
 31 33 0 0 0
SMALL
GASTEIGER

@<TRIPOS>ATOM
      1  N1        11.8660   52.0250   16.9090 N.2   500  FMN500     -0.2890
      2  C2        11.5100   52.8220   15.8800 C.1   500  FMN500      0.3669
      3  O2        10.5280   53.4770   15.8420 O.2   500  FMN500     -0.1744
      4  N3        12.3690   52.9050   14.7190 N.2   500  FMN500     -0.2300
      5  C4        13.5550   52.2260   14.5760 C.1   500  FMN500      0.2513
      6  O4        14.2500   52.3410   13.5450 O.2   500  FMN500     -0.2057
      7  C4A       13.9570   51.3680   15.6910 C.2   500  FMN500      0.2700
      8  N5        15.0790   50.6820   15.6500 N.2   500  FMN500     -0.3878
      9  C5A       15.4240   49.8860   16.7190 C.2   500  FMN500      0.1320
     10  C6        16.6710   49.1300   16.6670 C.2   500  FMN500      0.0250
     11  C7        17.0730   48.3120   17.7120 C.2   500  FMN500     -0.0238
     12  C7M       18.3890   47.4920   17.7090 C.3   500  FMN500      0.0308
     13  C8        16.2190   48.1880   18.9280 C.2   500  FMN500     -0.0280
     14  C8M       16.6180   47.3120   20.1020 C.3   500  FMN500      0.0304
     15  C9        15.0110   48.8930   19.0070 C.2   500  FMN500     -0.0041
     16  C9A       14.5840   49.7430   17.9360 C.3   500  FMN500      0.1497
     17  N10       13.3700   50.5090   17.9190 N.pl3 500  FMN500     -0.2691
     18  C10       13.0200   51.3210   16.8580 C.2   500  FMN500      0.2416
     19  C1'       12.3720   50.4680   19.0520 C.3   500  FMN500      0.1294
     20  C2'       12.7230   51.3510   20.2470 C.3   500  FMN500      0.2044
     21  O2'       14.1270   51.5830   20.3260 O.3   500  FMN500     -0.2185
     22  C3'       12.2620   50.6760   21.5570 C.3   500  FMN500      0.2164
     23  O3'       12.8990   49.3390   21.5900 O.3   500  FMN500     -0.2175
     24  C4'       10.8020   50.3390   21.6590 C.3   500  FMN500      0.2147
     25  O4'        9.9210   51.4280   21.2950 O.3   500  FMN500     -0.2176
     26  C5'       10.5060   49.8890   23.0920 C.3   500  FMN500      0.1892
     27  O5'        9.2630   50.3680   23.5910 O.3   500  FMN500     -0.2674
     28  P          9.1200   51.6800   24.4420 P.3   500  FMN500      0.5327
     29  O1P        9.5570   52.8530   23.5930 O.2   500  FMN500     -0.2224
     30  O2P       10.0230   51.5400   25.6800 O.3   500  FMN500     -0.1145
     31  O3P        7.6130   51.7030   24.7430 O.3   500  FMN500     -0.1145
@<TRIPOS>BOND
     1     6     5    2
     2     5     4    2
     3     5     7    1
     4     4     2    2
     5     8     7    2
     6     8     9    2
     7     7    18    1
     8     3     2    2
     9     2     1    2
    10    10     9    1
    11    10    11    2
    12     9    16    1
    13    18     1    2
    14    18    17    1
    15    12    11    1
    16    11    13    1
    17    17    16    1
    18    17    19    1
    19    16    15    1
    20    13    15    2
    21    13    14    1
    22    19    20    1
    23    20    21    1
    24    20    22    1
    25    25    24    1
    26    22    23    1
    27    22    24    1
    28    24    26    1
    29    26    27    1
    30    27    28    1
    31    29    28    2
    32    28    31    1
    33    28    30    1
