@<TRIPOS>MOLECULE
1n9o_FMN_A_1.pdb
 31 33 0 0 0
SMALL
GASTEIGER

@<TRIPOS>ATOM
      1  N1        12.3960   52.2150   16.6440 N.2   1001  FMN1001    -0.2890
      2  C2        12.0320   53.0800   15.5640 C.1   1001  FMN1001     0.3669
      3  O2        10.9160   53.5070   15.4410 O.2   1001  FMN1001    -0.1744
      4  N3        13.0290   53.4420   14.5860 N.2   1001  FMN1001    -0.2300
      5  C4        14.3710   52.9600   14.6540 C.1   1001  FMN1001     0.2513
      6  O4        15.0590   53.1590   13.6650 O.2   1001  FMN1001    -0.2057
      7  C4A       14.8490   52.2150   15.9270 C.2   1001  FMN1001     0.2700
      8  N5        15.5490   50.9940   15.5500 N.2   1001  FMN1001    -0.3878
      9  C5A       15.9200   50.1600   16.6660 C.2   1001  FMN1001     0.1320
     10  C6        17.0970   49.3990   16.6060 C.2   1001  FMN1001     0.0250
     11  C7        17.4600   48.5750   17.6760 C.2   1001  FMN1001    -0.0238
     12  C7M       18.7190   47.8060   17.5530 C.3   1001  FMN1001     0.0308
     13  C8        16.6210   48.4880   18.8390 C.2   1001  FMN1001    -0.0280
     14  C8M       16.9680   47.6260   19.9910 C.3   1001  FMN1001     0.0304
     15  C9        15.4470   49.2360   18.9080 C.2   1001  FMN1001    -0.0041
     16  C9A       15.0680   50.0900   17.8370 C.3   1001  FMN1001     0.1497
     17  N10       13.8540   50.9000   17.8830 N.pl3 1001  FMN1001    -0.2691
     18  C10       13.6220   51.7820   16.8020 C.2   1001  FMN1001     0.2416
     19  C1'       12.7500   50.4990   18.8160 C.3   1001  FMN1001     0.1294
     20  C2'       12.7110   51.4120   20.1000 C.3   1001  FMN1001     0.2044
     21  O2'       14.0180   51.7280   20.5020 O.3   1001  FMN1001    -0.2185
     22  C3'       12.0470   50.7270   21.3330 C.3   1001  FMN1001     0.2164
     23  O3'       12.6230   49.4620   21.5530 O.3   1001  FMN1001    -0.2175
     24  C4'       10.5160   50.5350   21.1010 C.3   1001  FMN1001     0.2147
     25  O4'       10.0160   51.8350   20.9040 O.3   1001  FMN1001    -0.2176
     26  C5'        9.8020   49.8500   22.2950 C.3   1001  FMN1001     0.1892
     27  O5'       10.2550   50.3930   23.4910 O.3   1001  FMN1001    -0.2674
     28  P          9.3920   51.6560   24.2060 P.3   1001  FMN1001     0.5327
     29  O1P        9.9540   52.9610   23.3180 O.2   1001  FMN1001    -0.2224
     30  O2P        7.9520   51.5240   24.2330 O.3   1001  FMN1001    -0.1145
     31  O3P       10.1560   51.7600   25.6640 O.3   1001  FMN1001    -0.1145
@<TRIPOS>BOND
     1     6     5    2
     2     4     5    2
     3     4     2    2
     4     5     7    1
     5     3     2    2
     6     8     7    2
     7     8     9    2
     8     2     1    2
     9     7    18    1
    10    10     9    1
    11    10    11    2
    12     1    18    2
    13     9    16    1
    14    18    17    1
    15    12    11    1
    16    11    13    1
    17    16    17    1
    18    16    15    1
    19    17    19    1
    20    19    20    1
    21    13    15    2
    22    13    14    1
    23    20    21    1
    24    20    22    1
    25    25    24    1
    26    24    22    1
    27    24    26    1
    28    22    23    1
    29    26    27    1
    30    29    28    2
    31    27    28    1
    32    28    30    1
    33    28    31    1
