@<TRIPOS>MOLECULE
1n9x_HEM_A_1.pdb
 43 50 0 0 0
SMALL
GASTEIGER

@<TRIPOS>ATOM
      1 FE         34.8350    4.0620   10.1010 Fe    200  HEM200      0.0000
      2  CHA       37.4900    2.3150   11.2830 C.2   200  HEM200      0.0000
      3  CHB       36.7280    5.2570    7.5200 C.2   200  HEM200      0.0000
      4  CHC       32.1830    5.9530    9.0160 C.2   200  HEM200      0.0000
      5  CHD       32.9070    2.9340   12.7070 C.2   200  HEM200      0.0000
      6  NA        36.7450    3.8570    9.5350 N.ar  200  HEM200      0.0000
      7  C1A       37.6900    3.0380   10.1250 C.ar  200  HEM200      0.0000
      8  C2A       38.8920    3.0760    9.3260 C.ar  200  HEM200      0.0000
      9  C3A       38.6810    3.8860    8.2870 C.ar  200  HEM200      0.0000
     10  C4A       37.3330    4.3960    8.4050 C.ar  200  HEM200      0.0000
     11  CMA       39.6440    4.2620    7.1410 C.3   200  HEM200      0.0000
     12  CAA       40.1730    2.2600    9.6490 C.3   200  HEM200      0.0000
     13  CBA       40.2720    1.0000    8.7510 C.3   200  HEM200      0.0000
     14  CGA       39.0360    0.1310    8.7000 C.2   200  HEM200      0.0000
     15  O1A       38.7600   -0.5570    9.7120 O.co2 200  HEM200      0.0000
     16  O2A       38.3440    0.1750    7.6480 O.co2 200  HEM200      0.0000
     17  NB        34.5190    5.3460    8.5860 N.2   200  HEM200      0.0000
     18  C1B       35.4220    5.6870    7.5960 C.2   200  HEM200      0.0000
     19  C2B       34.7850    6.5770    6.6470 C.2   200  HEM200      0.0000
     20  C3B       33.5350    6.7730    7.0610 C.2   200  HEM200      0.0000
     21  C4B       33.3460    6.0070    8.2790 C.2   200  HEM200      0.0000
     22  CMB       35.5100    7.1480    5.4070 C.3   200  HEM200      0.0000
     23  CAB       32.4270    7.6340    6.4290 C.2   200  HEM200      0.0000
     24  CBB       32.7500    8.8230    5.9070 C.2   200  HEM200      0.0000
     25  NC        32.9180    4.3320   10.7000 N.ar  200  HEM200      0.0000
     26  C1C       32.0130    5.2580   10.1930 C.ar  200  HEM200      0.0000
     27  C2C       30.8790    5.3820   11.0850 C.ar  200  HEM200      0.0000
     28  C3C       31.0770    4.5500   12.1110 C.ar  200  HEM200      0.0000
     29  C4C       32.3420    3.8800   11.8820 C.ar  200  HEM200      0.0000
     30  CMC       29.6900    6.3310   10.8250 C.3   200  HEM200      0.0000
     31  CAC       30.2020    4.2750   13.3480 C.2   200  HEM200      0.0000
     32  CBC       29.1220    4.9790   13.6720 C.2   200  HEM200      0.0000
     33  ND        35.1230    2.8250   11.6500 N.2   200  HEM200      0.0000
     34  C1D       34.2240    2.5410   12.6710 C.2   200  HEM200      0.0000
     35  C2D       34.8990    1.7840   13.7020 C.2   200  HEM200      0.0000
     36  C3D       36.1550    1.6130   13.3050 C.2   200  HEM200      0.0000
     37  C4D       36.3300    2.2580   12.0250 C.2   200  HEM200      0.0000
     38  CMD       34.2100    1.2970   14.9950 C.3   200  HEM200      0.0000
     39  CAD       37.3270    0.9070   14.0480 C.3   200  HEM200      0.0000
     40  CBD       37.9770    1.9780   14.9510 C.3   200  HEM200      0.0000
     41  CGD       39.1530    1.6240   15.7970 C.2   200  HEM200      0.0000
     42  O1D       39.1070    2.0260   16.9940 O.co2 200  HEM200      0.0000
     43  O2D       40.0870    0.9700   15.2770 O.co2 200  HEM200      0.0000
@<TRIPOS>BOND
     1    22    19    1
     2    24    23    2
     3    23    20    1
     4    19    20    2
     5    19    18    1
     6    20    21    1
     7    11     9    1
     8     3    18    1
     9     3    10    2
    10    18    17    2
    11    16    14   ar
    12    21    17    1
    13    21     4    2
    14     9    10   ar
    15     9     8   ar
    16    10     6   ar
    17    17     1    1
    18    14    13    1
    19    14    15   ar
    20    13    12    1
    21     4    26    1
    22     8    12    1
    23     8     7   ar
    24     6     1    1
    25     6     7   ar
    26     1    25    1
    27     1    33    1
    28     7     2    2
    29    26    25   ar
    30    26    27   ar
    31    25    29   ar
    32    30    27    1
    33    27    28   ar
    34     2    37    1
    35    33    37    2
    36    33    34    1
    37    29    28   ar
    38    29     5    1
    39    37    36    1
    40    28    31    1
    41    34     5    2
    42    34    35    1
    43    36    35    2
    44    36    39    1
    45    31    32    2
    46    35    38    1
    47    39    40    1
    48    40    41    1
    49    43    41   ar
    50    41    42   ar
