@<TRIPOS>MOLECULE
1na0_IPT_B_1.pdb
 15 15 0 0 0
SMALL
GASTEIGER

@<TRIPOS>ATOM
      1  C1        64.2340   22.1530   19.0640 C.3   200  IPT200      0.1955
      2  C2        63.4500   20.8770   19.0560 C.3   200  IPT200      0.2219
      3  O2        62.7170   20.6970   17.8610 O.3   200  IPT200     -0.2167
      4  C3        62.6410   20.6080   20.3020 C.3   200  IPT200      0.2181
      5  O3        62.1830   19.2600   20.3000 O.3   200  IPT200     -0.2175
      6  C4        63.2950   21.1720   21.5610 C.3   200  IPT200      0.2143
      7  O4        64.3430   20.2420   21.8690 O.3   200  IPT200     -0.2176
      8  C5        64.1010   22.4430   21.4620 C.3   200  IPT200      0.1820
      9  O5        64.8480   22.6100   20.2720 O.3   200  IPT200     -0.3398
     10  C6        64.9790   22.7400   22.6960 C.3   200  IPT200      0.2142
     11  O6        65.2670   24.1190   22.6420 O.3   200  IPT200     -0.2176
     12  S1        65.4140   22.3720   17.7720 S.3   200  IPT200     -0.1102
     13  C1'       65.7520   24.0960   17.8060 C.3   200  IPT200      0.0500
     14  C2'       64.6570   24.9570   17.1560 C.3   200  IPT200      0.0117
     15  C3'       67.0610   24.3440   17.0670 C.3   200  IPT200      0.0117
@<TRIPOS>BOND
     1    15    13    1
     2    14    13    1
     3    12    13    1
     4    12     1    1
     5     3     2    1
     6     2     1    1
     7     2     4    1
     8     1     9    1
     9     9     8    1
    10     5     4    1
    11     4     6    1
    12     8     6    1
    13     8    10    1
    14     6     7    1
    15    11    10    1
