@<TRIPOS>MOLECULE
1na1_W11_A_1.pdb
 27 29 0 0 0
SMALL
GASTEIGER

@<TRIPOS>ATOM
      1  O1        31.4030    8.2380  125.3900 O.2   7001  W117001    -0.3581
      2  N2        30.5610    9.3410  125.9550 N.ar  7001  W117001    -0.0817
      3  C3        30.2280   10.1170  124.9210 C.ar  7001  W117001     0.1007
      4  CM3       29.3700   11.3090  125.2480 C.3   7001  W117001     0.0557
      5  C4        30.7760    9.6260  123.7120 C.ar  7001  W117001     0.0536
      6  C5        31.4940    8.4780  124.0020 C.ar  7001  W117001     0.1542
      7  C1C       32.2880    7.5100  123.1780 C.3   7001  W117001     0.0712
      8  C2C       32.9050    6.5040  124.1010 C.3   7001  W117001     0.0554
      9  C3C       33.6480    5.5530  123.3030 C.3   7001  W117001     0.2058
     10  O1B       33.9380    4.6040  124.2670 O.3   7001  W117001    -0.4761
     11  C1B       34.8550    3.5850  123.8930 C.ar  7001  W117001     0.1305
     12  C2B       36.2960    3.8180  124.1550 C.ar  7001  W117001     0.0125
     13  CM2       36.7160    5.0820  124.7650 C.3   7001  W117001     0.0342
     14  C3B       37.3140    2.9250  123.8610 C.ar  7001  W117001     0.0098
     15  C4B       36.9280    1.6830  123.2350 C.ar  7001  W117001     0.0766
     16  C5B       35.5470    1.3150  122.9040 C.ar  7001  W117001     0.0098
     17  C6B       34.4970    2.2920  123.2480 C.ar  7001  W117001     0.0125
     18  CM6       33.0770    1.8280  122.8700 C.3   7001  W117001     0.0342
     19  C2A       38.0330    0.8070  122.9590 C.1   7001  W117001     0.1271
     20  N1A       38.0660   -0.2440  122.0250 N.2   7001  W117001    -0.0069
     21  N3A       39.2600    0.9760  123.6720 N.2   7001  W117001    -0.3053
     22  C3A       40.0540   -0.0430  123.1100 C.2   7001  W117001     0.3890
     23  CM4       41.4540   -0.2480  123.5230 C.3   7001  W117001     0.4849
     24  O1A       39.5100   -0.8600  122.1320 O.2   7001  W117001    -0.3066
     25  F1        41.5320    0.7380  124.4940 F     7001  W117001    -0.1610
     26  F2        42.4440    0.0430  122.6240 F     7001  W117001    -0.1610
     27  F3        41.5100   -1.4800  123.9620 F     7001  W117001    -0.1610
@<TRIPOS>BOND
     1    20    24    1
     2    20    19    2
     3    24    22    1
     4    26    23    1
     5    18    17    1
     6    16    15   ar
     7    16    17   ar
     8    19    15    1
     9    19    21    2
    10    22    23    1
    11    22    21    2
    12     7     6    1
    13     7     8    1
    14    15    14   ar
    15    17    11   ar
    16     9     8    1
    17     9    10    1
    18    23    27    1
    19    23    25    1
    20     5     6   ar
    21     5     3   ar
    22    14    12   ar
    23    11    12   ar
    24    11    10    1
    25     6     1   ar
    26    12    13    1
    27     3     4    1
    28     3     2   ar
    29     1     2   ar
