@<TRIPOS>MOLECULE
1na3_IPT_B_1.pdb
 15 15 0 0 0
SMALL
GASTEIGER

@<TRIPOS>ATOM
      1  C1        23.5370   35.2830   60.2060 C.3   151  IPT151      0.1955
      2  C2        23.2490   33.7770   60.3390 C.3   151  IPT151      0.2219
      3  O2        21.9000   33.4990   60.7040 O.3   151  IPT151     -0.2167
      4  C3        24.3310   32.9370   60.9980 C.3   151  IPT151      0.2181
      5  O3        24.2340   31.5280   60.7390 O.3   151  IPT151     -0.2175
      6  C4        25.7710   33.4840   60.9230 C.3   151  IPT151      0.2143
      7  O4        26.2520   32.9950   59.6680 O.3   151  IPT151     -0.2176
      8  C5        26.0050   34.9690   60.6720 C.3   151  IPT151      0.1820
      9  O5        24.9130   35.7110   60.1320 O.3   151  IPT151     -0.3398
     10  C6        27.2640   35.2210   59.8100 C.3   151  IPT151      0.2142
     11  O6        27.9560   36.2430   60.4950 O.3   151  IPT151     -0.2176
     12  S1        22.3930   36.2400   59.2080 S.3   151  IPT151     -0.1102
     13  C1'       22.5810   37.8650   59.9020 C.3   151  IPT151      0.0500
     14  C2'       21.6250   38.0790   61.0690 C.3   151  IPT151      0.0117
     15  C3'       22.3240   38.8830   58.8020 C.3   151  IPT151      0.0117
@<TRIPOS>BOND
     1    15    13    1
     2    12    13    1
     3    12     1    1
     4     7     6    1
     5    10    11    1
     6    10     8    1
     7    13    14    1
     8     9     1    1
     9     9     8    1
    10     1     2    1
    11     2     3    1
    12     2     4    1
    13     8     6    1
    14     5     4    1
    15     6     4    1
