@<TRIPOS>MOLECULE
1naa_NAG_A_1.pdb
 14 14 0 0 0
SMALL
GASTEIGER

@<TRIPOS>ATOM
      1  C1        26.6550   44.4380    2.6950 C.3   803  NAG803      0.1665
      2  C2        25.1990   44.0030    2.6200 C.3   803  NAG803      0.1576
      3  C3        24.4200   44.9770    1.7600 C.3   803  NAG803      0.2069
      4  C4        24.5450   46.3750    2.3650 C.3   803  NAG803      0.2134
      5  C5        26.0260   46.7330    2.3900 C.3   803  NAG803      0.1809
      6  C6        26.2800   48.1090    3.0100 C.3   803  NAG803      0.2141
      7  C7        24.3200   41.7470    2.7100 C.2   803  NAG803      0.2420
      8  C8        24.1050   40.5010    1.9220 C.3   803  NAG803      0.0964
      9  N2        25.0370   42.6540    2.0970 N.am  803  NAG803     -0.2019
     10  O3        23.0770   44.6370    1.7160 O.3   803  NAG803     -0.2184
     11  O4        23.7630   47.2050    1.5180 O.3   803  NAG803     -0.2176
     12  O5        26.6990   45.7950    3.2010 O.3   803  NAG803     -0.3489
     13  O6        27.6430   48.2390    3.3770 O.3   803  NAG803     -0.2176
     14  O7        23.8050   41.8590    3.8300 O.2   803  NAG803     -0.2733
@<TRIPOS>BOND
     1    11     4    1
     2    10     3    1
     3     3     4    1
     4     3     2    1
     5     8     7    1
     6     9     2    1
     7     9     7   am
     8     4     5    1
     9     5     6    1
    10     5    12    1
    11     2     1    1
    12     1    12    1
    13     7    14    2
    14     6    13    1
