@<TRIPOS>MOLECULE
1naa_ABL_A_1.pdb
 23 24 0 0 0
SMALL
GASTEIGER

@<TRIPOS>ATOM
      1  C1        29.7770   25.5350   17.7570 C.1   901  ABL901      0.1594
      2  O1        29.0140   24.8640   18.4950 O.2   901  ABL901     -0.2244
      3  C2        29.4210   25.8100   16.3140 C.3   901  ABL901      0.2885
      4  O2        28.8180   24.6330   15.7880 O.3   901  ABL901     -0.2021
      5  C3        30.5700   26.2340   15.3910 C.3   901  ABL901      0.2271
      6  O3        29.9220   26.8440   14.2510 O.3   901  ABL901     -0.2165
      7  C4        31.4340   27.2490   16.1030 C.3   901  ABL901      0.1774
      8  O4        32.6140   27.5970   15.3420 O.3   901  ABL901     -0.3262
      9  C5        31.9770   26.5430   17.3640 C.3   901  ABL901      0.1771
     10  N5        30.8910   26.0650   18.2270 N.2   901  ABL901     -0.2009
     11  C6        32.7600   27.5540   18.2250 C.3   901  ABL901      0.2096
     12  O6        31.9330   28.6470   18.5940 O.3   901  ABL901     -0.2181
     13  C1A       32.4610   28.4920   14.2000 C.3   901  ABL901      0.2695
     14  C2A       33.7720   29.2410   13.9080 C.3   901  ABL901      0.2406
     15  O2A       34.1220   30.0980   14.9950 O.3   901  ABL901     -0.2149
     16  C3A       33.6510   30.0180   12.6160 C.3   901  ABL901      0.2198
     17  O3A       34.8730   30.6630   12.2810 O.3   901  ABL901     -0.2174
     18  C4A       33.1880   29.0460   11.5030 C.3   901  ABL901      0.2144
     19  O4A       33.0630   29.7240   10.2650 O.3   901  ABL901     -0.2176
     20  C5A       31.9030   28.3550   11.8900 C.3   901  ABL901      0.1835
     21  O5A       32.1150   27.7130   13.1170 O.3   901  ABL901     -0.3256
     22  C6A       31.4480   27.3010   10.8850 C.3   901  ABL901      0.2142
     23  O6A       30.2000   26.7280   11.2060 O.3   901  ABL901     -0.2176
@<TRIPOS>BOND
     1    19    18    1
     2    22    23    1
     3    22    20    1
     4    18    20    1
     5    18    16    1
     6    20    21    1
     7    17    16    1
     8    16    14    1
     9    21    13    1
    10    14    13    1
    11    14    15    1
    12    13     8    1
    13     6     5    1
    14     8     7    1
    15     5     7    1
    16     5     3    1
    17     4     3    1
    18     7     9    1
    19     3     1    1
    20     9    11    1
    21     9    10    1
    22     1    10    2
    23     1     2    2
    24    11    12    1
