@<TRIPOS>MOLECULE
1nah_NAD_A_1.pdb
 44 48 0 0 0
SMALL
GASTEIGER

@<TRIPOS>ATOM
      1  PA        30.9200    4.8880   37.6580 P.3   341  NAD341      0.2189
      2  O1A       31.3630    6.0140   36.7640 O.2   341  NAD341     -0.5170
      3  O2A       31.2180    5.1210   39.0960 O.3   341  NAD341     -0.4371
      4  O5B       31.6430    3.5200   37.2920 O.3   341  NAD341     -0.3112
      5  C5B       32.1260    3.2700   35.9570 C.3   341  NAD341      0.1813
      6  C4B       33.5890    2.9350   36.0740 C.3   341  NAD341      0.1821
      7  O4B       34.0390    2.6170   34.7160 O.3   341  NAD341     -0.3135
      8  C3B       34.4970    4.1070   36.5910 C.3   341  NAD341      0.2184
      9  O3B       35.3790    3.6600   37.6560 O.3   341  NAD341     -0.2174
     10  C2B       35.2610    4.5360   35.2930 C.3   341  NAD341      0.2570
     11  O2B       36.6110    4.9920   35.5260 O.3   341  NAD341     -0.2130
     12  C1B       35.3000    3.1900   34.5140 C.3   341  NAD341      0.3186
     13  N9A       35.4560    3.3530   33.0630 N.pl3 341  NAD341     -0.1439
     14  C8A       34.7470    4.1940   32.2190 C.3   341  NAD341      0.3377
     15  N7A       35.0660    4.0230   30.9470 N.2   341  NAD341     -0.2095
     16  C5A       36.0500    3.0130   30.9710 C.2   341  NAD341      0.2526
     17  C6A       36.7710    2.3750   29.9330 C.2   341  NAD341      0.4393
     18  N6A       36.6610    2.7150   28.6610 N.pl3 341  NAD341      0.2180
     19  N1A       37.6580    1.4200   30.2960 N.2   341  NAD341      0.0021
     20  C2A       37.8140    1.1500   31.6250 C.3   341  NAD341      0.5254
     21  N3A       37.1930    1.6680   32.6580 N.2   341  NAD341     -0.0055
     22  C4A       36.3100    2.5970   32.2660 C.2   341  NAD341      0.3518
     23  O3        29.4360    4.5820   37.4060 O.3   341  NAD341     -0.2703
     24  PN        28.4110    3.5420   38.1680 P.3   341  NAD341      0.2189
     25  O1N       27.3550    4.3740   38.7730 O.2   341  NAD341     -0.5170
     26  O2N       29.2390    2.6520   39.0570 O.3   341  NAD341     -0.4371
     27  O5D       27.7690    2.6560   37.0020 O.3   341  NAD341     -0.3112
     28  C5D       28.3470    1.3800   36.6790 C.3   341  NAD341      0.1813
     29  C4D       27.6360    0.9120   35.4150 C.3   341  NAD341      0.1799
     30  O4D       26.2250    0.8270   35.6460 O.3   341  NAD341     -0.3327
     31  C3D       27.7830    1.7680   34.1220 C.3   341  NAD341      0.2158
     32  O3D       27.8100    0.9440   32.9560 O.3   341  NAD341     -0.2175
     33  C2D       26.5010    2.6020   34.1550 C.3   341  NAD341      0.2309
     34  O2D       26.1460    3.1330   32.8490 O.3   341  NAD341     -0.2158
     35  C1D       25.5250    1.5640   34.6820 C.3   341  NAD341      0.2263
     36  N1N       24.4240    2.2360   35.3030 N.pl3 341  NAD341     -0.2787
     37  C2N       23.1770    2.2720   34.6870 C.3   341  NAD341      0.1244
     38  C3N       21.9650    2.8400   35.3170 C.2   341  NAD341      0.0544
     39  C7N       20.8740    3.2610   34.4080 C.2   341  NAD341      0.2818
     40  O7N       21.0660    3.2030   33.1600 O.2   341  NAD341     -0.2670
     41  N7N       19.6870    3.7100   34.8940 N.am  341  NAD341     -0.0839
     42  C4N       22.1290    3.4400   36.6930 C.2   341  NAD341      0.0033
     43  C5N       23.5790    3.5910   37.1140 C.2   341  NAD341      0.0157
     44  C6N       24.6100    2.9910   36.5150 C.2   341  NAD341      0.0633
@<TRIPOS>BOND
     1    18    17    1
     2    17    19    2
     3    17    16    1
     4    19    20    1
     5    15    16    2
     6    15    14    1
     7    16    22    1
     8    20    21    1
     9    14    13    1
    10    22    21    2
    11    22    13    1
    12    34    33    1
    13    32    31    1
    14    13    12    1
    15    40    39    2
    16    31    33    1
    17    31    29    1
    18    33    35    1
    19    39    41   am
    20    39    38    1
    21    12     7    1
    22    12    10    1
    23    35    36    1
    24    35    30    1
    25    37    36    1
    26    37    38    1
    27     7     6    1
    28    10    11    1
    29    10     8    1
    30    36    44    1
    31    38    42    2
    32    29    30    1
    33    29    28    1
    34     5     6    1
    35     5     4    1
    36     6     8    1
    37    44    43    2
    38     8     9    1
    39    28    27    1
    40    42    43    1
    41     2     1    2
    42    27    24    1
    43     4     1    1
    44    23     1    1
    45    23    24    1
    46     1     3    1
    47    24    25    2
    48    24    26    1
