@<TRIPOS>MOLECULE
1nah_UDP_A_1.pdb
 25 26 0 0 0
SMALL
GASTEIGER

@<TRIPOS>ATOM
      1  N1        15.8610   15.1920   39.6650 N.am  342  UDP342     -0.1766
      2  C2        15.5660   16.5020   40.1570 C.1   342  UDP342      0.2845
      3  N3        16.6830   17.2910   40.3820 N.2   342  UDP342     -0.2452
      4  C4        18.0330   16.8910   40.1870 C.1   342  UDP342      0.2182
      5  C5        18.2340   15.5290   39.7040 C.2   342  UDP342      0.1242
      6  C6        17.1890   14.7550   39.4680 C.2   342  UDP342      0.0929
      7  O2        14.4420   16.9270   40.3360 O.2   342  UDP342     -0.1918
      8  O4        18.9070   17.7290   40.4030 O.2   342  UDP342     -0.2085
      9  C1'       14.7330   14.2560   39.4470 C.3   342  UDP342      0.2401
     10  C2'       14.5710   13.7720   38.0090 C.3   342  UDP342      0.2319
     11  O2'       13.6980   14.7170   37.3000 O.3   342  UDP342     -0.2157
     12  C3'       13.8710   12.3780   38.1970 C.3   342  UDP342      0.2158
     13  C4'       14.5200   11.8650   39.4420 C.3   342  UDP342      0.1799
     14  O4'       14.9690   13.0760   40.1610 O.3   342  UDP342     -0.3320
     15  O3'       12.4890   12.4890   38.4560 O.3   342  UDP342     -0.2175
     16  C5'       15.6750   10.9640   39.2640 C.3   342  UDP342      0.1813
     17  O5'       16.6150   11.7360   38.4920 O.3   342  UDP342     -0.3111
     18  PA        18.0560   11.0860   38.1750 P.3   342  UDP342      0.2231
     19  O1A       18.7510   11.9900   37.1800 O.2   342  UDP342     -0.5169
     20  O2A       18.8990   10.8240   39.3830 O.3   342  UDP342     -0.4370
     21  O3A       17.9210    9.6070   37.4710 O.3   342  UDP342     -0.2261
     22  PB        16.9710    9.0890   36.3320 P.3   342  UDP342      0.5373
     23  O1B       17.7230    7.7850   35.8300 O.3   342  UDP342     -0.1143
     24  O2B       16.8430   10.1790   35.2970 O.2   342  UDP342     -0.2221
     25  O3B       15.6430    8.6800   36.9210 O.3   342  UDP342     -0.1143
@<TRIPOS>BOND
     1    24    22    2
     2    23    22    1
     3    22    25    1
     4    22    21    1
     5    19    18    2
     6    11    10    1
     7    21    18    1
     8    10    12    1
     9    10     9    1
    10    18    17    1
    11    18    20    1
    12    12    15    1
    13    12    13    1
    14    17    16    1
    15    16    13    1
    16    13    14    1
    17     9     1    1
    18     9    14    1
    19     6     1    1
    20     6     5    2
    21     1     2   am
    22     5     4    1
    23     2     7    2
    24     2     3    2
    25     4     3    2
    26     4     8    2
