@<TRIPOS>MOLECULE
1nai_UDP_A_1.pdb
 25 26 0 0 0
SMALL
GASTEIGER

@<TRIPOS>ATOM
      1  N1        15.8550   15.1160   39.6580 N.am  350  UDP350     -0.1766
      2  C2        15.4570   16.4120   39.9410 C.1   350  UDP350      0.2845
      3  N3        16.5170   17.2670   40.0690 N.2   350  UDP350     -0.2452
      4  C4        17.8780   16.9930   39.9960 C.1   350  UDP350      0.2182
      5  C5        18.2020   15.6390   39.6790 C.2   350  UDP350      0.1242
      6  C6        17.2040   14.7920   39.5590 C.2   350  UDP350      0.0929
      7  O2        14.2920   16.7950   40.0220 O.2   350  UDP350     -0.1918
      8  O4        18.6490   17.9120   40.1610 O.2   350  UDP350     -0.2085
      9  C1'       14.7870   14.0210   39.5210 C.3   350  UDP350      0.2401
     10  C2'       14.6420   13.4590   38.1140 C.3   350  UDP350      0.2319
     11  O2'       13.6100   14.1350   37.4280 O.3   350  UDP350     -0.2157
     12  C3'       13.9740   12.1200   38.3350 C.3   350  UDP350      0.2158
     13  C4'       14.6230   11.6460   39.6440 C.3   350  UDP350      0.1799
     14  O4'       15.0950   12.8690   40.2930 O.3   350  UDP350     -0.3320
     15  O3'       12.5400   12.3610   38.3370 O.3   350  UDP350     -0.2175
     16  C5'       15.7960   10.6610   39.4880 C.3   350  UDP350      0.1813
     17  O5'       16.5180   11.1880   38.3440 O.3   350  UDP350     -0.3111
     18  PA        18.0980   10.9560   38.1340 P.3   350  UDP350      0.2231
     19  O1A       18.7580   11.8540   37.1340 O.2   350  UDP350     -0.5169
     20  O2A       18.8290   10.8230   39.4170 O.3   350  UDP350     -0.4370
     21  O3A       17.8330    9.5030   37.4250 O.3   350  UDP350     -0.2261
     22  PB        16.7130    9.0870   36.4310 P.3   350  UDP350      0.5373
     23  O1B       16.3840   10.0880   35.3650 O.2   350  UDP350     -0.2221
     24  O2B       15.4640    8.5510   37.0940 O.3   350  UDP350     -0.1143
     25  O3B       17.8990    8.0600   36.0740 O.3   350  UDP350     -0.1143
@<TRIPOS>BOND
     1    23    22    2
     2    25    22    1
     3    22    24    1
     4    22    21    1
     5    19    18    2
     6    21    18    1
     7    11    10    1
     8    10    12    1
     9    10     9    1
    10    18    17    1
    11    18    20    1
    12    12    15    1
    13    12    13    1
    14    17    16    1
    15    16    13    1
    16     9     1    1
    17     9    14    1
    18     6     1    1
    19     6     5    2
    20    13    14    1
    21     1     2   am
    22     5     4    1
    23     2     7    2
    24     2     3    2
    25     4     3    2
    26     4     8    2
