@<TRIPOS>MOLECULE
1nai_NAD_A_1.pdb
 44 48 0 0 0
SMALL
GASTEIGER

@<TRIPOS>ATOM
      1  PA        31.2120    4.6340   37.7770 P.3   349  NAD349      0.2189
      2  O1A       31.7710    5.7100   36.9100 O.2   349  NAD349     -0.5170
      3  O2A       31.3890    4.9170   39.2240 O.3   349  NAD349     -0.4371
      4  O5B       31.9640    3.2640   37.5150 O.3   349  NAD349     -0.3112
      5  C5B       32.4490    2.9420   36.2230 C.3   349  NAD349      0.1813
      6  C4B       33.9570    2.8080   36.2520 C.3   349  NAD349      0.1821
      7  O4B       34.4140    2.4350   34.9000 O.3   349  NAD349     -0.3135
      8  C3B       34.8170    4.0180   36.6910 C.3   349  NAD349      0.2184
      9  O3B       35.7200    3.5710   37.7240 O.3   349  NAD349     -0.2174
     10  C2B       35.5740    4.4070   35.3680 C.3   349  NAD349      0.2570
     11  O2B       36.9300    4.8590   35.6390 O.3   349  NAD349     -0.2130
     12  C1B       35.6320    3.0600   34.6190 C.3   349  NAD349      0.3186
     13  N9A       35.7010    3.1260   33.1700 N.pl3 349  NAD349     -0.1439
     14  C8A       34.9770    3.9270   32.3410 C.3   349  NAD349      0.3377
     15  N7A       35.2830    3.7720   31.0370 N.2   349  NAD349     -0.2095
     16  C5A       36.2370    2.7570   31.0430 C.2   349  NAD349      0.2526
     17  C6A       36.9540    2.1660   29.9630 C.2   349  NAD349      0.4393
     18  N6A       36.8060    2.5400   28.6840 N.pl3 349  NAD349      0.2180
     19  N1A       37.8870    1.2370   30.3040 N.2   349  NAD349      0.0021
     20  C2A       38.0670    0.9310   31.6540 C.3   349  NAD349      0.5254
     21  N3A       37.4440    1.4190   32.7130 N.2   349  NAD349     -0.0055
     22  C4A       36.5160    2.3450   32.3470 C.2   349  NAD349      0.3518
     23  O3        29.7210    4.3780   37.4950 O.3   349  NAD349     -0.2703
     24  PN        28.7690    3.1590   38.0040 P.3   349  NAD349      0.2189
     25  O1N       27.6240    3.7540   38.7460 O.2   349  NAD349     -0.5170
     26  O2N       29.6010    2.2720   38.8670 O.3   349  NAD349     -0.4371
     27  O5D       28.1440    2.3960   36.7780 O.3   349  NAD349     -0.3112
     28  C5D       28.9600    1.5120   36.0520 C.3   349  NAD349      0.1813
     29  C4D       28.0850    0.7910   35.0640 C.3   349  NAD349      0.1799
     30  O4D       26.7260    0.6970   35.5550 O.3   349  NAD349     -0.3327
     31  C3D       27.9950    1.3020   33.6180 C.3   349  NAD349      0.2158
     32  O3D       27.7750    0.1210   32.8290 O.3   349  NAD349     -0.2175
     33  C2D       26.6770    2.1230   33.7480 C.3   349  NAD349      0.2309
     34  O2D       26.1030    2.2440   32.4610 O.3   349  NAD349     -0.2158
     35  C1D       25.8240    1.1620   34.5660 C.3   349  NAD349      0.2263
     36  N1N       24.6690    1.8590   35.1670 N.pl3 349  NAD349     -0.2787
     37  C2N       25.0590    2.7420   36.1340 C.3   349  NAD349      0.1244
     38  C3N       24.1220    3.5960   36.6260 C.2   349  NAD349      0.0544
     39  C7N       24.5010    4.7040   37.6180 C.2   349  NAD349      0.2818
     40  O7N       23.6260    5.4210   38.0160 O.2   349  NAD349     -0.2670
     41  N7N       25.7690    4.8510   38.0270 N.am  349  NAD349     -0.0839
     42  C4N       22.7300    3.5110   36.2590 C.2   349  NAD349      0.0033
     43  C5N       22.4520    2.5260   35.2840 C.2   349  NAD349      0.0157
     44  C6N       23.3520    1.6660   34.7070 C.2   349  NAD349      0.0633
@<TRIPOS>BOND
     1    18    17    1
     2    17    19    2
     3    17    16    1
     4    19    20    1
     5    15    16    2
     6    15    14    1
     7    16    22    1
     8    20    21    1
     9    14    13    1
    10    22    21    2
    11    22    13    1
    12    34    33    1
    13    32    31    1
    14    13    12    1
    15    31    33    1
    16    31    29    1
    17    33    35    1
    18    35    36    1
    19    35    30    1
    20    12     7    1
    21    12    10    1
    22    44    36    1
    23    44    43    2
    24     7     6    1
    25    29    30    1
    26    29    28    1
    27    36    37    1
    28    43    42    1
    29    10    11    1
    30    10     8    1
    31    28    27    1
    32    37    38    1
    33     5     6    1
    34     5     4    1
    35     6     8    1
    36    42    38    2
    37    38    39    1
    38     8     9    1
    39    27    24    1
    40     2     1    2
    41    23     1    1
    42    23    24    1
    43     4     1    1
    44    39    40    2
    45    39    41   am
    46     1     3    1
    47    24    25    2
    48    24    26    1
