@<TRIPOS>MOLECULE
1nav_IH5_A_1.pdb
 23 24 0 0 0
SMALL
GASTEIGER

@<TRIPOS>ATOM
      1  O3        44.6210   13.4550   17.6070 O.co2 600  IH5600     -0.2453
      2  C15       43.8740   14.4540   18.1410 C.2   600  IH5600      0.3692
      3  O4        42.7640   14.8300   17.7390 O.co2 600  IH5600     -0.2453
      4  C13       44.4900   15.0760   19.3010 C.3   600  IH5600      0.1404
      5  C01       45.7960   15.7930   19.2060 C.ar  600  IH5600     -0.0091
      6  C11       46.7550   15.4270   20.1980 C.ar  600  IH5600      0.0108
      7  C09       48.0330   16.0490   20.2240 C.ar  600  IH5600      0.0926
      8  C07       48.3870   17.0690   19.2560 C.ar  600  IH5600      0.1661
      9  O2        49.5690   17.7330   19.2050 O.3   600  IH5600     -0.4518
     10  C2        49.7420   18.9740   19.9740 C.ar  600  IH5600      0.1453
     11  C12       49.0350   19.2610   21.2370 C.ar  600  IH5600      0.0408
     12  C10       49.2750   20.4960   21.9270 C.ar  600  IH5600      0.0448
     13  C8        50.2030   21.4660   21.4150 C.ar  600  IH5600      0.1919
     14  O1        50.4060   22.6440   22.1190 O.3   600  IH5600     -0.2869
     15  C6        50.9200   21.2220   20.1640 C.ar  600  IH5600      0.0194
     16  C4        50.6760   19.9660   19.4610 C.ar  600  IH5600      0.0364
     17  C14       51.9350   22.2960   19.6090 C.3   600  IH5600      0.0256
     18  C16       51.1840   23.1260   18.5450 C.3   600  IH5600      0.0048
     19  C18       53.2190   21.6470   18.9470 C.3   600  IH5600      0.0048
     20  C05       47.4300   17.4280   18.2780 C.ar  600  IH5600      0.0926
     21  C03       46.1400   16.8120   18.2200 C.ar  600  IH5600      0.0108
     22 CL5        47.7790   18.6250   17.1200 Cl    600  IH5600     -0.0790
     23 CL6        49.1380   15.5690   21.3860 Cl    600  IH5600     -0.0790
@<TRIPOS>BOND
     1    22    20    1
     2     1     2   ar
     3     3     2   ar
     4     2     4    1
     5    21    20   ar
     6    21     5   ar
     7    20     8   ar
     8    18    17    1
     9    19    17    1
    10     9     8    1
    11     9    10    1
    12     5     4    1
    13     5     6   ar
    14     8     7   ar
    15    16    10   ar
    16    16    15   ar
    17    17    15    1
    18    10    11   ar
    19    15    13   ar
    20     6     7   ar
    21     7    23    1
    22    11    12   ar
    23    13    12   ar
    24    13    14    1
