@<TRIPOS>MOLECULE
1nax_IH5_A_1.pdb
 23 24 0 0 0
SMALL
GASTEIGER

@<TRIPOS>ATOM
      1  O3         8.2580   16.3210   33.8390 O.co2 501  IH5501     -0.2453
      2  C15        8.9500   17.3480   33.2920 C.2   501  IH5501      0.3692
      3  O4        10.0930   17.6900   33.6300 O.co2 501  IH5501     -0.2453
      4  C13        8.2520   18.0970   32.1980 C.3   501  IH5501      0.1404
      5  C01        6.8560   18.7450   32.3280 C.ar  501  IH5501     -0.0091
      6  C11        5.9550   18.4020   31.2500 C.ar  501  IH5501      0.0108
      7  C09        4.6380   18.9230   31.2540 C.ar  501  IH5501      0.0926
      8  C07        4.1690   19.8260   32.3280 C.ar  501  IH5501      0.1661
      9  O2         2.8870   20.2670   32.2250 O.3   501  IH5501     -0.4518
     10  C2         2.5960   21.5540   31.5360 C.ar  501  IH5501      0.1453
     11  C12        3.3160   22.0000   30.3140 C.ar  501  IH5501      0.0408
     12  C10        3.0070   23.2200   29.6950 C.ar  501  IH5501      0.0448
     13  C8         1.9860   24.0590   30.2110 C.ar  501  IH5501      0.1919
     14  O1         1.7370   25.2190   29.5600 O.3   501  IH5501     -0.2869
     15  C6         1.2170   23.6990   31.4260 C.ar  501  IH5501      0.0194
     16  C4         1.5420   22.4120   32.0850 C.ar  501  IH5501      0.0364
     17  C14        0.1000   24.6810   31.9310 C.3   501  IH5501      0.0256
     18  C16        0.7080   25.4970   33.0900 C.3   501  IH5501      0.0048
     19  C18       -1.1790   23.9030   32.4340 C.3   501  IH5501      0.0048
     20  C05        5.0540   20.1650   33.3680 C.ar  501  IH5501      0.0926
     21  C03        6.3950   19.6370   33.3930 C.ar  501  IH5501      0.0108
     22 CL5         4.5760   21.2190   34.6190 Cl    501  IH5501     -0.0790
     23 CL6         3.5950   18.4660   29.9590 Cl    501  IH5501     -0.0790
@<TRIPOS>BOND
     1    14    13    1
     2    12    13   ar
     3    12    11   ar
     4    23     7    1
     5    13    15   ar
     6    11    10   ar
     7     6     7   ar
     8     6     5   ar
     9     7     8   ar
    10    15    17    1
    11    15    16   ar
    12    10    16   ar
    13    10     9    1
    14    17    19    1
    15    17    18    1
    16     4     5    1
    17     4     2    1
    18     9     8    1
    19     5    21   ar
    20     8    20   ar
    21     2     3   ar
    22     2     1   ar
    23    20    21   ar
    24    20    22    1
