@<TRIPOS>MOLECULE
1naz_HEM_A_1.pdb
 43 50 0 0 0
SMALL
GASTEIGER

@<TRIPOS>ATOM
      1 FE         34.6330    4.0560   10.1280 Fe    200  HEM200      0.0000
      2  CHA       37.3110    2.3290   11.3650 C.2   200  HEM200      0.0000
      3  CHB       36.5770    5.2550    7.5930 C.2   200  HEM200      0.0000
      4  CHC       32.0260    5.9930    9.0540 C.2   200  HEM200      0.0000
      5  CHD       32.7150    2.9380   12.7230 C.2   200  HEM200      0.0000
      6  NA        36.5660    3.8650    9.6100 N.ar  200  HEM200      0.0000
      7  C1A       37.5090    3.0480   10.2070 C.ar  200  HEM200      0.0000
      8  C2A       38.7250    3.0880    9.4290 C.ar  200  HEM200      0.0000
      9  C3A       38.5250    3.8930    8.3860 C.ar  200  HEM200      0.0000
     10  C4A       37.1710    4.3950    8.4870 C.ar  200  HEM200      0.0000
     11  CMA       39.4920    4.2770    7.2480 C.3   200  HEM200      0.0000
     12  CAA       40.0000    2.2700    9.7680 C.3   200  HEM200      0.0000
     13  CBA       40.0860    1.0090    8.8720 C.3   200  HEM200      0.0000
     14  CGA       38.8270    0.1770    8.8270 C.2   200  HEM200      0.0000
     15  O1A       38.5570   -0.4930    9.8570 O.co2 200  HEM200      0.0000
     16  O2A       38.1030    0.2260    7.8000 O.co2 200  HEM200      0.0000
     17  NB        34.3590    5.3650    8.6410 N.2   200  HEM200      0.0000
     18  C1B       35.2730    5.6900    7.6590 C.2   200  HEM200      0.0000
     19  C2B       34.6510    6.5780    6.7010 C.2   200  HEM200      0.0000
     20  C3B       33.3970    6.7890    7.1050 C.2   200  HEM200      0.0000
     21  C4B       33.1920    6.0320    8.3220 C.2   200  HEM200      0.0000
     22  CMB       35.3830    7.1380    5.4650 C.3   200  HEM200      0.0000
     23  CAB       32.2990    7.6560    6.4600 C.2   200  HEM200      0.0000
     24  CBB       32.6100    8.8540    5.9500 C.2   200  HEM200      0.0000
     25  NC        32.7320    4.3560   10.7330 N.ar  200  HEM200      0.0000
     26  C1C       31.8420    5.2930   10.2260 C.ar  200  HEM200      0.0000
     27  C2C       30.7140    5.4250   11.1180 C.ar  200  HEM200      0.0000
     28  C3C       30.9000    4.5880   12.1410 C.ar  200  HEM200      0.0000
     29  C4C       32.1560    3.9010   11.9110 C.ar  200  HEM200      0.0000
     30  CMC       29.5360    6.3900   10.8740 C.3   200  HEM200      0.0000
     31  CAC       30.0300    4.3140   13.3770 C.2   200  HEM200      0.0000
     32  CBC       28.9050    4.9510   13.6750 C.2   200  HEM200      0.0000
     33  ND        34.9360    2.8380   11.6950 N.2   200  HEM200      0.0000
     34  C1D       34.0310    2.5420   12.7010 C.2   200  HEM200      0.0000
     35  C2D       34.6950    1.7900   13.7390 C.2   200  HEM200      0.0000
     36  C3D       35.9580    1.6240   13.3600 C.2   200  HEM200      0.0000
     37  C4D       36.1400    2.2740   12.0850 C.2   200  HEM200      0.0000
     38  CMD       33.9900    1.3020   15.0190 C.3   200  HEM200      0.0000
     39  CAD       37.1220    0.9320   14.1300 C.3   200  HEM200      0.0000
     40  CBD       37.8100    2.0400   14.9660 C.3   200  HEM200      0.0000
     41  CGD       38.9730    1.7130   15.8330 C.2   200  HEM200      0.0000
     42  O1D       38.7860    1.6870   17.0770 O.co2 200  HEM200      0.0000
     43  O2D       40.0840    1.4960   15.2870 O.co2 200  HEM200      0.0000
@<TRIPOS>BOND
     1    22    19    1
     2    24    23    2
     3    23    20    1
     4    19    20    2
     5    19    18    1
     6    20    21    1
     7    11     9    1
     8     3    18    1
     9     3    10    2
    10    18    17    2
    11    16    14   ar
    12    21    17    1
    13    21     4    2
    14     9    10   ar
    15     9     8   ar
    16    10     6   ar
    17    17     1    1
    18    14    13    1
    19    14    15   ar
    20    13    12    1
    21     4    26    1
    22     8    12    1
    23     8     7   ar
    24     6     1    1
    25     6     7   ar
    26     1    25    1
    27     1    33    1
    28     7     2    2
    29    26    25   ar
    30    26    27   ar
    31    25    29   ar
    32    30    27    1
    33    27    28   ar
    34     2    37    1
    35    33    37    2
    36    33    34    1
    37    29    28   ar
    38    29     5    1
    39    37    36    1
    40    28    31    1
    41    34     5    2
    42    34    35    1
    43    36    35    2
    44    36    39    1
    45    31    32    2
    46    35    38    1
    47    39    40    1
    48    40    41    1
    49    43    41   ar
    50    41    42   ar
