@<TRIPOS>MOLECULE
1nb0_ADP_A_1.pdb
 27 29 0 0 0
SMALL
GASTEIGER

@<TRIPOS>ATOM
      1  PB        25.0800   12.2600   18.9320 P.3   301  ADP301      0.5373
      2  O1B       25.7220   12.2360   17.6030 O.2   301  ADP301     -0.2221
      3  O2B       24.5390   10.9320   19.4270 O.3   301  ADP301     -0.1143
      4  O3B       26.1060   12.8310   19.8900 O.3   301  ADP301     -0.1143
      5  PA        22.7920   13.7010   17.8040 P.3   301  ADP301      0.2231
      6  O1A       22.3450   15.1180   18.1430 O.3   301  ADP301     -0.4370
      7  O2A       23.3670   13.5250   16.3910 O.2   301  ADP301     -0.5169
      8  O3A       23.8500   13.2900   18.9070 O.3   301  ADP301     -0.2261
      9  O5'       21.5590   12.7770   18.0130 O.3   301  ADP301     -0.3111
     10  C5'       21.6340   11.3860   17.6740 C.3   301  ADP301      0.1813
     11  C4'       20.6020   10.5980   18.4460 C.3   301  ADP301      0.1821
     12  O4'       19.3090   10.9370   18.0250 O.3   301  ADP301     -0.3135
     13  C3'       20.6800    9.0830   18.1370 C.3   301  ADP301      0.2184
     14  O3'       21.5920    8.3780   18.9690 O.3   301  ADP301     -0.2174
     15  C2'       19.2600    8.6280   18.4470 C.3   301  ADP301      0.2570
     16  O2'       19.1260    8.2980   19.8270 O.3   301  ADP301     -0.2130
     17  C1'       18.3990    9.8590   18.2170 C.3   301  ADP301      0.3186
     18  N9        17.5320    9.8760   17.0290 N.pl3 301  ADP301     -0.1439
     19  C8        16.1880   10.1830   17.0560 C.3   301  ADP301      0.3377
     20  N7        15.7100   10.1790   15.8090 N.2   301  ADP301     -0.2095
     21  C5        16.7420    9.8670   14.9560 C.2   301  ADP301      0.2526
     22  C6        16.7940    9.7130   13.5720 C.2   301  ADP301      0.4393
     23  N6        15.7830   10.0320   12.7760 N.pl3 301  ADP301      0.2180
     24  N1        18.0310    9.3770   13.0060 N.2   301  ADP301      0.0021
     25  C2        19.1400    9.2310   13.8060 C.3   301  ADP301      0.5254
     26  N3        19.0860    9.3500   15.1700 N.2   301  ADP301     -0.0055
     27  C4        17.8840    9.6810   15.7230 C.2   301  ADP301      0.3518
@<TRIPOS>BOND
     1    23    22    1
     2    24    22    2
     3    24    25    1
     4    22    21    1
     5    25    26    1
     6    21    27    1
     7    21    20    2
     8    26    27    2
     9    27    18    1
    10    20    19    1
    11     7     5    2
    12    18    19    1
    13    18    17    1
    14     2     1    2
    15    10     9    1
    16    10    11    1
    17     5     9    1
    18     5     6    1
    19     5     8    1
    20    12    17    1
    21    12    11    1
    22    13    11    1
    23    13    15    1
    24    13    14    1
    25    17    15    1
    26    15    16    1
    27     8     1    1
    28     1     3    1
    29     1     4    1
