@<TRIPOS>MOLECULE
1nb3_BMA_A_1.pdb
 11 11 0 0 0
SMALL
GASTEIGER

@<TRIPOS>ATOM
      1  C1         7.5290   19.4220   68.7590 C.3   215  BMA215      0.1777
      2  C2         6.9860   20.7880   68.3060 C.3   215  BMA215      0.2141
      3  C3         6.6330   21.7730   69.4580 C.3   215  BMA215      0.2173
      4  C4         7.0690   21.3930   70.8960 C.3   215  BMA215      0.2142
      5  C5         7.4390   19.9190   71.1220 C.3   215  BMA215      0.1810
      6  C6         6.8480   19.3690   72.4240 C.3   215  BMA215      0.2141
      7  O2         5.8060   20.5850   67.5190 O.3   215  BMA215     -0.2176
      8  O3         5.2210   21.9930   69.4620 O.3   215  BMA215     -0.2175
      9  O4         8.1380   22.2210   71.3110 O.3   215  BMA215     -0.2176
     10  O5         6.9540   19.0790   70.0410 O.3   215  BMA215     -0.3481
     11  O6         5.9740   20.2990   73.0470 O.3   215  BMA215     -0.2176
@<TRIPOS>BOND
     1     7     2    1
     2     2     1    1
     3     2     3    1
     4     1    10    1
     5     3     8    1
     6     3     4    1
     7    10     5    1
     8     4     5    1
     9     4     9    1
    10     5     6    1
    11     6    11    1
