@<TRIPOS>MOLECULE
1nb5_BMA_A_1.pdb
 11 11 0 0 0
SMALL
GASTEIGER

@<TRIPOS>ATOM
      1  C1        13.2870   12.5500   12.3240 C.3   215  BMA215      0.1777
      2  C2        12.0080   13.2100   12.7300 C.3   215  BMA215      0.2141
      3  C3        10.8330   12.7420   11.8480 C.3   215  BMA215      0.2173
      4  C4        11.1810   12.2700   10.4080 C.3   215  BMA215      0.2142
      5  C5        12.6740   11.9860   10.1330 C.3   215  BMA215      0.1810
      6  C6        13.1200   12.1390    8.6700 C.3   215  BMA215      0.2141
      7  O2        12.1690   14.6140   12.6010 O.3   215  BMA215     -0.2176
      8  O3         9.8600   13.7730   11.7630 O.3   215  BMA215     -0.2175
      9  O4        10.4270   11.1040   10.1130 O.3   215  BMA215     -0.2176
     10  O5        13.4990   12.8300   10.9470 O.3   215  BMA215     -0.3481
     11  O6        13.0540   13.4830    8.2030 O.3   215  BMA215     -0.2176
@<TRIPOS>BOND
     1    11     6    1
     2     6     5    1
     3     9     4    1
     4     5     4    1
     5     5    10    1
     6     4     3    1
     7    10     1    1
     8     8     3    1
     9     3     2    1
    10     1     2    1
    11     7     2    1
