@<TRIPOS>MOLECULE
1nb6_UTP_A_1.pdb
 29 30 0 0 0
SMALL
GASTEIGER

@<TRIPOS>ATOM
      1  PA        14.8230   57.0720   56.3870 P.3   1700  UTP1700     0.2189
      2  O1A       14.1730   57.3580   57.6980 O.3   1700  UTP1700    -0.4371
      3  O2A       15.5040   55.8350   56.0150 O.2   1700  UTP1700    -0.5170
      4  O3A       13.5000   56.8100   55.4320 O.3   1700  UTP1700    -0.2700
      5  O5'       15.2550   58.5160   55.9390 O.3   1700  UTP1700    -0.3112
      6  PB        11.9120   57.2980   55.8990 P.3   1700  UTP1700     0.2277
      7  O1B       12.0300   58.1000   57.1430 O.3   1700  UTP1700    -0.4368
      8  O2B       11.0090   56.0950   56.0130 O.2   1700  UTP1700    -0.5168
      9  O3B       11.4430   58.2690   54.8110 O.3   1700  UTP1700    -0.2258
     10  PG        11.2730   57.7140   53.3440 P.3   1700  UTP1700     0.5373
     11  O1G       10.6280   58.6320   52.4130 O.2   1700  UTP1700    -0.2221
     12  O2G       11.7860   56.3300   53.0510 O.3   1700  UTP1700    -0.1143
     13  O3G       12.8020   58.3380   52.9680 O.3   1700  UTP1700    -0.1143
     14  C5'       16.1680   59.2500   56.8010 C.3   1700  UTP1700     0.1813
     15  C4'       15.3560   60.5190   56.8290 C.3   1700  UTP1700     0.1799
     16  O4'       16.1520   61.6710   57.0880 O.3   1700  UTP1700    -0.3320
     17  C1'       15.8680   62.7060   56.1100 C.3   1700  UTP1700     0.2401
     18  C2'       14.8270   62.2040   55.1410 C.3   1700  UTP1700     0.2319
     19  O2'       13.5450   62.8450   55.2900 O.3   1700  UTP1700    -0.2157
     20  C3'       14.7970   60.7250   55.3930 C.3   1700  UTP1700     0.2158
     21  O3'       13.4430   60.1470   55.2470 O.3   1700  UTP1700    -0.2175
     22  N1        17.1320   63.0670   55.4430 N.am  1700  UTP1700    -0.1766
     23  C6        17.2140   63.1100   54.0540 C.2   1700  UTP1700     0.0929
     24  C2        18.2620   63.2650   56.2470 C.1   1700  UTP1700     0.2845
     25  O2        18.2230   63.2210   57.4740 O.2   1700  UTP1700    -0.1918
     26  N3        19.4060   63.6110   55.5410 N.2   1700  UTP1700    -0.2452
     27  C4        19.5280   63.6770   54.1430 C.1   1700  UTP1700     0.2182
     28  O4        20.6330   63.9850   53.6490 O.2   1700  UTP1700    -0.2085
     29  C5        18.3010   63.4300   53.3920 C.2   1700  UTP1700     0.1242
@<TRIPOS>BOND
     1    11    10    2
     2    13    10    1
     3    12    10    1
     4    10     9    1
     5    29    23    2
     6    29    27    1
     7    28    27    2
     8    23    22    1
     9    27    26    2
    10     9     6    1
    11    18    19    1
    12    18    20    1
    13    18    17    1
    14    21    20    1
    15    20    15    1
    16     4     6    1
    17     4     1    1
    18    22    17    1
    19    22    24   am
    20    26    24    2
    21     6     8    2
    22     6     7    1
    23     5     1    1
    24     5    14    1
    25     3     1    2
    26    17    16    1
    27    24    25    2
    28     1     2    1
    29    14    15    1
    30    15    16    1
