@<TRIPOS>MOLECULE
1nb9_ADP_A_1.pdb
 27 29 0 0 0
SMALL
GASTEIGER

@<TRIPOS>ATOM
      1  PB        -1.9410   27.6860   22.2330 P.3   301  ADP301      0.5373
      2  O1B       -2.3260   28.2180   23.5610 O.3   301  ADP301     -0.1143
      3  O2B       -2.8000   26.5250   21.7340 O.3   301  ADP301     -0.1143
      4  O3B       -1.9300   28.8220   21.2690 O.2   301  ADP301     -0.2221
      5  PA         0.4690   26.4630   23.3740 P.3   301  ADP301      0.2231
      6  O1A        1.9240   26.8040   23.0090 O.2   301  ADP301     -0.5169
      7  O2A        0.0260   26.8910   24.7780 O.3   301  ADP301     -0.4370
      8  O3A       -0.4050   27.1830   22.2820 O.3   301  ADP301     -0.2261
      9  O5'        0.3220   24.9300   23.2190 O.3   301  ADP301     -0.3111
     10  C5'       -0.9500   24.3130   23.5420 C.3   301  ADP301      0.1813
     11  C4'       -1.1530   22.9830   22.8190 C.3   301  ADP301      0.1821
     12  O4'       -0.1980   22.0250   23.2120 O.3   301  ADP301     -0.3135
     13  C3'       -2.4640   22.2490   23.1360 C.3   301  ADP301      0.2184
     14  O3'       -3.5690   22.6640   22.3240 O.3   301  ADP301     -0.2174
     15  C2'       -2.1360   20.8050   22.8450 C.3   301  ADP301      0.2570
     16  O2'       -2.3480   20.5250   21.4730 O.3   301  ADP301     -0.2130
     17  C1'       -0.6280   20.6980   23.0320 C.3   301  ADP301      0.3186
     18  N9        -0.1800   20.0070   24.2610 N.pl3 301  ADP301     -0.1439
     19  C8         0.7570   18.9740   24.2900 C.3   301  ADP301      0.3377
     20  N7         0.9810   18.5680   25.5410 N.2   301  ADP301     -0.2095
     21  C5         0.1850   19.3200   26.3620 C.2   301  ADP301      0.2526
     22  C6         0.0350   19.3180   27.7630 C.2   301  ADP301      0.4393
     23  N6         0.8000   18.6110   28.5900 N.pl3 301  ADP301      0.2180
     24  N1        -0.8620   20.2140   28.3040 N.2   301  ADP301      0.0021
     25  C2        -1.5510   21.0790   27.4790 C.3   301  ADP301      0.5254
     26  N3        -1.4430   21.0710   26.1050 N.2   301  ADP301     -0.0055
     27  C4        -0.5590   20.1880   25.5640 C.2   301  ADP301      0.3518
@<TRIPOS>BOND
     1     4     1    2
     2    16    15    1
     3     3     1    1
     4     1     8    1
     5     1     2    1
     6     8     5    1
     7    14    13    1
     8    11    13    1
     9    11    12    1
    10    11    10    1
    11    15    17    1
    12    15    13    1
    13     6     5    2
    14    17    12    1
    15    17    18    1
    16     9     5    1
    17     9    10    1
    18     5     7    1
    19    18    19    1
    20    18    27    1
    21    19    20    1
    22    20    21    2
    23    27    26    2
    24    27    21    1
    25    26    25    1
    26    21    22    1
    27    25    24    1
    28    22    24    2
    29    22    23    1
