@<TRIPOS>MOLECULE
1nb9_RBF_A_1.pdb
 27 29 0 0 0
SMALL
GASTEIGER

@<TRIPOS>ATOM
      1  N1         0.4140   34.7820   34.4540 N.2   401  RBF401     -0.2890
      2  C2         0.4900   35.8260   35.3280 C.1   401  RBF401      0.3669
      3  O2         0.6090   36.9930   34.8660 O.2   401  RBF401     -0.1744
      4  N3         0.4640   35.6650   36.6680 N.2   401  RBF401     -0.2300
      5  C4         0.3270   34.4570   37.2550 C.1   401  RBF401      0.2513
      6  O4         0.2260   34.3270   38.5000 O.2   401  RBF401     -0.2057
      7  C4A        0.2330   33.2770   36.3850 C.2   401  RBF401      0.2700
      8  N5         0.1390   32.0460   36.9170 N.2   401  RBF401     -0.3878
      9  C5A        0.0730   30.9690   36.0940 C.2   401  RBF401      0.1320
     10  C6        -0.0140   29.6930   36.6600 C.2   401  RBF401      0.0250
     11  C7        -0.1100   28.5710   35.8120 C.2   401  RBF401     -0.0238
     12  C7M       -0.2390   27.1870   36.3710 C.3   401  RBF401      0.0308
     13  C8        -0.0870   28.7550   34.3460 C.2   401  RBF401     -0.0280
     14  C8M       -0.1890   27.5530   33.4350 C.3   401  RBF401      0.0304
     15  C9         0.0010   30.0250   33.7890 C.2   401  RBF401     -0.0041
     16  C9A        0.0960   31.1500   34.6110 C.3   401  RBF401      0.1497
     17  N10        0.2170   32.4360   34.0560 N.pl3 401  RBF401     -0.2691
     18  C10        0.3010   33.5070   34.9280 C.2   401  RBF401      0.2416
     19  C1'        0.1870   32.7510   32.6030 C.3   401  RBF401      0.1294
     20  C2'        1.3160   32.2740   31.7610 C.3   401  RBF401      0.2044
     21  O2'        2.1510   33.3960   31.9320 O.3   401  RBF401     -0.2185
     22  C3'        0.6740   31.9570   30.3860 C.3   401  RBF401      0.2166
     23  O3'        0.5430   30.5520   30.3070 O.3   401  RBF401     -0.2175
     24  C4'        1.3580   32.3310   29.0780 C.3   401  RBF401      0.2175
     25  O4'        2.0430   33.5410   29.3280 O.3   401  RBF401     -0.2175
     26  C5'        0.3550   32.4760   27.9070 C.3   401  RBF401      0.2175
     27  O5'       -0.4090   31.3030   27.5360 O.3   401  RBF401     -0.2175
@<TRIPOS>BOND
     1    27    26    1
     2    26    24    1
     3    24    25    1
     4    24    22    1
     5    23    22    1
     6    22    20    1
     7    20    21    1
     8    20    19    1
     9    19    17    1
    10    14    13    1
    11    15    13    2
    12    15    16    1
    13    17    16    1
    14    17    18    1
    15    13    11    1
    16     1    18    2
    17     1     2    2
    18    16     9    1
    19     3     2    2
    20    18     7    1
    21     2     4    2
    22    11    12    1
    23    11    10    2
    24     9    10    1
    25     9     8    2
    26     7     8    2
    27     7     5    1
    28     4     5    2
    29     5     6    2
