@<TRIPOS>MOLECULE
1nbb_HEM_A_1.pdb
 43 50 0 0 0
SMALL
GASTEIGER

@<TRIPOS>ATOM
      1 FE         27.3460   17.4530   28.4350 Fe    130  HEM130      0.0000
      2  CHA       24.8310   16.8410   26.3530 C.2   130  HEM130      0.0000
      3  CHB       27.6860   20.6160   27.3190 C.2   130  HEM130      0.0000
      4  CHC       29.7820   18.0960   30.7420 C.2   130  HEM130      0.0000
      5  CHD       27.2590   14.1880   29.6290 C.2   130  HEM130      0.0000
      6  NA        26.4700   18.4840   27.0920 N.ar  130  HEM130      0.0000
      7  C1A       25.4760   18.0710   26.2220 C.ar  130  HEM130      0.0000
      8  C2A       25.1710   19.1090   25.2940 C.ar  130  HEM130      0.0000
      9  C3A       25.8990   20.1900   25.6690 C.ar  130  HEM130      0.0000
     10  C4A       26.7210   19.7960   26.7510 C.ar  130  HEM130      0.0000
     11  CMA       25.7300   21.6300   25.2010 C.3   130  HEM130      0.0000
     12  CAA       24.0420   19.2130   24.3500 C.3   130  HEM130      0.0000
     13  CBA       23.8210   18.1860   23.2700 C.3   130  HEM130      0.0000
     14  CGA       24.5520   18.5120   21.9820 C.2   130  HEM130      0.0000
     15  O1A       24.1540   19.4840   21.2940 O.co2 130  HEM130      0.0000
     16  O2A       25.5110   17.7800   21.6490 O.co2 130  HEM130      0.0000
     17  NB        28.4100   19.0480   28.9500 N.2   130  HEM130      0.0000
     18  C1B       28.4540   20.2780   28.3770 C.2   130  HEM130      0.0000
     19  C2B       29.4730   21.1260   28.9690 C.2   130  HEM130      0.0000
     20  C3B       30.1140   20.4210   29.9150 C.2   130  HEM130      0.0000
     21  C4B       29.4050   19.1280   29.9250 C.2   130  HEM130      0.0000
     22  CMB       29.9430   22.4710   28.4910 C.3   130  HEM130      0.0000
     23  CAB       31.3250   20.8730   30.7520 C.3   130  HEM130      0.0000
     24  CBB       31.0830   22.1520   31.5710 C.3   130  HEM130      0.0000
     25  NC        28.2820   16.3960   29.8410 N.ar  130  HEM130      0.0000
     26  C1C       29.2910   16.8220   30.7010 C.ar  130  HEM130      0.0000
     27  C2C       29.6080   15.8480   31.7280 C.ar  130  HEM130      0.0000
     28  C3C       28.8780   14.7450   31.4380 C.ar  130  HEM130      0.0000
     29  C4C       28.0520   15.1060   30.2770 C.ar  130  HEM130      0.0000
     30  CMC       30.4540   16.0280   32.9660 C.3   130  HEM130      0.0000
     31  CAC       28.9830   13.2830   31.9650 C.3   130  HEM130      0.0000
     32  CBC       29.1960   13.0970   33.4540 C.3   130  HEM130      0.0000
     33  ND        26.3380   15.8340   28.0460 N.2   130  HEM130      0.0000
     34  C1D       26.4470   14.5380   28.5730 C.2   130  HEM130      0.0000
     35  C2D       25.4350   13.6620   28.0760 C.2   130  HEM130      0.0000
     36  C3D       24.6800   14.4500   27.2250 C.2   130  HEM130      0.0000
     37  C4D       25.2520   15.7780   27.1860 C.2   130  HEM130      0.0000
     38  CMD       25.2710   12.1730   28.4170 C.3   130  HEM130      0.0000
     39  CAD       23.4740   14.0520   26.3910 C.3   130  HEM130      0.0000
     40  CBD       22.1580   14.3120   27.0980 C.3   130  HEM130      0.0000
     41  CGD       20.9620   14.1690   26.1760 C.2   130  HEM130      0.0000
     42  O1D       21.1310   14.3420   24.9450 O.co2 130  HEM130      0.0000
     43  O2D       19.8470   13.8920   26.6870 O.co2 130  HEM130      0.0000
@<TRIPOS>BOND
     1    15    14   ar
     2    16    14   ar
     3    14    13    1
     4    13    12    1
     5    12     8    1
     6    42    41   ar
     7    11     9    1
     8     8     9   ar
     9     8     7   ar
    10     9    10   ar
    11    41    43   ar
    12    41    40    1
    13     7     2    2
    14     7     6   ar
    15     2    37    1
    16    39    40    1
    17    39    36    1
    18    10     6   ar
    19    10     3    2
    20     6     1    1
    21    37    36    1
    22    37    33    2
    23    36    35    2
    24     3    18    1
    25    33     1    1
    26    33    34    1
    27    35    38    1
    28    35    34    1
    29    18    17    2
    30    18    19    1
    31     1    17    1
    32     1    25    1
    33    22    19    1
    34    34     5    2
    35    17    21    1
    36    19    20    2
    37     5    29    1
    38    25    29   ar
    39    25    26   ar
    40    20    21    1
    41    20    23    1
    42    21     4    2
    43    29    28   ar
    44    26     4    1
    45    26    27   ar
    46    23    24    1
    47    28    27   ar
    48    28    31    1
    49    27    30    1
    50    31    32    1
