@<TRIPOS>MOLECULE
1nbh_SAM_A_1.pdb
 27 29 0 0 0
SMALL
GASTEIGER

@<TRIPOS>ATOM
      1  N         36.9140   96.6470  110.3500 N.3   293  SAM293     -0.1208
      2  CA        38.3190   96.3680  110.7680 C.3   293  SAM293      0.1952
      3  C         38.5160   94.8930  110.9200 C.2   293  SAM293      0.3819
      4  O         37.5530   94.1340  110.7120 O.co2 293  SAM293     -0.2441
      5  OXT       39.6950   94.5550  111.2670 O.co2 293  SAM293     -0.2441
      6  CB        38.6080   97.0160  112.1130 C.3   293  SAM293      0.0414
      7  CG        37.6650   98.1220  112.4110 C.3   293  SAM293      0.0503
      8  SD        37.8960   98.9370  113.9980 S.3   293  SAM293     -0.1761
      9  CE        37.3460   97.7330  115.2160 C.3   293  SAM293      0.0590
     10  C5'       36.6750  100.1790  114.0420 C.3   293  SAM293      0.0806
     11  C4'       36.9080  101.3260  113.0900 C.3   293  SAM293      0.1622
     12  O4'       35.8200  102.2590  113.2330 O.3   293  SAM293     -0.3153
     13  C3'       38.1420  102.1540  113.4320 C.3   293  SAM293      0.2168
     14  O3'       39.1310  101.8020  112.4280 O.3   293  SAM293     -0.2175
     15  C2'       37.7330  103.6010  113.2560 C.3   293  SAM293      0.2569
     16  O2'       38.5470  104.4910  112.5370 O.3   293  SAM293     -0.2130
     17  C1'       36.2770  103.4860  112.7600 C.3   293  SAM293      0.3185
     18  N9        35.4180  104.5480  113.2500 N.pl3 293  SAM293     -0.1439
     19  C8        35.0280  104.8420  114.5350 C.3   293  SAM293      0.3377
     20  N7        34.2290  105.8740  114.6290 N.2   293  SAM293     -0.2095
     21  C5        34.0730  106.2910  113.3150 C.2   293  SAM293      0.2526
     22  C6        33.3320  107.3500  112.7200 C.2   293  SAM293      0.4393
     23  N6        32.5780  108.2060  113.4510 N.pl3 293  SAM293      0.2180
     24  N1        33.3830  107.5130  111.3510 N.2   293  SAM293      0.0021
     25  C2        34.1370  106.6480  110.6280 C.3   293  SAM293      0.5254
     26  N3        34.8760  105.6110  111.0840 N.2   293  SAM293     -0.0055
     27  C4        34.8020  105.4850  112.4480 C.2   293  SAM293      0.3518
@<TRIPOS>BOND
     1     1     2    1
     2    25    26    1
     3    25    24    1
     4     4     3   ar
     5     2     3    1
     6     2     6    1
     7     3     5   ar
     8    26    27    2
     9    24    22    2
    10     6     7    1
    11     7     8    1
    12    14    13    1
    13    27    18    1
    14    27    21    1
    15    16    15    1
    16    22    21    1
    17    22    23    1
    18    17    12    1
    19    17    18    1
    20    17    15    1
    21    11    12    1
    22    11    13    1
    23    11    10    1
    24    18    19    1
    25    15    13    1
    26    21    20    2
    27     8    10    1
    28     8     9    1
    29    19    20    1
