@<TRIPOS>MOLECULE
1nbi_SAM_A_1.pdb
 27 29 0 0 0
SMALL
GASTEIGER

@<TRIPOS>ATOM
      1  N         16.7250   24.0820   15.3030 N.3   293  SAM293     -0.1208
      2  CA        15.8510   22.9590   14.8740 C.3   293  SAM293      0.1952
      3  C         14.9320   22.5280   15.9910 C.2   293  SAM293      0.3819
      4  O         15.0070   23.1080   17.0860 O.co2 293  SAM293     -0.2441
      5  OXT       14.1330   21.5610   15.6910 O.co2 293  SAM293     -0.2441
      6  CB        16.6930   21.7660   14.4870 C.3   293  SAM293      0.0414
      7  CG        18.0690   22.1670   14.1460 C.3   293  SAM293      0.0503
      8  SD        19.2040   20.8490   13.6780 S.3   293  SAM293     -0.1761
      9  CE        19.5070   19.9690   15.2140 C.3   293  SAM293      0.0590
     10  C5'       20.6780   21.7230   13.3430 C.3   293  SAM293      0.0806
     11  C4'       20.6570   22.5520   12.0760 C.3   293  SAM293      0.1622
     12  O4'       21.9300   23.1760   12.0040 O.3   293  SAM293     -0.3153
     13  C3'       20.5960   21.6880   10.8230 C.3   293  SAM293      0.2168
     14  O3'       19.3140   22.0800   10.2390 O.3   293  SAM293     -0.2175
     15  C2'       21.7000   22.1650    9.9120 C.3   293  SAM293      0.2569
     16  O2'       21.4990   22.3250    8.5350 O.3   293  SAM293     -0.2130
     17  C1'       22.2160   23.3850   10.6660 C.3   293  SAM293      0.3185
     18  N9        23.6320   23.6510   10.4980 N.pl3 293  SAM293     -0.1439
     19  C8        24.7320   22.9080   10.8620 C.3   293  SAM293      0.3377
     20  N7        25.8760   23.4780   10.5560 N.2   293  SAM293     -0.2095
     21  C5        25.5060   24.6760    9.9430 C.2   293  SAM293      0.2526
     22  C6        26.2530   25.7530    9.3810 C.2   293  SAM293      0.4393
     23  N6        27.6080   25.7600    9.3600 N.pl3 293  SAM293      0.2180
     24  N1        25.5730   26.8280    8.8410 N.2   293  SAM293      0.0021
     25  C2        24.2160   26.8120    8.8670 C.3   293  SAM293      0.5254
     26  N3        23.4120   25.8520    9.3680 N.2   293  SAM293     -0.0055
     27  C4        24.1250   24.8000    9.8990 C.2   293  SAM293      0.3518
@<TRIPOS>BOND
     1    16    15    1
     2    24    25    1
     3    24    22    2
     4    25    26    1
     5    23    22    1
     6    26    27    2
     7    22    21    1
     8    27    21    1
     9    27    18    1
    10    15    17    1
    11    15    13    1
    12    21    20    2
    13    14    13    1
    14    18    17    1
    15    18    19    1
    16    20    19    1
    17    17    12    1
    18    13    11    1
    19    12    11    1
    20    11    10    1
    21    10     8    1
    22     8     7    1
    23     8     9    1
    24     7     6    1
    25     6     2    1
    26     2     1    1
    27     2     3    1
    28     5     3   ar
    29     3     4   ar
