@<TRIPOS>MOLECULE
1nbm_ATP_A_1.pdb
 31 33 0 0 0
SMALL
GASTEIGER

@<TRIPOS>ATOM
      1  PG       103.5700   64.6040   49.1980 P.3   600  ATP600      0.5373
      2  O1G      103.6440   65.4920   50.3820 O.3   600  ATP600     -0.1143
      3  O2G      104.0990   65.1670   47.8990 O.2   600  ATP600     -0.2221
      4  O3G      103.8230   63.1620   49.4440 O.3   600  ATP600     -0.1143
      5  PB       101.2260   65.9640   48.6300 P.3   600  ATP600      0.2277
      6  O1B      100.9130   66.6430   49.9120 O.3   600  ATP600     -0.4368
      7  O2B      102.0070   66.6800   47.5830 O.2   600  ATP600     -0.5168
      8  O3B      102.0030   64.6050   48.9440 O.3   600  ATP600     -0.2258
      9  PA        99.7490   64.8400   46.5670 P.3   600  ATP600      0.2189
     10  O1A       99.9030   65.9270   45.5680 O.2   600  ATP600     -0.5170
     11  O2A      100.6480   63.6530   46.5050 O.3   600  ATP600     -0.4371
     12  O3A       99.8370   65.4940   48.0130 O.3   600  ATP600     -0.2700
     13  O5'       98.2310   64.3660   46.6100 O.3   600  ATP600     -0.3112
     14  C5'       97.7620   63.5490   47.6800 C.3   600  ATP600      0.1813
     15  C4'       96.4110   62.9680   47.3450 C.3   600  ATP600      0.1821
     16  O4'       95.4220   64.0220   47.3170 O.3   600  ATP600     -0.3135
     17  C3'       96.2860   62.3120   45.9780 C.3   600  ATP600      0.2184
     18  O3'       96.7510   60.9660   46.0180 O.3   600  ATP600     -0.2174
     19  C2'       94.7830   62.3590   45.7260 C.3   600  ATP600      0.2570
     20  O2'       94.1090   61.2820   46.3420 O.3   600  ATP600     -0.2130
     21  C1'       94.3870   63.6710   46.4190 C.3   600  ATP600      0.3186
     22  N9        94.1440   64.7920   45.5190 N.pl3 600  ATP600     -0.1439
     23  C8        95.0460   65.6820   45.0020 C.3   600  ATP600      0.3377
     24  N7        94.5080   66.6010   44.2350 N.2   600  ATP600     -0.2095
     25  C5        93.1560   66.2870   44.2480 C.2   600  ATP600      0.2526
     26  C6        92.0430   66.8860   43.6270 C.2   600  ATP600      0.4393
     27  N6        92.1150   67.9690   42.8480 N.pl3 600  ATP600      0.2180
     28  N1        90.8330   66.3220   43.8440 N.2   600  ATP600      0.0021
     29  C2        90.7580   65.2390   44.6270 C.3   600  ATP600      0.5254
     30  N3        91.7310   64.5910   45.2650 N.2   600  ATP600     -0.0055
     31  C4        92.9180   65.1730   45.0290 C.2   600  ATP600      0.3518
@<TRIPOS>BOND
     1    27    26    1
     2    26    28    2
     3    26    25    1
     4    28    29    1
     5    24    25    2
     6    24    23    1
     7    25    31    1
     8    29    30    1
     9    23    22    1
    10    31    30    2
    11    31    22    1
    12    22    21    1
    13    10     9    2
    14    19    17    1
    15    19    20    1
    16    19    21    1
    17    17    18    1
    18    17    15    1
    19    21    16    1
    20    11     9    1
    21     9    13    1
    22     9    12    1
    23    13    14    1
    24    16    15    1
    25    15    14    1
    26     7     5    2
    27     3     1    2
    28    12     5    1
    29     5     8    1
    30     5     6    1
    31     8     1    1
    32     1     4    1
    33     1     2    1
