@<TRIPOS>MOLECULE
1nbm_ADP_D_1.pdb
 27 29 0 0 0
SMALL
GASTEIGER

@<TRIPOS>ATOM
      1  PB       103.7700   47.6470   68.8600 P.3   600  ADP600      0.5373
      2  O1B      102.8650   48.3830   67.9430 O.2   600  ADP600     -0.2221
      3  O2B      104.8470   46.7680   68.2890 O.3   600  ADP600     -0.1143
      4  O3B      104.4580   48.7020   69.8320 O.3   600  ADP600     -0.1143
      5  PA       102.0980   45.5030   69.4190 P.3   600  ADP600      0.2231
      6  O1A      101.7620   45.6700   67.9820 O.2   600  ADP600     -0.5169
      7  O2A      102.9020   44.3310   69.8470 O.3   600  ADP600     -0.4370
      8  O3A      102.8770   46.8140   69.8820 O.3   600  ADP600     -0.2261
      9  O5'      100.7530   45.5420   70.2720 O.3   600  ADP600     -0.3111
     10  C5'      100.7840   45.8140   71.6720 C.3   600  ADP600      0.1813
     11  C4'       99.5740   45.2180   72.3500 C.3   600  ADP600      0.1821
     12  O4'       98.3750   45.8300   71.8060 O.3   600  ADP600     -0.3135
     13  C3'       99.3720   43.7280   72.1290 C.3   600  ADP600      0.2184
     14  O3'      100.1230   42.9680   73.0670 O.3   600  ADP600     -0.2174
     15  C2'       97.8720   43.5710   72.3480 C.3   600  ADP600      0.2570
     16  O2'       97.5110   43.5050   73.7160 O.3   600  ADP600     -0.2130
     17  C1'       97.3420   44.8610   71.7260 C.3   600  ADP600      0.3186
     18  N9        96.9770   44.7100   70.3190 N.pl3 600  ADP600     -0.1439
     19  C8        97.7290   45.0250   69.2150 C.3   600  ADP600      0.3377
     20  N7        97.1310   44.7740   68.0760 N.2   600  ADP600     -0.2095
     21  C5        95.9000   44.2570   68.4550 C.2   600  ADP600      0.2526
     22  C6        94.8000   43.7970   67.7100 C.2   600  ADP600      0.4393
     23  N6        94.7630   43.7830   66.3770 N.pl3 600  ADP600      0.2180
     24  N1        93.7260   43.3430   68.3950 N.2   600  ADP600      0.0021
     25  C2        93.7660   43.3590   69.7360 C.3   600  ADP600      0.5254
     26  N3        94.7410   43.7680   70.5470 N.2   600  ADP600     -0.0055
     27  C4        95.7920   44.2100   69.8330 C.2   600  ADP600      0.3518
@<TRIPOS>BOND
     1    23    22    1
     2    22    24    2
     3    22    21    1
     4     2     1    2
     5     6     5    2
     6    20    21    2
     7    20    19    1
     8     3     1    1
     9    24    25    1
    10    21    27    1
    11     1     4    1
    12     1     8    1
    13    19    18    1
    14     5     7    1
    15     5     8    1
    16     5     9    1
    17    25    26    1
    18    27    18    1
    19    27    26    2
    20     9    10    1
    21    18    17    1
    22    10    11    1
    23    17    12    1
    24    17    15    1
    25    12    11    1
    26    13    15    1
    27    13    11    1
    28    13    14    1
    29    15    16    1
