@<TRIPOS>MOLECULE
1nbo_NAD_A_1.pdb
 44 48 0 0 0
SMALL
GASTEIGER

@<TRIPOS>ATOM
      1  PA        19.9110  126.2290   44.0590 P.3   5335  NAD5335     0.2189
      2  O1A       19.1920  127.4060   43.4620 O.3   5335  NAD5335    -0.4371
      3  O2A       21.0670  125.8740   43.1380 O.2   5335  NAD5335    -0.5170
      4  O5B       19.0210  124.9590   44.1160 O.3   5335  NAD5335    -0.3112
      5  C5B       17.5130  125.0870   44.1970 C.3   5335  NAD5335     0.1813
      6  C4B       17.0730  124.1130   43.1370 C.3   5335  NAD5335     0.1821
      7  O4B       15.7010  123.6980   43.4140 O.3   5335  NAD5335    -0.3135
      8  C3B       17.0890  124.5530   41.6910 C.3   5335  NAD5335     0.2184
      9  O3B       17.6480  123.5770   40.8060 O.3   5335  NAD5335    -0.2174
     10  C2B       15.6250  124.8710   41.3680 C.3   5335  NAD5335     0.2570
     11  O2B       15.2780  124.8030   39.9600 O.3   5335  NAD5335    -0.2130
     12  C1B       14.9120  123.8370   42.2200 C.3   5335  NAD5335     0.3186
     13  N9A       13.5430  124.2060   42.7000 N.pl3 5335  NAD5335    -0.1439
     14  C8A       13.0650  125.4070   43.1750 C.3   5335  NAD5335     0.3377
     15  N7A       11.7750  125.3300   43.4990 N.2   5335  NAD5335    -0.2095
     16  C5A       11.3970  124.0410   43.2270 C.2   5335  NAD5335     0.2526
     17  C6A       10.1470  123.3200   43.3550 C.2   5335  NAD5335     0.4393
     18  N6A        9.0150  123.8520   43.8100 N.pl3 5335  NAD5335     0.2180
     19  N1A       10.1460  122.0080   42.9760 N.2   5335  NAD5335     0.0021
     20  C2A       11.2860  121.4130   42.5020 C.3   5335  NAD5335     0.5254
     21  N3A       12.5000  121.9870   42.3420 N.2   5335  NAD5335    -0.0055
     22  C4A       12.4790  123.3160   42.7310 C.2   5335  NAD5335     0.3518
     23  O3        20.3480  126.3980   45.5450 O.3   5335  NAD5335    -0.2703
     24  PN        21.3390  125.7060   46.5270 P.3   5335  NAD5335     0.2189
     25  O1N       22.4530  126.6530   46.6790 O.3   5335  NAD5335    -0.4371
     26  O2N       21.6770  124.3740   45.9920 O.2   5335  NAD5335    -0.5170
     27  O5D       20.6300  125.6680   47.9650 O.3   5335  NAD5335    -0.3112
     28  C5D       19.4730  124.7840   48.0940 C.3   5335  NAD5335     0.1813
     29  C4D       19.2350  124.6080   49.5800 C.3   5335  NAD5335     0.1799
     30  O4D       20.4480  124.2170   50.2880 O.3   5335  NAD5335    -0.3327
     31  C3D       18.7200  125.9020   50.2910 C.3   5335  NAD5335     0.2158
     32  O3D       17.6930  125.4100   51.2210 O.3   5335  NAD5335    -0.2175
     33  C2D       19.9920  126.3870   51.0410 C.3   5335  NAD5335     0.2309
     34  O2D       19.6940  127.0830   52.2510 O.3   5335  NAD5335    -0.2158
     35  C1D       20.7450  125.1040   51.3610 C.3   5335  NAD5335     0.2263
     36  N1N       22.2460  125.2340   51.4700 N.pl3 5335  NAD5335    -0.2787
     37  C2N       22.9400  125.7910   50.4120 C.3   5335  NAD5335     0.1244
     38  C3N       24.3210  125.8940   50.5420 C.2   5335  NAD5335     0.0544
     39  C7N       25.3410  126.4800   49.5040 C.2   5335  NAD5335     0.2818
     40  O7N       24.9730  127.4980   48.8890 O.2   5335  NAD5335    -0.2670
     41  N7N       26.5030  125.9440   49.2800 N.am  5335  NAD5335    -0.0839
     42  C4N       25.0020  125.4400   51.7260 C.2   5335  NAD5335     0.0033
     43  C5N       24.1980  124.8840   52.7550 C.2   5335  NAD5335     0.0157
     44  C6N       22.8110  124.7450   52.7030 C.2   5335  NAD5335     0.0633
@<TRIPOS>BOND
     1    11    10    1
     2     9     8    1
     3    10     8    1
     4    10    12    1
     5     8     6    1
     6    12    13    1
     7    12     7    1
     8    21    20    1
     9    21    22    2
    10    20    19    1
    11    13    22    1
    12    13    14    1
    13    22    16    1
    14    19    17    2
    15     6     7    1
    16     6     5    1
    17     3     1    2
    18    14    15    1
    19    16    17    1
    20    16    15    2
    21    17    18    1
    22     2     1    1
    23     1     4    1
    24     1    23    1
    25     4     5    1
    26    23    24    1
    27    26    24    2
    28    24    25    1
    29    24    27    1
    30    27    28    1
    31    28    29    1
    32    40    39    2
    33    41    39   am
    34    39    38    1
    35    29    30    1
    36    29    31    1
    37    30    35    1
    38    31    33    1
    39    31    32    1
    40    37    38    1
    41    37    36    1
    42    38    42    2
    43    33    35    1
    44    33    34    1
    45    35    36    1
    46    36    44    1
    47    42    43    1
    48    44    43    2
