@<TRIPOS>MOLECULE
1nbp_MHC_A_1.pdb
 18 20 0 0 0
SMALL
GASTEIGER

@<TRIPOS>ATOM
      1  S1         5.1610   13.0700   25.0380 S.3   201  MHC201     -0.0816
      2  C2         3.6460   12.1430   24.6890 C.3   201  MHC201      0.0782
      3  C3         3.0270   12.6690   23.3980 C.3   201  MHC201      0.0978
      4  C4         3.8710   12.2420   22.2130 C.2   201  MHC201      0.2269
      5  O5         3.9520   11.0520   21.9360 O.2   201  MHC201     -0.2748
      6  N6         4.5050   13.1930   21.5100 N.am  201  MHC201     -0.2726
      7  C7         5.7810   12.9170   20.8340 C.3   201  MHC201      0.0986
      8  C8         5.4980   12.7450   19.3350 C.3   201  MHC201      0.0502
      9  C9         4.5430   13.8350   18.9080 C.2   201  MHC201      0.0091
     10  C10        3.8020   14.7230   19.8500 C.2   201  MHC201      0.1251
     11  C11        3.9820   14.5550   21.3360 C.3   201  MHC201      0.1522
     12  N12        3.0110   15.6110   19.1680 N.2   201  MHC201     -0.4048
     13  C14        4.1260   14.2750   17.6750 C.ar  201  MHC201      0.0278
     14  C13        3.1710   15.3840   17.8380 C.ar  201  MHC201      0.1308
     15  C15        2.6480   15.9420   16.6110 C.ar  201  MHC201      0.0320
     16  C18        4.5200   13.7740   16.3840 C.ar  201  MHC201      0.0023
     17  C17        3.9640   14.3770   15.2550 C.ar  201  MHC201      0.0002
     18  C16        3.0520   15.4320   15.3720 C.ar  201  MHC201      0.0026
@<TRIPOS>BOND
     1    17    18   ar
     2    17    16   ar
     3    18    15   ar
     4    16    13   ar
     5    15    14   ar
     6    13    14   ar
     7    13     9    2
     8    14    12    2
     9     9     8    1
    10     9    10    1
    11    12    10    2
    12     8     7    1
    13    10    11    1
    14     7     6    1
    15    11     6    1
    16     6     4   am
    17     5     4    2
    18     4     3    1
    19     3     2    1
    20     2     1    1
