@<TRIPOS>MOLECULE
1nbu_PH2_A_1.pdb
 14 15 0 0 0
SMALL
GASTEIGER

@<TRIPOS>ATOM
      1  N1        -0.1910  -24.5180   21.6030 N.2   420  PH2420     -0.3830
      2  C2        -0.1660  -25.0040   20.4100 C.2   420  PH2420      0.1470
      3  C3        -1.3790  -24.8040   19.4510 C.3   420  PH2420      0.1940
      4  N4        -2.1920  -23.8950   19.9620 N.2   420  PH2420     -0.1992
      5  N5        -3.3100  -22.6790   21.6580 N.2   420  PH2420     -0.2672
      6  C6        -3.3530  -22.1240   22.8050 C.1   420  PH2420      0.2609
      7  N6        -4.2340  -21.4110   23.3560 N.pl3 420  PH2420     -0.0220
      8  N7        -2.2110  -22.4250   23.6570 N.2   420  PH2420     -0.2466
      9  C8        -1.1190  -23.0430   23.2150 C.1   420  PH2420      0.2569
     10  O8        -0.3360  -23.4070   24.1580 O.2   420  PH2420     -0.2052
     11  C9        -1.2280  -23.7840   22.0760 C.2   420  PH2420      0.2989
     12  C10       -2.3910  -23.4770   21.1950 C.1   420  PH2420      0.1401
     13  C11        1.1390  -25.3800   19.7780 C.3   420  PH2420      0.2380
     14  O4         2.0500  -25.9970   20.5840 O.3   420  PH2420     -0.2126
@<TRIPOS>BOND
     1     3     4    1
     2     3     2    1
     3    13     2    1
     4    13    14    1
     5     4    12    2
     6     2     1    2
     7    12     5    2
     8    12    11    1
     9     1    11    2
    10     5     6    2
    11    11     9    1
    12     6     7    1
    13     6     8    2
    14     9     8    2
    15     9    10    2
