@<TRIPOS>MOLECULE
1nc1_MTH_A_1.pdb
 20 22 0 0 0
SMALL
GASTEIGER

@<TRIPOS>ATOM
      1  CS        56.1220   68.5800   22.5810 C.3   233  MTH233      0.0693
      2  S5'       55.5060   70.2220   23.1270 S.3   233  MTH233     -0.1367
      3  C5'       56.1640   71.2620   21.7830 C.3   233  MTH233      0.0899
      4  C4'       57.6240   71.6620   21.9930 C.3   233  MTH233      0.1630
      5  O4'       58.1860   72.1790   20.7460 O.3   233  MTH233     -0.3150
      6  C2'       57.6370   74.0500   22.0740 C.3   233  MTH233      0.2572
      7  O2'       58.4560   75.1950   22.4790 O.3   233  MTH233     -0.2130
      8  C3'       57.8490   72.7630   23.0050 C.3   233  MTH233      0.2168
      9  O3'       59.2470   72.6590   23.4810 O.3   233  MTH233     -0.2175
     10  C1'       57.9320   73.6160   20.5860 C.3   233  MTH233      0.3212
     11  N9        56.7560   73.7550   19.5220 N.pl3 233  MTH233     -0.1468
     12  C8        56.8850   73.4570   18.1670 C.2   233  MTH233      0.1741
     13  C7        55.7740   73.6300   17.4720 C.2   233  MTH233      0.0420
     14  C5        54.8540   74.0650   18.4100 C.3   233  MTH233      0.2444
     15  C6        53.4720   74.4260   18.3490 C.2   233  MTH233      0.4064
     16  N6        52.7670   74.3890   17.2120 N.pl3 233  MTH233      0.2117
     17  N1        52.8650   74.8210   19.5290 N.2   233  MTH233     -0.0027
     18  C2        53.5650   74.8590   20.6740 C.3   233  MTH233      0.5248
     19  N3        54.8660   74.5410   20.8430 N.2   233  MTH233     -0.0106
     20  C4        55.4440   74.1530   19.6710 C.2   233  MTH233      0.3215
@<TRIPOS>BOND
     1    16    15    1
     2    13    12    2
     3    13    14    1
     4    12    11    1
     5    15    14    1
     6    15    17    2
     7    14    20    1
     8    11    20    1
     9    11    10    1
    10    17    18    1
    11    20    19    2
    12    10     5    1
    13    10     6    1
    14    18    19    1
    15     5     4    1
    16     3     4    1
    17     3     2    1
    18     4     8    1
    19     6     7    1
    20     6     8    1
    21     1     2    1
    22     8     9    1
