@<TRIPOS>MOLECULE
1nc2_DOE_B_1.pdb
 43 44 0 0 0
SMALL
GASTEIGER

@<TRIPOS>ATOM
      1  C1       -12.4550   11.7290   38.4980 C.3   500  DOE500      0.0784
      2  C2       -11.4130   10.6580   38.1270 C.3   500  DOE500      0.0890
      3  C3        -9.0620   10.1420   37.6270 C.3   500  DOE500      0.0901
      4  C4        -8.6890   10.8100   36.3030 C.3   500  DOE500      0.0901
      5  C5        -8.4280   12.8920   34.9830 C.3   500  DOE500      0.0901
      6  C6        -9.8340   13.4010   34.7490 C.3   500  DOE500      0.0901
      7  C7       -11.8150   14.3310   35.6820 C.3   500  DOE500      0.0901
      8  C8       -12.4860   13.1940   36.4770 C.3   500  DOE500      0.0901
      9  C9       -12.7980   14.1230   38.7700 C.3   500  DOE500      0.1878
     10  C10      -12.0110   15.4650   38.8320 C.2   500  DOE500      0.3809
     11  C11       -9.7200   10.5380   39.9160 C.3   500  DOE500      0.1878
     12  C12      -10.1090   11.6320   40.9010 C.2   500  DOE500      0.3809
     13  C13       -6.7110   12.3190   36.6300 C.3   500  DOE500      0.1878
     14  C14       -6.3420   12.3140   38.0880 C.2   500  DOE500      0.3809
     15  C15       -9.8370   15.7670   35.5450 C.3   500  DOE500      0.1878
     16  C16       -8.4790   16.0530   36.1980 C.2   500  DOE500      0.3809
     17  C17      -13.9170   11.1960   38.1240 C.3   500  DOE500      0.0437
     18  C18      -14.2590    9.8640   38.7940 C.ar  500  DOE500     -0.0207
     19  C19      -14.6010    8.7010   38.0540 C.ar  500  DOE500     -0.0029
     20  C20      -14.9010    7.4870   38.7350 C.ar  500  DOE500      0.0163
     21  C21      -14.8700    7.3880   40.1670 C.ar  500  DOE500      0.0734
     22  C22      -14.5270    8.5630   40.9080 C.ar  500  DOE500      0.0163
     23  C23      -14.2300    9.7750   40.2340 C.ar  500  DOE500     -0.0029
     24  C24      -15.2470    5.6320   41.9660 C.2   500  DOE500      0.2566
     25  C25      -15.3780    4.1220   41.9910 C.3   500  DOE500      0.1446
     26  C26      -15.5050    1.6440   40.5840 C.3   500  DOE500      0.0935
     27  C27      -15.4790    0.9010   39.2350 C.3   500  DOE500      0.1937
     28  N1       -12.0960   13.0690   37.9320 N.3   500  DOE500     -0.2616
     29  N2        -9.9590   10.9320   38.4730 N.3   500  DOE500     -0.2608
     30  N3        -8.1910   12.2650   36.3350 N.3   500  DOE500     -0.2607
     31  N4       -10.3410   14.3550   35.8110 N.3   500  DOE500     -0.2607
     32  N5       -15.1660    6.1700   40.7090 N.am  500  DOE500     -0.1785
     33  O1       -10.7260   15.4010   38.8030 O.co2 500  DOE500     -0.2441
     34  O2       -12.6600   16.5320   38.9040 O.co2 500  DOE500     -0.2441
     35  O3       -10.1920   12.8100   40.3730 O.co2 500  DOE500     -0.2441
     36  O4       -10.3420   11.3410   42.1140 O.co2 500  DOE500     -0.2441
     37  O5        -7.2180   12.6640   38.9150 O.co2 500  DOE500     -0.2441
     38  O6        -5.1540   11.9320   38.4080 O.co2 500  DOE500     -0.2441
     39  O7        -8.0730   15.3310   37.1240 O.co2 500  DOE500     -0.2441
     40  O8        -7.7950   17.0130   35.7660 O.co2 500  DOE500     -0.2441
     41  O9       -15.2250    6.2680   43.0270 O.2   500  DOE500     -0.2720
     42  O10      -15.6620   -0.4960   39.3980 O.3   500  DOE500     -0.2194
     43  S1       -15.2860    3.4230   40.2980 S.3   500  DOE500     -0.1278
@<TRIPOS>BOND
     1     6     5    1
     2     6    31    1
     3     5    30    1
     4    15    31    1
     5    15    16    1
     6     7    31    1
     7     7     8    1
     8    40    16   ar
     9    16    39   ar
    10     4    30    1
    11     4     3    1
    12    30    13    1
    13     8    28    1
    14    13    14    1
    15     3    29    1
    16    28     1    1
    17    28     9    1
    18    19    20   ar
    19    19    18   ar
    20    14    38   ar
    21    14    37   ar
    22    17     1    1
    23    17    18    1
    24     2    29    1
    25     2     1    1
    26    29    11    1
    27    20    21   ar
    28     9    10    1
    29    18    23   ar
    30    33    10   ar
    31    10    34   ar
    32    27    42    1
    33    27    26    1
    34    11    12    1
    35    21    32    1
    36    21    22   ar
    37    23    22   ar
    38    43    26    1
    39    43    25    1
    40    35    12   ar
    41    32    24   am
    42    12    36   ar
    43    24    25    1
    44    24    41    2
