@<TRIPOS>MOLECULE
1nc3_FMC_A_1.pdb
 19 21 0 0 0
SMALL
GASTEIGER

@<TRIPOS>ATOM
      1  N1        52.3740   40.6340   19.8220 N.2   233  FMC233     -0.0278
      2  C2        53.0720   40.6730   20.9860 C.3   233  FMC233      0.3922
      3  N3        54.3790   40.3340   21.1230 N.2   233  FMC233     -0.2155
      4  C4        55.0130   39.9130   19.8950 C.2   233  FMC233      0.1251
      5  C5        54.3400   39.8570   18.6580 C.2   233  FMC233      0.2111
      6  C6        52.9360   40.2410   18.6320 C.2   233  FMC233      0.4334
      7  N6        52.2010   40.2190   17.5170 N.pl3 233  FMC233      0.2178
      8  N7        55.2300   39.4200   17.7150 N.2   233  FMC233     -0.1387
      9  N8        56.4730   39.1840   18.3130 N.2   233  FMC233     -0.1480
     10  C9        56.3660   39.4700   19.6300 C.2   233  FMC233      0.1291
     11  C1'       57.5470   39.3160   20.6570 C.3   233  FMC233      0.1910
     12  C2'       57.4800   39.8800   22.1080 C.3   233  FMC233      0.2173
     13  O2'       58.3590   40.9120   22.4350 O.3   233  FMC233     -0.2173
     14  C3'       57.6840   38.6880   23.0240 C.3   233  FMC233      0.2144
     15  O3'       59.0470   38.8150   23.5100 O.3   233  FMC233     -0.2176
     16  C4'       57.4340   37.3850   22.2040 C.3   233  FMC233      0.1814
     17  O4'       57.7800   37.8870   20.8390 O.3   233  FMC233     -0.3446
     18  C5'       55.9500   36.8440   22.2000 C.3   233  FMC233      0.2141
     19  O5'       55.4460   36.3460   23.4370 O.3   233  FMC233     -0.2176
@<TRIPOS>BOND
     1     7     6    1
     2     8     9    1
     3     8     5    2
     4     9    10    2
     5     6     5    1
     6     6     1    2
     7     5     4    1
     8    10     4    1
     9    10    11    1
    10     1     2    1
    11     4     3    2
    12    11    17    1
    13    11    12    1
    14    17    16    1
    15     2     3    1
    16    12    13    1
    17    12    14    1
    18    18    16    1
    19    18    19    1
    20    16    14    1
    21    14    15    1
