@<TRIPOS>MOLECULE
1nc4_DOF_B_1.pdb
 38 39 0 0 0
SMALL
GASTEIGER

@<TRIPOS>ATOM
      1  C1       -11.9330   14.5940   35.9900 C.3   500  DOF500      0.0784
      2  C2       -12.5520   13.4320   36.7640 C.3   500  DOF500      0.0890
      3  C3       -12.4340   11.7790   38.4800 C.3   500  DOF500      0.0901
      4  C4       -11.3860   10.7480   38.2820 C.3   500  DOF500      0.0901
      5  C5        -9.1910   10.2170   37.5760 C.3   500  DOF500      0.0901
      6  C6        -8.7000   10.8950   36.3440 C.3   500  DOF500      0.0901
      7  C7        -8.5360   12.9990   35.1290 C.3   500  DOF500      0.0901
      8  C8        -9.9670   13.4790   34.9490 C.3   500  DOF500      0.0901
      9  C9        -9.8650   15.8860   35.7680 C.3   500  DOF500      0.1878
     10  C10       -8.4800   16.1320   36.3450 C.2   500  DOF500      0.3809
     11  C11      -12.6360   14.1010   39.1130 C.3   500  DOF500      0.1878
     12  C12      -12.0070   15.5000   39.1080 C.2   500  DOF500      0.3809
     13  C13       -9.5100   10.7730   39.8690 C.3   500  DOF500      0.1878
     14  C14      -10.1700   11.5850   41.0230 C.2   500  DOF500      0.3809
     15  C15       -6.7670   12.5230   36.6640 C.3   500  DOF500      0.1878
     16  C16       -6.3180   12.3710   38.1360 C.2   500  DOF500      0.3809
     17  C17      -12.6920   14.7280   34.5820 C.3   500  DOF500      0.0437
     18  C18      -14.2180   14.9370   34.7230 C.ar  500  DOF500     -0.0207
     19  C19      -15.1520   14.1440   33.9820 C.ar  500  DOF500     -0.0025
     20  C20      -16.5600   14.3400   34.1410 C.ar  500  DOF500      0.0237
     21  C21      -17.1020   15.3380   35.0510 C.ar  500  DOF500      0.1429
     22  C22      -16.1330   16.1230   35.7800 C.ar  500  DOF500      0.0237
     23  C23      -14.7370   15.9310   35.6220 C.ar  500  DOF500     -0.0025
     24  N1       -10.4260   14.4970   36.0030 N.3   500  DOF500     -0.2616
     25  N2       -12.0190   13.1580   38.1120 N.3   500  DOF500     -0.2608
     26  N3        -9.9610   11.1050   38.4870 N.3   500  DOF500     -0.2607
     27  N4        -8.2660   12.3430   36.4310 N.3   500  DOF500     -0.2607
     28  N5       -18.4760   15.5320   35.2180 N.pl3 500  DOF500      0.0577
     29  O1        -8.0580   15.3650   37.2000 O.co2 500  DOF500     -0.2441
     30  O2        -7.8250   17.0970   35.9160 O.co2 500  DOF500     -0.2441
     31  O3       -10.7360   15.5880   39.0610 O.co2 500  DOF500     -0.2441
     32  O4       -12.7450   16.4990   39.1420 O.co2 500  DOF500     -0.2441
     33  O5       -10.4540   12.7340   40.7770 O.co2 500  DOF500     -0.2441
     34  O6       -10.3180   10.9740   42.1590 O.co2 500  DOF500     -0.2441
     35  O7        -7.1830   12.4840   39.0300 O.co2 500  DOF500     -0.2441
     36  O8        -5.1200   12.1360   38.3540 O.co2 500  DOF500     -0.2441
     37  O9       -19.2570   14.8250   34.5630 O.2   500  DOF500     -0.1261
     38  O10      -18.8580   16.4030   36.0170 O.2   500  DOF500     -0.1261
@<TRIPOS>BOND
     1    19    20   ar
     2    19    18   ar
     3    20    21   ar
     4    37    28    2
     5    17    18    1
     6    17     1    1
     7    18    23   ar
     8     8     7    1
     9     8    24    1
    10    21    28    1
    11    21    22   ar
    12     7    27    1
    13    28    38    2
    14    23    22   ar
    15     9    24    1
    16     9    10    1
    17    30    10   ar
    18     1    24    1
    19     1     2    1
    20     6    27    1
    21     6     5    1
    22    10    29   ar
    23    27    15    1
    24    15    16    1
    25     2    25    1
    26     5    26    1
    27    25     3    1
    28    25    11    1
    29    16    36   ar
    30    16    35   ar
    31     4     3    1
    32     4    26    1
    33    26    13    1
    34    31    12   ar
    35    12    11    1
    36    12    32   ar
    37    13    14    1
    38    33    14   ar
    39    14    34   ar
