@<TRIPOS>MOLECULE
1nc6_ABB_A_1.pdb
 31 33 0 0 0
SMALL
GASTEIGER

@<TRIPOS>ATOM
      1  N1        42.9260   24.9830   51.9510 N.am  300  ABB300     -0.2745
      2  C54       42.1130   26.1700   51.9010 C.3   300  ABB300      0.1263
      3  C53       42.6050   24.2470   50.7510 C.3   300  ABB300      0.1253
      4  C52       41.6090   24.9950   49.8970 C.3   300  ABB300      0.0586
      5  C51       41.2700   26.1940   50.6340 C.3   300  ABB300      0.1735
      6  CP        43.8730   23.9470   49.9320 C.3   300  ABB300      0.2438
      7  OP        44.9350   24.3180   50.3610 O.3   300  ABB300     -0.2018
      8  N         43.8700   22.4760   49.5650 N.3   300  ABB300     -0.1862
      9  CA        44.9500   21.7580   48.7840 C.3   300  ABB300      0.1132
     10  CB        44.9510   20.2810   49.3230 C.3   300  ABB300      0.0242
     11  CG        45.2090   20.3250   50.8320 C.3   300  ABB300      0.0485
     12  CD        45.2130   18.9730   51.4780 C.3   300  ABB300      0.2205
     13  NE        45.4730   19.1640   52.9210 N.pl3 300  ABB300     -0.0865
     14  CZ        45.6300   17.9970   53.8330 C.cat 300  ABB300      0.5346
     15  NH1       46.2850   18.2900   55.1370 N.pl3 300  ABB300      0.1354
     16  NH2       45.4720   16.8200   53.0350 N.pl3 300  ABB300      0.1354
     17  O         45.7980   21.0240   46.6110 O.3   300  ABB300     -0.2134
     18  N5        43.5470   24.0540   46.8260 N.2   300  ABB300     -0.4006
     19  C5        44.6650   23.2600   46.8320 C.2   300  ABB300      0.1697
     20  S5        46.0500   24.1250   46.2890 S.3   300  ABB300     -0.0550
     21  C61       43.7950   25.3430   46.3970 C.2   300  ABB300      0.1196
     22  C62       45.1580   25.5940   46.0400 C.2   300  ABB300      0.0573
     23  C63       45.5590   26.8770   45.5820 C.2   300  ABB300      0.0085
     24  C64       44.5980   27.9330   45.4730 C.2   300  ABB300     -0.0036
     25  C65       43.2220   27.7050   45.8250 C.2   300  ABB300     -0.0186
     26  C66       42.8180   26.3890   46.2920 C.3   300  ABB300      0.0855
     27  O1        39.8930   26.1590   50.9890 O.3   300  ABB300     -0.2212
     28  C1        42.8600   24.1170   53.0760 C.2   300  ABB300      0.2263
     29  C2        42.4450   24.6250   54.4730 C.3   300  ABB300      0.0948
     30  O2        43.1830   22.9060   53.0060 O.2   300  ABB300     -0.2749
     31  C         44.6940   21.7730   47.2670 C.3   300  ABB300      0.2256
@<TRIPOS>BOND
     1    24    23    1
     2    24    25    2
     3    23    22    2
     4    25    26    1
     5    22    20    1
     6    22    21    1
     7    20    19    1
     8    26    21    1
     9    21    18    2
    10    17    31    1
    11    18    19    2
    12    19    31    1
    13    31     9    1
    14     9    10    1
    15     9     8    1
    16    10    11    1
    17     8     6    1
    18     4     5    1
    19     4     3    1
    20     6     7    1
    21     6     3    1
    22     5    27    1
    23     5     2    1
    24     3     1    1
    25    11    12    1
    26    12    13    1
    27     2     1    1
    28     1    28   am
    29    13    14    2
    30    30    28    2
    31    16    14    1
    32    28    29    1
    33    14    15    1
