@<TRIPOS>MOLECULE
1nc9_IMI_A_1.pdb
 16 17 0 0 0
SMALL
GASTEIGER

@<TRIPOS>ATOM
      1  C11       15.9310    4.1840   29.2740 C.2   5100  IMI5100     0.3649
      2  O11       14.7900    4.0850   29.8010 O.co2 5100  IMI5100    -0.2457
      3  O12       16.5670    3.1790   28.8610 O.co2 5100  IMI5100    -0.2457
      4  C10       16.4810    5.5640   29.1670 C.3   5100  IMI5100     0.1141
      5  C9        15.3710    6.5610   28.7750 C.3   5100  IMI5100     0.0118
      6  C8        14.6300    6.0510   27.5290 C.3   5100  IMI5100     0.0015
      7  C7        13.5200    7.0070   27.0390 C.3   5100  IMI5100     0.0129
      8  C2        12.8600    6.7530   25.7040 C.3   5100  IMI5100     0.0729
      9  S1        13.8880    7.1090   24.2250 S.3   5100  IMI5100    -0.1369
     10  C6        12.4050    6.9350   23.1720 C.3   5100  IMI5100     0.0847
     11  C5        11.2670    7.6080   23.9130 C.3   5100  IMI5100     0.1492
     12  N1        11.1860    9.0450   23.6900 N.2   5100  IMI5100    -0.2047
     13  C3        11.3790    9.7410   24.8210 C.1   5100  IMI5100     0.1238
     14  N3        11.3260   10.9830   24.9780 N.pl3 5100  IMI5100    -0.0464
     15  N2        11.6050    8.8870   25.8500 N.2   5100  IMI5100    -0.2047
     16  C4        11.5590    7.4970   25.4230 C.3   5100  IMI5100     0.1483
@<TRIPOS>BOND
     1    10    11    1
     2    10     9    1
     3    12    11    1
     4    12    13    2
     5    11    16    1
     6     9     8    1
     7    13    14    1
     8    13    15    2
     9    16     8    1
    10    16    15    1
    11     8     7    1
    12     7     6    1
    13     6     5    1
    14     5     4    1
    15     3     1   ar
    16     4     1    1
    17     1     2   ar
