@<TRIPOS>MOLECULE
1nce_UMP_A_1.pdb
 20 21 0 0 0
SMALL
GASTEIGER

@<TRIPOS>ATOM
      1  N1        17.6050   20.3320   31.1520 N.am  565  UMP565     -0.2018
      2  C2        18.3560   20.0510   32.3050 C.1   565  UMP565      0.2802
      3  N3        19.2660   19.0180   32.2110 N.2   565  UMP565     -0.2497
      4  C4        19.4750   18.2220   31.1040 C.1   565  UMP565      0.1941
      5  C5        18.6720   18.4220   29.8220 C.3   565  UMP565      0.1579
      6  C6        17.9000   19.7530   29.7920 C.3   565  UMP565      0.1249
      7  O2        18.2360   20.6660   33.3690 O.2   565  UMP565     -0.1922
      8  O4        20.3280   17.3330   31.1760 O.2   565  UMP565     -0.2133
      9  C1'       16.3980   21.2280   31.2360 C.3   565  UMP565      0.2048
     10  C2'       16.5840   22.7100   30.8940 C.3   565  UMP565      0.0871
     11  C3'       15.1590   23.1460   30.5710 C.3   565  UMP565      0.1857
     12  C4'       14.5970   22.0720   29.6290 C.3   565  UMP565      0.1774
     13  O3'       14.3380   23.0500   31.7840 O.3   565  UMP565     -0.2203
     14  O4'       15.2560   20.8970   30.3010 O.3   565  UMP565     -0.3342
     15  C5'       15.1530   22.2280   28.2080 C.3   565  UMP565      0.1858
     16  O5'       14.4360   23.2660   27.4590 O.3   565  UMP565     -0.2675
     17  P         15.1340   24.0500   26.2630 P.3   565  UMP565      0.5327
     18  OP1       14.2080   24.7670   25.3610 O.2   565  UMP565     -0.2224
     19  OP2       15.9080   25.0220   27.0590 O.3   565  UMP565     -0.1145
     20  OP3       15.9900   23.1560   25.4430 O.3   565  UMP565     -0.1145
@<TRIPOS>BOND
     1    18    17    2
     2    20    17    1
     3    17    19    1
     4    17    16    1
     5    16    15    1
     6    15    12    1
     7    12    14    1
     8    12    11    1
     9     6     5    1
    10     6     1    1
    11     5     4    1
    12    14     9    1
    13    11    10    1
    14    11    13    1
    15    10     9    1
    16     4     8    2
    17     4     3    2
    18     1     9    1
    19     1     2   am
    20     3     2    2
    21     2     7    2
