@<TRIPOS>MOLECULE
1nce_CB3_A_1.pdb
 35 37 0 0 0
SMALL
GASTEIGER

@<TRIPOS>ATOM
      1  N1        13.0670   18.9980   30.7900 N.2   566  CB3566     -0.3245
      2  C2        12.6510   19.6840   31.9150 C.1   566  CB3566      0.2518
      3  NA2       11.6120   20.5240   31.8540 N.pl3 566  CB3566     -0.0226
      4  N3        13.3370   19.4590   33.1020 N.2   566  CB3566     -0.2501
      5  C4        14.3710   18.5380   33.2160 C.1   566  CB3566      0.2183
      6  O4        15.0920   18.4050   34.3870 O.2   566  CB3566     -0.2085
      7  C4A       14.7210   17.7190   32.1110 C.ar  566  CB3566      0.1259
      8  C5        15.6510   16.6390   32.2010 C.ar  566  CB3566      0.0166
      9  C6        15.9710   15.8220   31.0320 C.ar  566  CB3566      0.0158
     10  C7        15.3590   16.1630   29.7660 C.ar  566  CB3566      0.0040
     11  C8        14.4110   17.2460   29.6740 C.ar  566  CB3566      0.0339
     12  C8A       14.0570   18.0200   30.8390 C.ar  566  CB3566      0.1570
     13  C9        16.6710   14.4800   31.1230 C.2   566  CB3566      0.0661
     14  N10       16.9830   13.8290   32.4450 N.pl3 566  CB3566     -0.2741
     15  C11       13.9370   13.2500   35.3950 C.ar  566  CB3566      0.0551
     16  C12       15.3000   13.4320   35.8250 C.ar  566  CB3566      0.0058
     17  C13       16.3440   13.5310   34.8340 C.ar  566  CB3566      0.0150
     18  C14       16.0490   13.4620   33.4090 C.ar  566  CB3566      0.0524
     19  C15       14.6680   13.1850   33.0290 C.ar  566  CB3566      0.0150
     20  C16       13.6230   13.0940   34.0020 C.ar  566  CB3566      0.0058
     21  C         12.8650   13.1430   36.3520 C.2   566  CB3566      0.2652
     22  O         11.7010   12.8770   36.0400 O.2   566  CB3566     -0.2684
     23  N         13.1760   13.3240   37.6340 N.am  566  CB3566     -0.1918
     24  CA        12.7090   12.3360   38.6180 C.3   566  CB3566      0.1986
     25  CB        13.3010   10.9960   38.1660 C.3   566  CB3566      0.0451
     26  CG        12.6790    9.7700   38.8120 C.3   566  CB3566      0.1164
     27  CD        13.3740    8.4880   38.3970 C.2   566  CB3566      0.3649
     28  OE1       14.5090    8.2470   38.8660 O.co2 566  CB3566     -0.2457
     29  OE2       12.7930    7.7300   37.5890 O.co2 566  CB3566     -0.2457
     30  CT        13.2740   12.7250   39.9830 C.2   566  CB3566      0.3842
     31  O1        12.4820   13.1430   40.8510 O.co2 566  CB3566     -0.2437
     32  O2        14.5040   12.6090   40.1670 O.co2 566  CB3566     -0.2437
     33  CP1       18.4460   13.6520   32.5990 C.3   566  CB3566      0.1735
     34  CP2       19.0440   14.8040   33.2700 C.1   566  CB3566     -0.0554
     35  CP3       19.4410   15.7830   33.8430 C.1   566  CB3566     -0.0124
@<TRIPOS>BOND
     1    11    10   ar
     2    11    12   ar
     3    10     9   ar
     4     1    12    2
     5     1     2    2
     6    12     7   ar
     7     9    13    2
     8     9     8   ar
     9    13    14    1
    10     3     2    1
    11     2     4    2
    12     7     8   ar
    13     7     5    1
    14    14    33    1
    15    14    18    1
    16    33    34    1
    17    19    18   ar
    18    19    20   ar
    19     4     5    2
    20     5     6    2
    21    34    35    3
    22    18    17   ar
    23    20    15   ar
    24    17    16   ar
    25    15    16   ar
    26    15    21    1
    27    22    21    2
    28    21    23   am
    29    29    27   ar
    30    23    24    1
    31    25    24    1
    32    25    26    1
    33    27    26    1
    34    27    28   ar
    35    24    30    1
    36    30    32   ar
    37    30    31   ar
