@<TRIPOS>MOLECULE
1nco_CHR_B_1.pdb
 48 54 0 0 0
SMALL
GASTEIGER

@<TRIPOS>ATOM
      1  C1        60.2080   -5.8470   11.4250 C.3   114  CHR114      0.0890
      2  C2        61.4380   -5.7460   11.9130 C.1   114  CHR114     -0.0852
      3  C3        62.6590   -5.9450   12.0660 C.1   114  CHR114     -0.0580
      4  C4        64.0810   -6.4630   11.8990 C.3   114  CHR114      0.2229
      5  O2        64.8250   -6.2730   10.6560 O.3   114  CHR114     -0.3255
      6  C5        64.2070   -7.5450   10.7990 C.3   114  CHR114      0.2195
      7  C6        62.9810   -7.9370   10.1220 C.1   114  CHR114     -0.0539
      8  C7        61.8080   -8.0200    9.8040 C.1   114  CHR114     -0.0619
      9  C8        60.5130   -7.8040    9.7720 C.2   114  CHR114      0.0442
     10  C9        59.8070   -6.8790   10.4370 C.2   114  CHR114      0.0061
     11  C10       58.2720   -6.7660   10.3770 C.3   114  CHR114      0.1775
     12  O1        57.7060   -7.8560   11.1590 O.3   114  CHR114     -0.3239
     13  C11       57.9530   -5.3910   10.9860 C.3   114  CHR114      0.2013
     14  O6        57.8000   -4.3990    9.9160 O.3   114  CHR114     -0.4462
     15  C12       59.1800   -5.1040   11.8570 C.3   114  CHR114      0.0637
     16  C13       56.3040   -8.0160   10.9780 C.3   114  CHR114      0.2547
     17  O3        56.0310   -8.4990    9.6510 O.3   114  CHR114     -0.3292
     18  C14       55.7300   -8.9930   11.9940 C.3   114  CHR114      0.1620
     19  N1        56.1030   -8.7300   13.3490 N.3   114  CHR114     -0.2103
     20  C19       55.7530   -7.4680   14.0370 C.3   114  CHR114      0.1077
     21  C15       56.2690  -10.3340   11.7680 C.3   114  CHR114      0.2053
     22  O4        55.6060  -11.1190   12.7270 O.3   114  CHR114     -0.2186
     23  C16       55.9340  -10.8110   10.3640 C.3   114  CHR114      0.2106
     24  O5        54.5170  -10.8900   10.2990 O.3   114  CHR114     -0.2177
     25  C17       56.5450   -9.8010    9.3760 C.3   114  CHR114      0.1507
     26  C18       56.1040  -10.1360    7.9560 C.3   114  CHR114      0.0350
     27  C20       56.5680   -4.4090    9.1190 C.2   114  CHR114      0.3443
     28  O7        55.6020   -4.9730    9.6350 O.2   114  CHR114     -0.2448
     29  C21       56.4280   -3.7790    7.8260 C.ar  114  CHR114      0.1145
     30  C22       55.4510   -4.2630    6.9120 C.ar  114  CHR114      0.2019
     31  O9        54.3640   -5.0500    7.3280 O.3   114  CHR114     -0.2863
     32  C23       55.5570   -4.0070    5.5330 C.ar  114  CHR114      0.0422
     33  C24       56.5980   -3.2480    5.0350 C.ar  114  CHR114      0.0030
     34  C25       57.5320   -2.7120    5.9150 C.ar  114  CHR114     -0.0034
     35  C26       57.4540   -2.9610    7.3010 C.ar  114  CHR114      0.0121
     36  C27       58.4070   -2.3800    8.1420 C.ar  114  CHR114      0.0372
     37  C28       59.4260   -1.6010    7.6640 C.ar  114  CHR114      0.1384
     38  O8        60.3770   -1.0200    8.4880 O.3   114  CHR114     -0.4714
     39  C31       60.7000   -1.4580    9.8230 C.3   114  CHR114      0.2525
     40  C29       59.4980   -1.3920    6.3080 C.ar  114  CHR114      0.0326
     41  C30       58.5630   -1.9370    5.4400 C.ar  114  CHR114     -0.0188
     42  C32       58.7440   -1.6570    3.9810 C.3   114  CHR114      0.0311
     43  C33       64.8160   -6.6210   13.2410 C.3   114  CHR114      0.2551
     44  O10       66.1270   -7.0740   12.9900 O.3   114  CHR114     -0.4142
     45  C34       66.3120   -8.2220   13.5980 C.2   114  CHR114      0.5120
     46  O11       67.3720   -8.8250   13.6360 O.2   114  CHR114     -0.2028
     47  O12       65.2520   -8.5840   14.2860 O.3   114  CHR114     -0.4140
     48  C35       64.2590   -7.6040   14.2220 C.3   114  CHR114      0.2591
@<TRIPOS>BOND
     1    42    41    1
     2    33    32   ar
     3    33    34   ar
     4    41    34   ar
     5    41    40   ar
     6    32    30   ar
     7    34    35   ar
     8    40    37   ar
     9    30    31    1
    10    30    29   ar
    11    35    29   ar
    12    35    36   ar
    13    37    36   ar
    14    37    38    1
    15    29    27    1
    16    26    25    1
    17    38    39    1
    18    27    28    2
    19    27    14    1
    20    25    17    1
    21    25    23    1
    22    17    16    1
    23     9     8    1
    24     9    10    2
    25     8     7    3
    26    14    13    1
    27     7     6    1
    28    24    23    1
    29    23    21    1
    30    11    10    1
    31    11    13    1
    32    11    12    1
    33    10     1    1
    34     5     6    1
    35     5     4    1
    36     6     4    1
    37    16    12    1
    38    16    18    1
    39    13    15    1
    40     1    15    1
    41     1     2    1
    42    21    18    1
    43    21    22    1
    44     4     3    1
    45     4    43    1
    46     2     3    3
    47    18    19    1
    48    44    43    1
    49    44    45    1
    50    43    48    1
    51    19    20    1
    52    45    46    2
    53    45    47    1
    54    48    47    1
