@<TRIPOS>MOLECULE
1ncq_W11_A_1.pdb
 27 29 0 0 0
SMALL
GASTEIGER

@<TRIPOS>ATOM
      1  O1        31.8520    8.1720  125.5070 O.2   7001  W117001    -0.3581
      2  N2        31.0540    9.3540  126.0070 N.ar  7001  W117001    -0.0817
      3  C3        30.5070    9.9220  124.9160 C.ar  7001  W117001     0.1007
      4  CM3       29.6440   11.1350  125.1350 C.3   7001  W117001     0.0557
      5  C4        30.8740    9.2250  123.7420 C.ar  7001  W117001     0.0536
      6  C5        31.6880    8.1650  124.0940 C.ar  7001  W117001     0.1542
      7  C1C       32.3750    7.0780  123.3230 C.3   7001  W117001     0.0712
      8  C2C       33.2200    6.2880  124.2830 C.3   7001  W117001     0.0554
      9  C3C       33.8290    5.2340  123.4840 C.3   7001  W117001     0.2058
     10  O1B       34.0360    4.2090  124.4280 O.3   7001  W117001    -0.4761
     11  C1B       35.0590    3.3130  124.0420 C.ar  7001  W117001     0.1305
     12  C2B       36.4790    3.6900  124.3490 C.ar  7001  W117001     0.0125
     13  CM2       36.7750    5.0020  125.0570 C.3   7001  W117001     0.0342
     14  C3B       37.5930    2.8730  124.0220 C.ar  7001  W117001     0.0098
     15  C4B       37.3090    1.6230  123.3570 C.ar  7001  W117001     0.0766
     16  C5B       35.9700    1.1490  122.9930 C.ar  7001  W117001     0.0098
     17  C6B       34.8240    2.0010  123.3340 C.ar  7001  W117001     0.0125
     18  CM6       33.4520    1.4170  122.9140 C.3   7001  W117001     0.0342
     19  C2A       38.3960    0.7360  123.0710 C.1   7001  W117001     0.1271
     20  N1A       38.4090   -0.3530  122.1600 N.2   7001  W117001    -0.0069
     21  N3A       39.5770    0.8960  123.7850 N.2   7001  W117001    -0.3053
     22  C3A       40.3700   -0.1540  123.2880 C.2   7001  W117001     0.3890
     23  CM4       41.7110   -0.3740  123.7690 C.3   7001  W117001     0.4849
     24  O1A       39.8500   -1.0050  122.3140 O.2   7001  W117001    -0.3066
     25  F1        41.7240    0.6950  124.6350 F     7001  W117001    -0.1610
     26  F2        42.7270   -0.2590  122.9100 F     7001  W117001    -0.1610
     27  F3        41.7390   -1.5390  124.4350 F     7001  W117001    -0.1610
@<TRIPOS>BOND
     1    20    24    1
     2    20    19    2
     3    24    22    1
     4    26    23    1
     5    18    17    1
     6    16    17   ar
     7    16    15   ar
     8    19    15    1
     9    19    21    2
    10    22    23    1
    11    22    21    2
    12     7     6    1
    13     7     8    1
    14    17    11   ar
    15    15    14   ar
    16     9     8    1
    17     9    10    1
    18     5     6   ar
    19     5     3   ar
    20    23    27    1
    21    23    25    1
    22    14    12   ar
    23    11    12   ar
    24    11    10    1
    25     6     1   ar
    26    12    13    1
    27     3     4    1
    28     3     2   ar
    29     1     2   ar
