@<TRIPOS>MOLECULE
1ncr_W11_A_1.pdb
 27 29 0 0 0
SMALL
GASTEIGER

@<TRIPOS>ATOM
      1  O1        38.8780    3.9070  124.4670 O.2   7001  W117001    -0.3581
      2  N2        37.7030    4.7660  124.8340 N.ar  7001  W117001    -0.0817
      3  C3        37.0570    5.0120  123.7040 C.ar  7001  W117001     0.1007
      4  CM3       35.8270    5.8610  123.8150 C.3   7001  W117001     0.0557
      5  C4        37.6990    4.3930  122.6090 C.ar  7001  W117001     0.0536
      6  C5        38.8090    3.7190  123.0770 C.ar  7001  W117001     0.1542
      7  C1C       39.8880    2.8820  122.4480 C.3   7001  W117001     0.0712
      8  C2C       41.2060    3.3830  122.9880 C.3   7001  W117001     0.0554
      9  C3C       42.3260    2.6220  122.3830 C.3   7001  W117001     0.2058
     10  O1B       42.6800    1.7530  123.4450 O.3   7001  W117001    -0.4761
     11  C1B       43.4360    0.5850  123.0790 C.ar  7001  W117001     0.1305
     12  C2B       44.8780    0.7040  123.0500 C.ar  7001  W117001     0.0125
     13  CM2       45.4600    2.0060  123.4210 C.3   7001  W117001     0.0342
     14  C3B       45.7720   -0.3120  122.6890 C.ar  7001  W117001     0.0098
     15  C4B       45.1940   -1.5640  122.3270 C.ar  7001  W117001     0.0766
     16  C5B       43.7550   -1.8360  122.3270 C.ar  7001  W117001     0.0098
     17  C6B       42.8680   -0.7450  122.7120 C.ar  7001  W117001     0.0125
     18  CM6       41.3700   -1.1100  122.6810 C.3   7001  W117001     0.0342
     19  C2A       46.1170   -2.6200  121.9070 C.1   7001  W117001     0.1271
     20  N1A       45.7980   -3.6500  120.9940 N.2   7001  W117001    -0.0069
     21  N3A       47.4510   -2.6830  122.3830 N.2   7001  W117001    -0.3053
     22  C3A       47.9540   -3.8240  121.7090 C.2   7001  W117001     0.3890
     23  CM4       49.3540   -4.3070  121.8850 C.3   7001  W117001     0.4849
     24  O1A       47.0960   -4.5110  120.8470 O.2   7001  W117001    -0.3066
     25  F1        49.7380   -3.3050  122.7930 F     7001  W117001    -0.1610
     26  F2        50.2360   -4.3170  120.8760 F     7001  W117001    -0.1610
     27  F3        49.2810   -5.5180  122.4630 F     7001  W117001    -0.1610
@<TRIPOS>BOND
     1    24    20    1
     2    24    22    1
     3    26    23    1
     4    20    19    2
     5    22    23    1
     6    22    21    2
     7    23    27    1
     8    23    25    1
     9    19    15    1
    10    19    21    2
    11    16    15   ar
    12    16    17   ar
    13    15    14   ar
    14     9     8    1
    15     9    10    1
    16     7     8    1
    17     7     6    1
    18     5     6   ar
    19     5     3   ar
    20    18    17    1
    21    14    12   ar
    22    17    11   ar
    23    12    11   ar
    24    12    13    1
    25     6     1   ar
    26    11    10    1
    27     3     4    1
    28     3     2   ar
    29     1     2   ar
