@<TRIPOS>MOLECULE
1nd0_DP4_A_1.pdb
 17 18 0 0 0
SMALL
GASTEIGER

@<TRIPOS>ATOM
      1  C1        11.8840   61.5920   91.5340 C.ar  401  DP4401      0.0000
      2  C2        12.5470   61.1690   92.7410 C.ar  401  DP4401      0.0000
      3  C3        12.5860   59.7760   93.0850 C.ar  401  DP4401      0.0000
      4  C4        11.9620   58.7880   92.2270 C.ar  401  DP4401      0.0000
      5  C5        11.3000   59.2290   91.0200 C.ar  401  DP4401      0.0000
      6  C6        11.2650   60.6280   90.6760 C.ar  401  DP4401      0.0000
      7  C7        13.7460   56.5020   92.6340 C.3   401  DP4401      0.0000
      8  C8        11.1630   56.0000   91.4850 C.3   401  DP4401      0.0000
      9 SI         12.0240   57.0410   92.6890 Si    401  DP4401      0.0000
     10  C9        11.3230   56.7640   94.3470 C.3   401  DP4401      0.0000
     11  C10       11.4990   55.2870   94.8550 C.3   401  DP4401      0.0000
     12  C11       10.8870   55.0460   96.2930 C.3   401  DP4401      0.0000
     13  C12        9.1780   56.9010   95.8470 C.3   401  DP4401      0.0000
     14  C13        9.7920   57.1460   94.4060 C.3   401  DP4401      0.0000
     15  N1         9.3940   55.4440   96.3830 N.4   401  DP4401      0.0000
     16  O1         8.7360   54.5800   95.5570 O.3   401  DP4401      0.0000
     17  C14        8.7930   55.1920   97.8280 C.3   401  DP4401      0.0000
@<TRIPOS>BOND
     1     6     5   ar
     2     6     1   ar
     3     5     4   ar
     4     8     9    1
     5     1     2   ar
     6     4     9    1
     7     4     3   ar
     8     7     9    1
     9     9    10    1
    10     2     3   ar
    11    10    14    1
    12    10    11    1
    13    14    13    1
    14    11    12    1
    15    16    15    1
    16    13    15    1
    17    12    15    1
    18    15    17    1
