@<TRIPOS>MOLECULE
1nd3_W11_A_1.pdb
 27 29 0 0 0
SMALL
GASTEIGER

@<TRIPOS>ATOM
      1  O1        38.6650    3.9040  124.5510 O.2   7001  W117001    -0.3581
      2  N2        37.4890    4.7620  124.9180 N.ar  7001  W117001    -0.0817
      3  C3        36.8450    5.0100  123.7870 C.ar  7001  W117001     0.1007
      4  CM3       35.6150    5.8590  123.8980 C.3   7001  W117001     0.0557
      5  C4        37.4880    4.3920  122.6920 C.ar  7001  W117001     0.0536
      6  C5        38.5970    3.7170  123.1610 C.ar  7001  W117001     0.1542
      7  C1C       39.6770    2.8810  122.5320 C.3   7001  W117001     0.0712
      8  C2C       40.9950    3.3810  123.0740 C.3   7001  W117001     0.0554
      9  C3C       42.1150    2.6210  122.4700 C.3   7001  W117001     0.2058
     10  O1B       42.4680    1.7510  123.5310 O.3   7001  W117001    -0.4761
     11  C1B       43.2240    0.5830  123.1640 C.ar  7001  W117001     0.1305
     12  C2B       44.6660    0.7020  123.1370 C.ar  7001  W117001     0.0125
     13  CM2       45.2480    2.0030  123.5110 C.3   7001  W117001     0.0342
     14  C3B       45.5600   -0.3140  122.7760 C.ar  7001  W117001     0.0098
     15  C4B       44.9830   -1.5650  122.4120 C.ar  7001  W117001     0.0766
     16  C5B       43.5440   -1.8370  122.4100 C.ar  7001  W117001     0.0098
     17  C6B       42.6560   -0.7460  122.7950 C.ar  7001  W117001     0.0125
     18  CM6       41.1580   -1.1110  122.7620 C.3   7001  W117001     0.0342
     19  C2A       45.9060   -2.6210  121.9920 C.1   7001  W117001     0.1271
     20  N1A       45.5880   -3.6500  121.0770 N.2   7001  W117001    -0.0069
     21  N3A       47.2400   -2.6850  122.4690 N.2   7001  W117001    -0.3053
     22  C3A       47.7430   -3.8250  121.7940 C.2   7001  W117001     0.3890
     23  CM4       49.1430   -4.3080  121.9710 C.3   7001  W117001     0.4849
     24  O1A       46.8860   -4.5110  120.9310 O.2   7001  W117001    -0.3066
     25  F1        49.5260   -3.3070  122.8810 F     7001  W117001    -0.1610
     26  F2        50.0260   -4.2860  120.9630 F     7001  W117001    -0.1610
     27  F3        49.0690   -5.5200  122.5480 F     7001  W117001    -0.1610
@<TRIPOS>BOND
     1    24    20    1
     2    24    22    1
     3    26    23    1
     4    20    19    2
     5    22    23    1
     6    22    21    2
     7    23    27    1
     8    23    25    1
     9    19    15    1
    10    19    21    2
    11    16    15   ar
    12    16    17   ar
    13    15    14   ar
    14     9     8    1
    15     9    10    1
    16     7     8    1
    17     7     6    1
    18     5     6   ar
    19     5     3   ar
    20    18    17    1
    21    14    12   ar
    22    17    11   ar
    23    12    11   ar
    24    12    13    1
    25     6     1   ar
    26    11    10    1
    27     3     4    1
    28     3     2   ar
    29     1     2   ar
