@<TRIPOS>MOLECULE
1ndc_TYD_A_1.pdb
 25 26 0 0 0
SMALL
GASTEIGER

@<TRIPOS>ATOM
      1  PA        16.6340  -11.4070  -21.7930 P.3   160  TYD160      0.2231
      2  O1A       16.2190  -12.8670  -21.8000 O.3   160  TYD160     -0.4370
      3  O2A       16.5240  -10.6100  -22.9980 O.2   160  TYD160     -0.5169
      4  O3A       15.7730  -10.6410  -20.6700 O.3   160  TYD160     -0.2261
      5  PB        14.6810  -11.0940  -19.5660 P.3   160  TYD160      0.5373
      6  O1B       15.4430  -11.0440  -18.3070 O.3   160  TYD160     -0.1143
      7  O2B       14.2870  -12.5140  -19.9070 O.2   160  TYD160     -0.2221
      8  O3B       13.6200  -10.0960  -19.6910 O.3   160  TYD160     -0.1143
      9  O5'       18.1380  -11.2840  -21.2520 O.3   160  TYD160     -0.3111
     10  C5'       18.4570  -11.9070  -19.9960 C.3   160  TYD160      0.1812
     11  C4'       19.2070  -10.9600  -19.1070 C.3   160  TYD160      0.1773
     12  O4'       20.3500  -10.5410  -19.8110 O.3   160  TYD160     -0.3339
     13  C3'       18.4900   -9.6550  -18.7810 C.3   160  TYD160      0.1857
     14  O3'       17.6560  -10.0540  -17.6990 O.3   160  TYD160     -0.2203
     15  C2'       19.6480   -8.7650  -18.4080 C.3   160  TYD160      0.0874
     16  C1'       20.7410   -9.2030  -19.4150 C.3   160  TYD160      0.2090
     17  N1        20.7950   -8.3420  -20.6230 N.am  160  TYD160     -0.1794
     18  C2        21.6030   -7.2080  -20.6130 C.1   160  TYD160      0.2844
     19  O2        22.3240   -6.9490  -19.6530 O.2   160  TYD160     -0.1918
     20  N3        21.5730   -6.3900  -21.7560 N.2   160  TYD160     -0.2455
     21  C4        20.8100   -6.6450  -22.8910 C.1   160  TYD160      0.2134
     22  O4        20.8790   -5.8810  -23.8470 O.2   160  TYD160     -0.2088
     23  C5        19.9850   -7.8330  -22.8030 C.2   160  TYD160      0.0891
     24  C5M       19.1460   -8.2800  -23.9930 C.3   160  TYD160      0.0462
     25  C6        19.9610   -8.5900  -21.6940 C.2   160  TYD160      0.0877
@<TRIPOS>BOND
     1    24    23    1
     2    22    21    2
     3     3     1    2
     4    21    23    1
     5    21    20    2
     6    23    25    2
     7     2     1    1
     8     1     9    1
     9     1     4    1
    10    20    18    2
    11    25    17    1
    12     9    10    1
    13     4     5    1
    14    17    18   am
    15    17    16    1
    16    18    19    2
    17    10    11    1
    18     7     5    2
    19    12    16    1
    20    12    11    1
    21     8     5    1
    22     5     6    1
    23    16    15    1
    24    11    13    1
    25    13    15    1
    26    13    14    1
