@<TRIPOS>MOLECULE
1nde_MON_A_1.pdb
 33 37 0 0 0
SMALL
GASTEIGER

@<TRIPOS>ATOM
      1  C1       110.7370    5.5320 -105.3590 C.1   101  MON101      0.2243
      2  N2       110.9210    4.5570 -104.4530 N.pl3 101  MON101     -0.2301
      3  N3       109.6060    6.2620 -105.4990 N.2   101  MON101     -0.2451
      4  N4       111.6410    5.9560 -106.2990 N.2   101  MON101     -0.2547
      5  C5       112.1510    3.7920 -104.3130 C.3   101  MON101      0.1220
      6  C6       109.9180    4.1440 -103.4700 C.3   101  MON101      0.1220
      7  C7       109.3710    7.2530 -106.3860 C.1   101  MON101      0.2413
      8  C8       111.4330    6.9410 -107.2020 C.1   101  MON101      0.1823
      9  C9       112.1770    2.3680 -103.6560 C.3   101  MON101      0.1110
     10  C10      109.8560    2.6970 -102.9320 C.3   101  MON101      0.1110
     11  N11      110.3030    7.5170 -107.1710 N.2   101  MON101     -0.2535
     12  N12      108.3340    8.0500 -106.6270 N.pl3 101  MON101     -0.1502
     13  S13      112.2390    7.7050 -108.4440 S.3   101  MON101     -0.0697
     14  N14      111.1930    2.2550 -102.5700 N.3   101  MON101     -0.2144
     15  C15      107.0840    8.1290 -106.0060 C.3   101  MON101      0.1309
     16  C16      113.6520    7.9070 -109.4800 C.3   101  MON101      0.0751
     17  C17      106.3950    9.3140 -106.7320 C.3   101  MON101      0.0506
     18  C18      112.5460    8.6530 -110.2420 C.3   101  MON101      0.0690
     19  C19      105.0900    9.5030 -106.1080 C.ar  101  MON101     -0.0202
     20  C20      112.5190    9.4020 -111.5480 C.3   101  MON101      0.0383
     21  C21      103.9240    9.4400 -106.8730 C.ar  101  MON101     -0.0009
     22  C22      105.0330    9.7310 -104.7160 C.ar  101  MON101     -0.0009
     23  C23      110.9910    9.8030 -111.5100 C.ar  101  MON101     -0.0212
     24  C24      102.6810    9.6030 -106.2350 C.ar  101  MON101      0.0417
     25  C25      103.8050    9.8910 -104.0920 C.ar  101  MON101      0.0417
     26  C26      110.5360   11.1320 -111.7190 C.ar  101  MON101     -0.0034
     27  C27      109.9960    8.7960 -111.2300 C.ar  101  MON101     -0.0034
     28  C28      102.6240    9.8210 -104.8370 C.ar  101  MON101      0.1957
     29  C29      109.1400   11.4420 -111.6570 C.ar  101  MON101      0.0111
     30  C30      108.6200    9.1160 -111.1700 C.ar  101  MON101      0.0111
     31  O31      101.4320    9.9610 -104.2060 O.3   101  MON101     -0.2866
     32  C32      108.1900   10.4320 -111.3820 C.ar  101  MON101      0.0577
     33 CL33      106.5190   10.8070 -111.3060 Cl    101  MON101     -0.0822
@<TRIPOS>BOND
     1    26    29   ar
     2    26    23   ar
     3    29    32   ar
     4    20    23    1
     5    20    18    1
     6    23    27   ar
     7    32    33    1
     8    32    30   ar
     9    27    30   ar
    10    18    16    1
    11    18    13    1
    12    16    13    1
    13    13     8    1
    14     8    11    2
    15     8     4    2
    16    11     7    2
    17    21    24   ar
    18    21    19   ar
    19    17    19    1
    20    17    15    1
    21    12     7    1
    22    12    15    1
    23     7     3    2
    24     4     1    2
    25    24    28   ar
    26    19    22   ar
    27     3     1    2
    28     1     2    1
    29    28    31    1
    30    28    25   ar
    31    22    25   ar
    32     2     5    1
    33     2     6    1
    34     5     9    1
    35     9    14    1
    36     6    10    1
    37    10    14    1
