@<TRIPOS>MOLECULE
1ndf_152_A_1.pdb
 11 10 0 0 0
SMALL
GASTEIGER

@<TRIPOS>ATOM
      1  C1        25.3080   32.3040   91.7100 C.2   5001  1525001     0.3674
      2  O1A       25.2110   32.4520   92.9490 O.co2 5001  1525001    -0.2456
      3  O1B       24.5820   31.5210   91.0650 O.co2 5001  1525001    -0.2456
      4  C2        26.4060   33.0540   90.9700 C.3   5001  1525001     0.1446
      5  C3        26.9760   32.2610   89.7780 C.3   5001  1525001     0.1433
      6  O3        27.7940   33.1440   88.9970 O.3   5001  1525001    -0.2248
      7  C4        27.8460   31.1040   90.3140 C.3   5001  1525001    -0.0392
      8  N5        28.2260   30.1870   89.2230 N.4   5001  1525001     0.3874
      9  C5A       27.0310   29.7240   88.5120 C.3   5001  1525001    -0.0959
     10  C5B       29.1160   30.8680   88.2850 C.3   5001  1525001    -0.0959
     11  C5C       28.9250   29.0360   89.7870 C.3   5001  1525001    -0.0959
@<TRIPOS>BOND
     1    10     8    1
     2     9     8    1
     3     6     5    1
     4     8    11    1
     5     8     7    1
     6     5     7    1
     7     5     4    1
     8     4     1    1
     9     3     1   ar
    10     1     2   ar
