@<TRIPOS>MOLECULE
1ndj_BTN_A_1.pdb
 16 17 0 0 0
SMALL
GASTEIGER

@<TRIPOS>ATOM
      1  C11        4.8740  -16.4020   23.9080 C.2   5100  BTN5100     0.3649
      2  O11        4.5210  -15.1980   23.8090 O.co2 5100  BTN5100    -0.2457
      3  O12        4.3800  -17.3080   23.1850 O.co2 5100  BTN5100    -0.2457
      4  C10        5.8760  -16.6900   24.9620 C.3   5100  BTN5100     0.1141
      5  C9         6.7710  -15.4720   25.2500 C.3   5100  BTN5100     0.0118
      6  C8         7.6500  -15.1560   24.0450 C.3   5100  BTN5100     0.0015
      7  C7         8.7530  -14.1100   24.3050 C.3   5100  BTN5100     0.0129
      8  C2         9.3260  -13.3910   23.1020 C.3   5100  BTN5100     0.0729
      9  S1        10.5710  -14.3270   22.1360 S.3   5100  BTN5100    -0.1369
     10  C6        10.9080  -12.8280   21.1610 C.3   5100  BTN5100     0.0848
     11  C5        10.9240  -11.6750   22.1420 C.3   5100  BTN5100     0.1509
     12  N1        12.2060  -11.4600   22.7970 N.2   5100  BTN5100    -0.1859
     13  C3        12.1270  -11.6340   24.1220 C.1   5100  BTN5100     0.2386
     14  O3        13.0460  -11.4910   24.9600 O.2   5100  BTN5100    -0.2023
     15  N2        10.8620  -11.9760   24.4610 N.2   5100  BTN5100    -0.1860
     16  C4         9.9770  -12.0340   23.3110 C.3   5100  BTN5100     0.1500
@<TRIPOS>BOND
     1    10     9    1
     2    10    11    1
     3     9     8    1
     4    11    12    1
     5    11    16    1
     6    12    13    2
     7     8    16    1
     8     8     7    1
     9     3     1   ar
    10    16    15    1
    11     2     1   ar
    12     1     4    1
    13     6     7    1
    14     6     5    1
    15    13    15    2
    16    13    14    2
    17     4     5    1
