@<TRIPOS>MOLECULE
1ndp_ADP_A_1.pdb
 27 29 0 0 0
SMALL
GASTEIGER

@<TRIPOS>ATOM
      1  PB       -13.7180  -11.7220  -20.1520 P.3   160  ADP160      0.5373
      2  O1B      -14.7100  -10.8530  -20.8210 O.2   160  ADP160     -0.2221
      3  O2B      -12.3610  -11.1180  -20.1950 O.3   160  ADP160     -0.1143
      4  O3B      -14.0430  -12.1180  -18.7910 O.3   160  ADP160     -0.1143
      5  PA       -14.7960  -13.8220  -21.9660 P.3   160  ADP160      0.2231
      6  O1A      -15.7130  -12.8920  -22.6670 O.3   160  ADP160     -0.4370
      7  O2A      -14.1020  -14.7200  -22.8730 O.2   160  ADP160     -0.5169
      8  O3A      -13.6950  -13.0420  -21.0460 O.3   160  ADP160     -0.2261
      9  O5'      -15.5660  -14.4460  -20.7310 O.3   160  ADP160     -0.3111
     10  C5'      -15.3730  -15.7450  -20.2560 C.3   160  ADP160      0.1813
     11  C4'      -14.6620  -16.0240  -18.9820 C.3   160  ADP160      0.1821
     12  O4'      -14.6300  -17.4770  -19.0440 O.3   160  ADP160     -0.3135
     13  C3'      -13.1920  -15.6260  -18.7920 C.3   160  ADP160      0.2184
     14  O3'      -13.0250  -14.4530  -18.0320 O.3   160  ADP160     -0.2174
     15  C2'      -12.5990  -16.8350  -18.0610 C.3   160  ADP160      0.2570
     16  O2'      -12.9170  -17.0290  -16.6870 O.3   160  ADP160     -0.2130
     17  C1'      -13.3050  -17.9320  -18.8750 C.3   160  ADP160      0.3186
     18  N9       -12.7500  -18.1990  -20.2010 N.pl3 160  ADP160     -0.1439
     19  C8       -12.8470  -17.6060  -21.4070 C.3   160  ADP160      0.3377
     20  N7       -12.1540  -18.1970  -22.3570 N.2   160  ADP160     -0.2095
     21  C5       -11.5890  -19.2510  -21.6960 C.2   160  ADP160      0.2526
     22  C6       -10.7350  -20.2700  -22.1680 C.2   160  ADP160      0.4393
     23  N6       -10.3780  -20.2750  -23.4690 N.pl3 160  ADP160      0.2180
     24  N1       -10.3390  -21.1900  -21.2520 N.2   160  ADP160      0.0021
     25  C2       -10.7670  -21.1000  -19.9570 C.3   160  ADP160      0.5254
     26  N3       -11.5540  -20.2050  -19.4330 N.2   160  ADP160     -0.0055
     27  C4       -11.9260  -19.2950  -20.3750 C.2   160  ADP160      0.3518
@<TRIPOS>BOND
     1    23    22    1
     2     7     5    2
     3     6     5    1
     4    20    21    2
     5    20    19    1
     6    22    21    1
     7    22    24    2
     8     5     8    1
     9     5     9    1
    10    21    27    1
    11    19    18    1
    12    24    25    1
    13     8     1    1
    14     2     1    2
    15     9    10    1
    16    27    18    1
    17    27    26    2
    18    10    11    1
    19    18    17    1
    20     3     1    1
    21     1     4    1
    22    25    26    1
    23    12    11    1
    24    12    17    1
    25    11    13    1
    26    17    15    1
    27    13    15    1
    28    13    14    1
    29    15    16    1
