@<TRIPOS>MOLECULE
1ndv_FR0_A_1.pdb
 25 28 0 0 0
SMALL
GASTEIGER

@<TRIPOS>ATOM
      1  N1        45.8910   47.9120   17.0220 N.2   1001  FR01001    -0.3244
      2  C2        45.3540   47.5620   18.2420 C.ar  1001  FR01001     0.1754
      3  C3        46.2410   48.0930   19.2240 C.ar  1001  FR01001     0.1754
      4  N4        47.2490   48.7360   18.5330 N.2   1001  FR01001    -0.3244
      5  C5        47.0230   48.5890   17.2490 C.1   1001  FR01001     0.2206
      6  C6        44.2280   46.8170   18.6340 C.ar  1001  FR01001     0.0357
      7  C7        44.0150   46.6370   20.0250 C.ar  1001  FR01001     0.0028
      8  C8        44.9070   47.1630   21.0030 C.ar  1001  FR01001     0.0028
      9  C9        46.0220   47.8960   20.6040 C.ar  1001  FR01001     0.0357
     10  N10       48.0120   48.9800   16.2160 N.pl3 1001  FR01001    -0.1464
     11  C11       49.2730   49.6300   16.5560 C.3   1001  FR01001     0.1590
     12  C12       48.9460   50.9970   17.0030 C.ar  1001  FR01001     0.0299
     13  S15       49.6110   51.8090   18.3630 S.2   1001  FR01001    -0.0872
     14  C16       48.7250   53.3350   17.9660 C.ar  1001  FR01001     0.0556
     15  C17       47.8580   53.1270   16.8110 C.ar  1001  FR01001     0.0090
     16  C18       47.9940   51.7910   16.2720 C.ar  1001  FR01001     0.0045
     17  C19       48.6830   54.5530   18.5670 C.2   1001  FR01001     0.1301
     18  N20       49.7550   54.4920   19.6080 N.2   1001  FR01001    -0.3661
     19  C21       50.1180   55.5990   20.3060 C.2   1001  FR01001     0.3191
     20  S22       48.9360   56.8070   19.8700 S.3   1001  FR01001    -0.0367
     21  C23       48.1940   55.7730   18.7610 C.3   1001  FR01001     0.1270
     22  N26       50.9400   55.7150   21.3940 N.pl3 1001  FR01001    -0.0214
     23  C27       51.1020   54.7290   22.3200 C.cat 1001  FR01001     0.5421
     24  N28       51.1160   53.4800   21.9470 N.pl3 1001  FR01001     0.1359
     25  N29       51.2040   54.9610   23.6260 N.pl3 1001  FR01001     0.1359
@<TRIPOS>BOND
     1    10    11    1
     2    10     5    1
     3    16    15   ar
     4    16    12   ar
     5    11    12    1
     6    15    14   ar
     7    12    13   ar
     8     1     5    2
     9     1     2    2
    10     5     4    2
    11    14    13   ar
    12    14    17    1
    13     2     6   ar
    14     2     3   ar
    15     4     3    2
    16    17    21    1
    17    17    18    2
    18     6     7   ar
    19    21    20    1
    20     3     9   ar
    21    18    19    2
    22    20    19    1
    23     7     8   ar
    24    19    22    1
    25     9     8   ar
    26    22    23    2
    27    24    23    1
    28    23    25    1
