@<TRIPOS>MOLECULE
1ndw_FR2_A_1.pdb
 19 20 0 0 0
SMALL
GASTEIGER

@<TRIPOS>ATOM
      1  C1        50.4340   54.0830   20.9940 C.3   1001  FR21001     0.1246
      2  N2        50.6030   55.0790   22.0270 N.3   1001  FR21001    -0.2456
      3  C3        50.6220   54.4610   23.1890 C.3   1001  FR21001     0.2010
      4  N4        50.4690   53.1940   23.0560 N.2   1001  FR21001    -0.2506
      5  C5        50.3370   52.9290   21.6470 C.2   1001  FR21001     0.1279
      6  C8        50.2100   51.6160   21.0130 C.2   1001  FR21001     0.2988
      7  O9        50.0870   51.4860   19.7810 O.2   1001  FR21001    -0.2653
      8  N10       50.1230   50.5410   21.7810 N.am  1001  FR21001    -0.0826
      9  C13       50.5660   56.5430   21.8290 C.3   1001  FR21001     0.0929
     10  C14       51.9810   57.0740   21.4570 C.3   1001  FR21001     0.1979
     11  O15       52.7530   56.4190   22.5180 O.3   1001  FR21001    -0.2189
     12  C18       49.5410   57.0630   20.8240 C.3   1001  FR21001     0.0234
     13  C19       48.1120   56.5170   21.1270 C.3   1001  FR21001     0.0278
     14  C22       47.0200   57.1540   20.2770 C.ar  1001  FR21001    -0.0221
     15  C25       45.7190   56.7140   20.4330 C.ar  1001  FR21001    -0.0043
     16  C26       44.6770   57.2580   19.6930 C.ar  1001  FR21001    -0.0003
     17  C27       44.9510   58.2310   18.7200 C.ar  1001  FR21001    -0.0000
     18  C28       46.2640   58.6890   18.5160 C.ar  1001  FR21001    -0.0003
     19  C29       47.2690   58.1390   19.3390 C.ar  1001  FR21001    -0.0043
@<TRIPOS>BOND
     1    18    17   ar
     2    18    19   ar
     3    17    16   ar
     4    19    14   ar
     5    16    15   ar
     6     7     6    2
     7    14    15   ar
     8    14    13    1
     9    12    13    1
    10    12     9    1
    11     1     5    1
    12     1     2    1
    13     6     5    1
    14     6     8   am
    15    10     9    1
    16    10    11    1
    17     5     4    2
    18     9     2    1
    19     2     3    1
    20     4     3    1
