@<TRIPOS>MOLECULE
1ndy_FR3_A_1.pdb
 23 25 0 0 0
SMALL
GASTEIGER

@<TRIPOS>ATOM
      1  C1        50.9530   53.9590   20.7880 C.3   1001  FR31001     0.1246
      2  N2        51.0310   54.9480   21.7970 N.3   1001  FR31001    -0.2456
      3  C3        50.8750   54.2580   22.9380 C.3   1001  FR31001     0.2010
      4  N4        50.6810   52.9280   22.7430 N.2   1001  FR31001    -0.2506
      5  C5        50.7320   52.7880   21.3580 C.2   1001  FR31001     0.1279
      6  C8        50.5960   51.4430   20.7830 C.2   1001  FR31001     0.2988
      7  O9        50.3550   51.3630   19.6040 O.2   1001  FR31001    -0.2653
      8  N10       50.5600   50.3070   21.5210 N.am  1001  FR31001    -0.0826
      9  C13       50.9440   56.4700   21.6690 C.3   1001  FR31001     0.0929
     10  C14       52.4470   57.1350   21.6080 C.3   1001  FR31001     0.1979
     11  O15       53.3600   56.5060   22.6140 O.3   1001  FR31001    -0.2189
     12  C18       50.2560   56.8790   20.3720 C.3   1001  FR31001     0.0234
     13  C19       48.7150   56.5170   20.5210 C.3   1001  FR31001     0.0278
     14  C22       47.9560   56.7980   19.2230 C.ar  1001  FR31001    -0.0221
     15  C25       47.5760   58.0960   18.8840 C.ar  1001  FR31001    -0.0043
     16  C26       46.9220   58.3730   17.6490 C.ar  1001  FR31001    -0.0003
     17  C27       46.7240   57.3030   16.7260 C.ar  1001  FR31001    -0.0000
     18  C28       47.0980   55.9950   17.0760 C.ar  1001  FR31001    -0.0003
     19  C29       47.7980   55.7420   18.2740 C.ar  1001  FR31001    -0.0040
     20  C2        46.9520   54.9460   16.1170 C.ar  1001  FR31001    -0.0000
     21  C4        48.1790   54.4260   18.6170 C.ar  1001  FR31001    -0.0003
     22  C6        47.3560   53.6240   16.4480 C.ar  1001  FR31001    -0.0000
     23  C7        48.0110   53.3960   17.7090 C.ar  1001  FR31001    -0.0000
@<TRIPOS>BOND
     1    20    22   ar
     2    20    18   ar
     3    22    23   ar
     4    17    18   ar
     5    17    16   ar
     6    18    19   ar
     7    16    15   ar
     8    23    21   ar
     9    19    21   ar
    10    19    14   ar
    11    15    14   ar
    12    14    13    1
    13     7     6    2
    14    12    13    1
    15    12     9    1
    16     6     5    1
    17     6     8   am
    18     1     5    1
    19     1     2    1
    20     5     4    2
    21    10     9    1
    22    10    11    1
    23     9     2    1
    24     2     3    1
    25     4     3    1
