@<TRIPOS>MOLECULE
1ndz_FR5_A_1.pdb
 37 41 0 0 0
SMALL
GASTEIGER

@<TRIPOS>ATOM
      1  C1        51.2620   54.3940   21.0460 C.3   1001  FR51001     0.1246
      2  N2        51.2380   55.3230   22.0730 N.3   1001  FR51001    -0.2455
      3  C3        51.1550   54.5960   23.2290 C.3   1001  FR51001     0.2010
      4  N4        51.0260   53.3560   23.0160 N.2   1001  FR51001    -0.2506
      5  C5        51.0190   53.2330   21.6000 C.2   1001  FR51001     0.1279
      6  C8        50.8310   51.9830   20.8660 C.2   1001  FR51001     0.2988
      7  O9        50.5770   51.9510   19.6320 O.2   1001  FR51001    -0.2653
      8  N10       50.8470   50.9090   21.6410 N.am  1001  FR51001    -0.0826
      9  C13       51.1410   56.8020   21.8880 C.3   1001  FR51001     0.0945
     10  C14       52.5180   57.6040   21.7930 C.3   1001  FR51001     0.1980
     11  O15       53.6000   57.3210   22.6900 O.3   1001  FR51001    -0.2189
     12  C18       50.3710   57.1940   20.6290 C.3   1001  FR51001     0.0432
     13  C19       48.8920   56.6160   20.6120 C.3   1001  FR51001     0.1075
     14  N22       48.2320   56.7680   19.2010 N.ar  1001  FR51001    -0.3260
     15  C27       47.7640   57.9340   18.6950 C.ar  1001  FR51001     0.0759
     16  C28       47.2130   57.6920   17.5170 C.ar  1001  FR51001     0.0201
     17  C29       47.3370   56.2520   17.3280 C.ar  1001  FR51001     0.0174
     18  C30       48.0670   55.7380   18.3780 C.ar  1001  FR51001     0.0612
     19  C31       47.1210   55.4740   16.2610 C.ar  1001  FR51001     0.0028
     20  C32       47.4630   54.2100   16.3080 C.ar  1001  FR51001     0.0167
     21  C33       48.1200   53.7120   17.3910 C.ar  1001  FR51001     0.0748
     22  C34       48.3740   54.4780   18.4590 C.ar  1001  FR51001     0.0338
     23  N1        48.4400   52.4840   17.5570 N.am  1001  FR51001    -0.1792
     24  C2        48.2950   51.5180   16.7830 C.2   1001  FR51001     0.2460
     25  O1        47.6070   51.5150   15.7840 O.2   1001  FR51001    -0.2730
     26  C4        49.1440   50.2820   17.1240 C.3   1001  FR51001     0.0960
     27  C6        48.5860   48.9020   16.6980 C.3   1001  FR51001     0.0847
     28  C9        44.6010   47.6190   21.1320 C.2   1001  FR51001    -0.0187
     29  C15       45.8280   48.2110   20.7930 C.2   1001  FR51001     0.0291
     30  C10       46.2660   48.3270   19.4890 C.2   1001  FR51001     0.1456
     31  C16       45.6270   47.6310   18.4380 C.2   1001  FR51001     0.0792
     32  C11       44.4090   47.0580   18.7170 C.2   1001  FR51001    -0.0040
     33  C17       43.9350   46.9960   20.0780 C.3   1001  FR51001     0.0535
     34  N11       47.4050   48.8850   18.9480 N.2   1001  FR51001    -0.3899
     35  C12       47.4170   48.5800   17.6420 C.2   1001  FR51001     0.1643
     36  N13       46.3460   47.8930   17.2600 N.pl3 1001  FR51001    -0.2625
     37  C7        46.0040   47.4390   15.9250 C.3   1001  FR51001     0.1195
@<TRIPOS>BOND
     1    25    24    2
     2    37    36    1
     3    19    20   ar
     4    19    17   ar
     5    20    21   ar
     6    27    26    1
     7    27    35    1
     8    24    26    1
     9    24    23   am
    10    36    35    1
    11    36    31    1
    12    17    16   ar
    13    17    18   ar
    14    21    23    1
    15    21    22   ar
    16    16    15   ar
    17    35    34    2
    18    18    22   ar
    19    18    14   ar
    20    31    32    2
    21    31    30    1
    22    15    14   ar
    23    32    33    1
    24    34    30    2
    25    14    13    1
    26    30    29    1
    27     7     6    2
    28    33    28    1
    29    13    12    1
    30    12     9    1
    31    29    28    2
    32     6     5    1
    33     6     8   am
    34     1     5    1
    35     1     2    1
    36     5     4    2
    37    10     9    1
    38    10    11    1
    39     9     2    1
    40     2     3    1
    41     4     3    1
