@<TRIPOS>MOLECULE
1ne7_GLC_A_1.pdb
 11 11 0 0 0
SMALL
GASTEIGER

@<TRIPOS>ATOM
      1  C1       -10.6090   24.9170  -23.5990 C.3   295  GLC295      0.1782
      2  C2       -10.0780   23.5670  -23.1000 C.3   295  GLC295      0.2141
      3  C3        -9.0670   23.7720  -21.9290 C.3   295  GLC295      0.2176
      4  C4        -7.9000   24.7480  -22.3080 C.3   295  GLC295      0.2192
      5  C5        -8.4510   26.0520  -22.9950 C.3   295  GLC295      0.2122
      6  C6        -7.4070   26.8680  -23.7070 C.2   295  GLC295      0.2393
      7  O2       -11.0790   22.9050  -22.7870 O.3   295  GLC295     -0.2176
      8  O3        -8.5260   22.5450  -21.4890 O.3   295  GLC295     -0.2175
      9  O4        -7.1320   25.0950  -21.1690 O.3   295  GLC295     -0.2172
     10  O5        -9.4550   25.7250  -24.0080 O.3   295  GLC295     -0.3429
     11  O6        -7.6830   28.0150  -24.0800 O.2   295  GLC295     -0.2855
@<TRIPOS>BOND
     1    11     6    2
     2    10     1    1
     3    10     5    1
     4     6     5    1
     5     1     2    1
     6     2     7    1
     7     2     3    1
     8     5     4    1
     9     4     3    1
    10     4     9    1
    11     3     8    1
