@<TRIPOS>MOLECULE
1ne7_16G_A_1.pdb
 19 19 0 0 0
SMALL
GASTEIGER

@<TRIPOS>ATOM
      1  C1         1.0390   -7.2990  -38.1840 C.3   4299  16G4299     0.2917
      2  C2         1.1750   -5.8410  -38.6070 C.3   4299  16G4299     0.1871
      3  C3         1.9270   -5.0820  -37.4850 C.3   4299  16G4299     0.2095
      4  C4         1.1590   -5.1820  -36.1240 C.3   4299  16G4299     0.2135
      5  C5         0.8170   -6.6910  -35.7780 C.3   4299  16G4299     0.1807
      6  C6        -0.1980   -6.8630  -34.6690 C.3   4299  16G4299     0.1859
      7  C7         1.3070   -5.9550  -41.0410 C.2   4299  16G4299     0.2421
      8  C8         2.0860   -5.8960  -42.4030 C.3   4299  16G4299     0.0964
      9  N2         1.9360   -5.7760  -39.8580 N.am  4299  16G4299    -0.1991
     10  O1         2.1540   -8.3170  -38.0230 O.3   4299  16G4299    -0.1879
     11  O3         2.1780   -3.7370  -37.8040 O.3   4299  16G4299    -0.2183
     12  O4         1.8840   -4.5910  -35.0680 O.3   4299  16G4299    -0.2176
     13  O5         0.2420   -7.3340  -36.9540 O.3   4299  16G4299    -0.3243
     14  O6        -1.2720   -6.2540  -34.7930 O.3   4299  16G4299    -0.2675
     15  O7         0.0920   -6.1810  -41.2030 O.2   4299  16G4299    -0.2733
     16  P         -1.4960   -5.2100  -33.5250 P.3   4299  16G4299     0.5327
     17  O1P       -1.6100   -5.9310  -32.2440 O.3   4299  16G4299    -0.1145
     18  O2P       -2.7470   -4.4600  -33.6960 O.2   4299  16G4299    -0.2224
     19  O3P       -0.3570   -4.2660  -33.4360 O.3   4299  16G4299    -0.1145
@<TRIPOS>BOND
     1     8     7    1
     2    15     7    2
     3     7     9   am
     4     9     2    1
     5     2     1    1
     6     2     3    1
     7     1    10    1
     8     1    13    1
     9    11     3    1
    10     3     4    1
    11    13     5    1
    12     4     5    1
    13     4    12    1
    14     5     6    1
    15    14     6    1
    16    14    16    1
    17    18    16    2
    18    16    19    1
    19    16    17    1
