@<TRIPOS>MOLECULE
1ne7_AGP_A_1.pdb
 16 15 0 0 0
SMALL
GASTEIGER

@<TRIPOS>ATOM
      1  C1       -11.2560    6.4850  -41.8340 C.3   2298  AGP2298     0.2036
      2  O1       -11.2820    7.6650  -41.0630 O.3   2298  AGP2298    -0.2187
      3  C2       -11.0660    5.2650  -40.9430 C.3   2298  AGP2298     0.1575
      4  N2       -10.3250    4.2510  -41.6630 N.3   2298  AGP2298    -0.1273
      5  C3       -12.4390    4.7180  -40.4480 C.3   2298  AGP2298     0.2048
      6  O3       -12.8210    5.4000  -39.2540 O.3   2298  AGP2298    -0.2187
      7  C4       -13.5390    4.9080  -41.5210 C.3   2298  AGP2298     0.2163
      8  O4       -14.3530    6.0430  -41.1670 O.3   2298  AGP2298    -0.2175
      9  C5       -14.4070    3.6240  -41.5940 C.3   2298  AGP2298     0.2147
     10  O5       -13.7760    2.6630  -42.4640 O.3   2298  AGP2298    -0.2176
     11  C6       -15.8180    3.9430  -42.1150 C.3   2298  AGP2298     0.1892
     12  O6       -15.7380    4.4890  -43.4150 O.3   2298  AGP2298    -0.2674
     13  P        -16.9420    5.4140  -43.8090 P.3   2298  AGP2298     0.5327
     14  O1P      -16.6660    5.5550  -45.2590 O.2   2298  AGP2298    -0.2224
     15  O2P      -18.1970    4.7100  -43.4010 O.3   2298  AGP2298    -0.1145
     16  O3P      -16.6570    6.6240  -43.0180 O.3   2298  AGP2298    -0.1145
@<TRIPOS>BOND
     1    14    13    2
     2    13    12    1
     3    13    15    1
     4    13    16    1
     5    12    11    1
     6    10     9    1
     7    11     9    1
     8     1     2    1
     9     1     3    1
    10     4     3    1
    11     9     7    1
    12     7     8    1
    13     7     5    1
    14     3     5    1
    15     5     6    1
