@<TRIPOS>MOLECULE
1nec_FMN_A_1.pdb
 31 33 0 0 0
SMALL
GASTEIGER

@<TRIPOS>ATOM
      1  N1         1.3700   -0.8220   38.4660 N.2   217  FMN217     -0.2890
      2  C2         1.2550   -0.0600   39.5780 C.1   217  FMN217      0.3669
      3  O2         2.0450   -0.2200   40.5150 O.2   217  FMN217     -0.1744
      4  N3         0.2030    0.8900   39.6560 N.2   217  FMN217     -0.2300
      5  C4        -0.6940    1.1160   38.6920 C.1   217  FMN217      0.2513
      6  O4        -1.5870    1.9690   38.7830 O.2   217  FMN217     -0.2057
      7  C4A       -0.5910    0.2640   37.5130 C.2   217  FMN217      0.2700
      8  N5        -1.3630    0.4900   36.4960 N.2   217  FMN217     -0.3878
      9  C5A       -1.0880   -0.2210   35.3790 C.2   217  FMN217      0.1320
     10  C6        -1.7800    0.1360   34.1570 C.2   217  FMN217      0.0250
     11  C7        -1.5210   -0.5220   33.0070 C.2   217  FMN217     -0.0238
     12  C7M       -2.2280   -0.2330   31.6710 C.3   217  FMN217      0.0308
     13  C8        -0.4830   -1.5010   32.9040 C.2   217  FMN217     -0.0280
     14  C8M       -0.1700   -2.1670   31.5860 C.3   217  FMN217      0.0304
     15  C9         0.2060   -1.8240   34.0290 C.2   217  FMN217     -0.0041
     16  C9A       -0.0610   -1.1900   35.2480 C.3   217  FMN217      0.1497
     17  N10        0.7200   -1.4130   36.3370 N.pl3 217  FMN217     -0.2691
     18  C10        0.4870   -0.7210   37.4870 C.2   217  FMN217      0.2416
     19  C1'        1.6460   -2.5610   36.4290 C.3   217  FMN217      0.1294
     20  C2'        0.9970   -3.9240   36.3170 C.3   217  FMN217      0.2044
     21  O2'        0.6580   -4.5480   37.5690 O.3   217  FMN217     -0.2185
     22  C3'        2.0490   -4.8800   35.6910 C.3   217  FMN217      0.2164
     23  O3'        2.3300   -4.3350   34.3470 O.3   217  FMN217     -0.2175
     24  C4'        1.7240   -6.3130   35.6250 C.3   217  FMN217      0.2147
     25  O4'        1.5940   -6.9280   36.9450 O.3   217  FMN217     -0.2176
     26  C5'        2.7320   -7.1900   34.8900 C.3   217  FMN217      0.1892
     27  O5'        4.0330   -6.9880   35.5220 O.3   217  FMN217     -0.2674
     28  P          5.2660   -6.4860   34.6880 P.3   217  FMN217      0.5327
     29  O1P        4.9240   -5.1240   34.1070 O.3   217  FMN217     -0.1145
     30  O2P        5.6560   -7.4560   33.5740 O.2   217  FMN217     -0.2224
     31  O3P        6.3750   -6.3710   35.7550 O.3   217  FMN217     -0.1145
@<TRIPOS>BOND
     1    14    13    1
     2    12    11    1
     3    13    11    1
     4    13    15    2
     5    11    10    2
     6    30    28    2
     7    15    16    1
     8    29    28    1
     9    10     9    1
    10    23    22    1
    11    28    27    1
    12    28    31    1
    13    26    27    1
    14    26    24    1
    15    16     9    1
    16    16    17    1
    17     9     8    2
    18    24    22    1
    19    24    25    1
    20    22    20    1
    21    20    19    1
    22    20    21    1
    23    17    19    1
    24    17    18    1
    25     8     7    2
    26    18     7    1
    27    18     1    2
    28     7     5    1
    29     1     2    2
    30     5     6    2
    31     5     4    2
    32     2     4    2
    33     2     3    2
