@<TRIPOS>MOLECULE
1nej_HEM_A_1.pdb
 43 50 0 0 0
SMALL
GASTEIGER

@<TRIPOS>ATOM
      1 FE         27.5950   27.2530   48.2950 Fe    142  HEM142      0.0000
      2  CHA       29.9460   28.5570   46.2240 C.2   142  HEM142      0.0000
      3  CHB       28.7220   24.1960   47.6710 C.2   142  HEM142      0.0000
      4  CHC       25.0080   25.9560   50.0040 C.2   142  HEM142      0.0000
      5  CHD       26.2760   30.3020   48.7040 C.2   142  HEM142      0.0000
      6  NA        29.0010   26.5340   47.1760 N.ar  142  HEM142      0.0000
      7  C1A       29.8940   27.2090   46.3800 C.ar  142  HEM142      0.0000
      8  C2A       30.7660   26.3330   45.6790 C.ar  142  HEM142      0.0000
      9  C3A       30.4480   25.0870   46.0790 C.ar  142  HEM142      0.0000
     10  C4A       29.3520   25.2310   47.0220 C.ar  142  HEM142      0.0000
     11  CMA       31.0340   23.7860   45.5710 C.3   142  HEM142      0.0000
     12  CAA       31.6820   26.8140   44.5690 C.3   142  HEM142      0.0000
     13  CBA       33.1610   26.6230   44.8200 C.3   142  HEM142      0.0000
     14  CGA       33.7070   25.4230   44.0860 C.2   142  HEM142      0.0000
     15  O1A       33.8050   24.3400   44.7060 O.co2 142  HEM142      0.0000
     16  O2A       34.0400   25.5550   42.8850 O.co2 142  HEM142      0.0000
     17  NB        27.0270   25.4940   48.7930 N.2   142  HEM142      0.0000
     18  C1B       27.6380   24.3170   48.4990 C.2   142  HEM142      0.0000
     19  C2B       26.9740   23.2000   49.1330 C.2   142  HEM142      0.0000
     20  C3B       25.9400   23.7290   49.8270 C.2   142  HEM142      0.0000
     21  C4B       25.9610   25.1270   49.5540 C.2   142  HEM142      0.0000
     22  CMB       27.3780   21.7380   49.0150 C.3   142  HEM142      0.0000
     23  CAB       25.0890   23.1210   50.7350 C.3   142  HEM142      0.0000
     24  CBB       24.0190   22.2230   50.3690 C.3   142  HEM142      0.0000
     25  NC        26.0790   27.9750   49.2550 N.ar  142  HEM142      0.0000
     26  C1C       25.0560   27.2890   49.8610 C.ar  142  HEM142      0.0000
     27  C2C       23.9850   28.1490   50.2750 C.ar  142  HEM142      0.0000
     28  C3C       24.3780   29.4070   49.9560 C.ar  142  HEM142      0.0000
     29  C4C       25.6650   29.2710   49.3200 C.ar  142  HEM142      0.0000
     30  CMC       22.7100   27.6750   50.9330 C.3   142  HEM142      0.0000
     31  CAC       23.7550   30.6090   50.2040 C.3   142  HEM142      0.0000
     32  CBC       22.3580   30.8350   50.0090 C.3   142  HEM142      0.0000
     33  ND        28.0540   29.0380   47.6630 N.2   142  HEM142      0.0000
     34  C1D       27.3750   30.1970   47.9090 C.2   142  HEM142      0.0000
     35  C2D       27.9570   31.3210   47.2160 C.2   142  HEM142      0.0000
     36  C3D       29.0420   30.8750   46.5360 C.2   142  HEM142      0.0000
     37  C4D       29.0860   29.4350   46.8140 C.2   142  HEM142      0.0000
     38  CMD       27.4290   32.7450   47.2630 C.3   142  HEM142      0.0000
     39  CAD       29.9590   31.7680   45.6790 C.3   142  HEM142      0.0000
     40  CBD       31.1610   31.1350   44.9950 C.3   142  HEM142      0.0000
     41  CGD       30.9980   31.0190   43.4860 C.2   142  HEM142      0.0000
     42  O1D       30.7480   32.0560   42.8310 O.co2 142  HEM142      0.0000
     43  O2D       31.1240   29.8880   42.9590 O.co2 142  HEM142      0.0000
@<TRIPOS>BOND
     1    42    41   ar
     2    16    14   ar
     3    43    41   ar
     4    41    40    1
     5    14    15   ar
     6    14    13    1
     7    12    13    1
     8    12     8    1
     9    40    39    1
    10    11     9    1
    11    39    36    1
    12     8     9   ar
    13     8     7   ar
    14     9    10   ar
    15     2     7    2
    16     2    37    1
    17     7     6   ar
    18    36    37    1
    19    36    35    2
    20    37    33    2
    21    10     6   ar
    22    10     3    2
    23     6     1    1
    24    35    38    1
    25    35    34    1
    26    33    34    1
    27    33     1    1
    28     3    18    1
    29    34     5    2
    30     1    17    1
    31     1    25    1
    32    18    17    2
    33    18    19    1
    34     5    29    1
    35    17    21    1
    36    22    19    1
    37    19    20    2
    38    25    29   ar
    39    25    26   ar
    40    29    28   ar
    41    21    20    1
    42    21     4    2
    43    20    23    1
    44    26     4    1
    45    26    27   ar
    46    28    31    1
    47    28    27   ar
    48    32    31    1
    49    27    30    1
    50    24    23    1
