@<TRIPOS>MOLECULE
1nek_HEM_C_1.pdb
 43 50 0 0 0
SMALL
GASTEIGER

@<TRIPOS>ATOM
      1 FE         75.3510  100.9970   96.5320 Fe    305  HEM305      0.0000
      2  CHA       76.3350  101.1670   99.8160 C.2   305  HEM305      0.0000
      3  CHB       78.1560  102.7590   95.6470 C.2   305  HEM305      0.0000
      4  CHC       74.3570  100.8700   93.3440 C.2   305  HEM305      0.0000
      5  CHD       72.5260   99.1990   97.4670 C.2   305  HEM305      0.0000
      6  NA        76.9770  101.8080   97.5360 N.ar  305  HEM305      0.0000
      7  C1A       77.1540  101.7370   98.8500 C.ar  305  HEM305      0.0000
      8  C2A       78.4080  102.4050   99.1550 C.ar  305  HEM305      0.0000
      9  C3A       78.9190  102.8510   97.9650 C.ar  305  HEM305      0.0000
     10  C4A       77.9870  102.4670   96.9530 C.ar  305  HEM305      0.0000
     11  CMA       80.2090  103.6160   97.7270 C.3   305  HEM305      0.0000
     12  CAA       78.9890  102.5450  100.5330 C.3   305  HEM305      0.0000
     13  CBA       80.0750  101.5190  100.9130 C.3   305  HEM305      0.0000
     14  CGA       79.8250  100.9230  102.2950 C.2   305  HEM305      0.0000
     15  O1A       79.6880   99.6760  102.3690 O.co2 305  HEM305      0.0000
     16  O2A       79.7810  101.7330  103.2500 O.co2 305  HEM305      0.0000
     17  NB        76.1040  101.6860   94.8360 N.2   305  HEM305      0.0000
     18  C1B       77.2580  102.4010   94.7000 C.2   305  HEM305      0.0000
     19  C2B       77.4090  102.7240   93.3340 C.2   305  HEM305      0.0000
     20  C3B       76.3260  102.1960   92.6920 C.2   305  HEM305      0.0000
     21  C4B       75.5140  101.5420   93.6670 C.2   305  HEM305      0.0000
     22  CMB       78.5530  103.5110   92.7340 C.3   305  HEM305      0.0000
     23  CAB       75.9870  102.2690   91.2680 C.3   305  HEM305      0.0000
     24  CBB       75.2230  103.5640   90.9870 C.3   305  HEM305      0.0000
     25  NC        73.7470  100.1620   95.5750 N.ar  305  HEM305      0.0000
     26  C1C       73.5580  100.2530   94.2520 C.ar  305  HEM305      0.0000
     27  C2C       72.3540   99.5480   93.8750 C.ar  305  HEM305      0.0000
     28  C3C       71.8510   99.0800   95.0460 C.ar  305  HEM305      0.0000
     29  C4C       72.7190   99.4840   96.1270 C.ar  305  HEM305      0.0000
     30  CMC       71.8130   99.4070   92.4690 C.3   305  HEM305      0.0000
     31  CAC       70.5820   98.2780   95.1820 C.2   305  HEM305      0.0000
     32  CBC       70.6380   96.9420   95.1000 C.2   305  HEM305      0.0000
     33  ND        74.5690  100.3160   98.3190 N.2   305  HEM305      0.0000
     34  C1D       73.4020   99.6160   98.4580 C.2   305  HEM305      0.0000
     35  C2D       73.2110   99.3530   99.8620 C.2   305  HEM305      0.0000
     36  C3D       74.2810   99.9160  100.5350 C.2   305  HEM305      0.0000
     37  C4D       75.1480  100.5150   99.5240 C.2   305  HEM305      0.0000
     38  CMD       72.0540   98.6120  100.4820 C.3   305  HEM305      0.0000
     39  CAD       74.4930   99.8990  102.0290 C.3   305  HEM305      0.0000
     40  CBD       75.7610   99.2120  102.5270 C.3   305  HEM305      0.0000
     41  CGD       76.1330   99.6420  103.9410 C.2   305  HEM305      0.0000
     42  O1D       75.3930  100.4910  104.5170 O.co2 305  HEM305      0.0000
     43  O2D       77.1620   99.1220  104.4260 O.co2 305  HEM305      0.0000
@<TRIPOS>BOND
     1    24    23    1
     2    23    20    1
     3    30    27    1
     4    20    19    2
     5    20    21    1
     6    22    19    1
     7    19    18    1
     8     4    21    2
     9     4    26    1
    10    21    17    1
    11    27    26   ar
    12    27    28   ar
    13    26    25   ar
    14    18    17    2
    15    18     3    1
    16    17     1    1
    17    28    31    1
    18    28    29   ar
    19    32    31    2
    20    25    29   ar
    21    25     1    1
    22     3    10    2
    23    29     5    1
    24     1     6    1
    25     1    33    1
    26    10     6   ar
    27    10     9   ar
    28     5    34    2
    29     6     7   ar
    30    11     9    1
    31     9     8   ar
    32    33    34    1
    33    33    37    2
    34    34    35    1
    35     7     8   ar
    36     7     2    2
    37     8    12    1
    38    37     2    1
    39    37    36    1
    40    35    38    1
    41    35    36    2
    42    12    13    1
    43    36    39    1
    44    13    14    1
    45    39    40    1
    46    14    15   ar
    47    14    16   ar
    48    40    41    1
    49    41    43   ar
    50    41    42   ar
