@<TRIPOS>MOLECULE
1nek_UQ2_D_1.pdb
 23 23 0 0 0
SMALL
GASTEIGER

@<TRIPOS>ATOM
      1  C1        86.7850   96.9140  107.0480 C.2   306  UQ2306      0.2135
      2  C2        85.4260   96.3360  106.9460 C.2   306  UQ2306      0.2103
      3  C3        85.2440   94.9540  107.1120 C.2   306  UQ2306      0.2134
      4  C4        86.4340   94.0830  107.4120 C.2   306  UQ2306      0.2249
      5  C5        87.7990   94.6990  107.5040 C.2   306  UQ2306      0.0056
      6  C6        87.9750   96.0660  107.3310 C.3   306  UQ2306      0.0909
      7  CM2       83.9620   98.1160  107.7120 C.3   306  UQ2306      0.2528
      8  CM3       82.7170   94.7600  106.7640 C.3   306  UQ2306      0.2528
      9  CM5       88.9860   93.7390  107.8010 C.3   306  UQ2306      0.0302
     10  C7        89.3530   96.7070  107.4020 C.3   306  UQ2306      0.0377
     11  C8        89.7880   96.9780  106.1600 C.2   306  UQ2306     -0.0296
     12  C9        90.9860   97.5690  105.7790 C.2   306  UQ2306     -0.0261
     13  C10       92.0640   98.0340  106.7510 C.3   306  UQ2306      0.0307
     14  C11       91.2240   97.7600  104.2790 C.2   306  UQ2306     -0.0046
     15  C12       90.1530   98.5490  103.5100 C.2   306  UQ2306     -0.0010
     16  C13       90.2260   98.4990  102.0120 C.2   306  UQ2306     -0.0085
     17  C14       89.4930   98.9790  100.9140 C.2   306  UQ2306     -0.0436
     18  C15       88.2070   99.8130  101.0470 C.3   306  UQ2306      0.0264
     19  C16       89.8800   98.7260   99.4130 C.3   306  UQ2306      0.0264
     20  O1        86.9390   98.1530  106.8940 O.2   306  UQ2306     -0.2877
     21  O2        84.4210   97.2630  106.6630 O.2   306  UQ2306     -0.4654
     22  O3        83.9950   94.2950  107.0260 O.2   306  UQ2306     -0.4652
     23  O4        86.2850   92.7940  107.5750 O.2   306  UQ2306     -0.2839
@<TRIPOS>BOND
     1    19    17    1
     2    17    18    1
     3    17    16    2
     4    16    15    1
     5    15    14    2
     6    14    12    1
     7    12    11    2
     8    12    13    1
     9    11    10    1
    10    21     2    1
    11    21     7    1
    12     8    22    1
    13    20     1    2
    14     2     1    1
    15     2     3    2
    16    22     3    1
    17     1     6    1
    18     3     4    1
    19     6    10    1
    20     6     5    1
    21     4     5    2
    22     4    23    1
    23     5     9    1
