@<TRIPOS>MOLECULE
1nek_EPH_C_1.pdb
 35 34 0 0 0
SMALL
GASTEIGER

@<TRIPOS>ATOM
      1  C1        80.9610   79.0760  101.0420 C.3   309  EPH309      0.2543
      2  C2        82.3160   79.2530  101.6150 C.3   309  EPH309      0.2420
      3  C4        80.0890   78.9940   98.8320 C.2   309  EPH309      0.3171
      4  O2        81.1530   79.1110   99.6280 O.3   309  EPH309     -0.4444
      5  O4        78.9640   78.8630   99.2130 O.2   309  EPH309     -0.2501
      6  C18       80.4890   79.0490   97.3300 C.3   309  EPH309      0.1096
      7  C19       80.8210   80.4680   96.8570 C.3   309  EPH309      0.0116
      8  C20       81.0260   80.5790   95.3580 C.3   309  EPH309      0.0006
      9  C21       82.4830   80.4460   94.9500 C.3   309  EPH309      0.0000
     10  C22       82.6360   80.5720   93.4340 C.3   309  EPH309      0.0000
     11  C23       84.0200   81.0120   92.9120 C.3   309  EPH309      0.0000
     12  C24       84.4780   80.3040   91.6200 C.3   309  EPH309      0.0000
     13  C25       85.0570   81.2150   90.5370 C.3   309  EPH309      0.0000
     14  C37       82.2870   79.1660  103.1210 C.3   309  EPH309      0.1964
     15  O5        81.8910   77.8360  103.4740 O.3   309  EPH309     -0.3100
     16  C3        84.0760   80.7560  100.9010 C.2   309  EPH309      0.3171
     17  O1        82.7780   80.5380  101.1690 O.3   309  EPH309     -0.4457
     18  O3        84.9530   79.9290  101.0110 O.2   309  EPH309     -0.2501
     19  C5        84.3470   82.1910  100.4190 C.3   309  EPH309      0.1096
     20  C6        83.4750   82.3830   99.1660 C.3   309  EPH309      0.0116
     21  C7        83.6150   83.7710   98.5530 C.3   309  EPH309      0.0006
     22  C8        82.8430   83.9370   97.2490 C.3   309  EPH309      0.0000
     23  C9        83.0150   85.3570   96.6770 C.3   309  EPH309      0.0000
     24  C10       82.0890   85.7670   95.5210 C.3   309  EPH309      0.0000
     25  C11       82.8900   86.5010   94.4430 C.3   309  EPH309      0.0000
     26  C12       82.7070   86.1040   92.9510 C.3   309  EPH309      0.0000
     27  C13       83.8420   86.4850   92.0270 C.3   309  EPH309      0.0000
     28  C14       83.7750   85.6760   90.7370 C.3   309  EPH309      0.0000
     29  P1        81.7570   77.4080  105.0070 P.3   309  EPH309      0.2141
     30  O6        83.1210   77.1260  105.6600 O.3   309  EPH309     -0.4373
     31  O7        80.9920   78.6450  105.6390 O.2   309  EPH309     -0.5172
     32  O8        80.7950   76.1940  105.0410 O.3   309  EPH309     -0.3125
     33  C38       79.5160   76.2930  104.3820 C.3   309  EPH309      0.1696
     34  C39       79.2030   75.1140  103.4750 C.3   309  EPH309      0.1417
     35  N1        78.0450   75.6190  102.7310 N.3   309  EPH309     -0.1286
@<TRIPOS>BOND
     1    13    12    1
     2    28    27    1
     3    12    11    1
     4    27    26    1
     5    11    10    1
     6    26    25    1
     7    10     9    1
     8    25    24    1
     9     9     8    1
    10     8     7    1
    11    24    23    1
    12    23    22    1
    13     7     6    1
    14    22    21    1
    15     6     3    1
    16    21    20    1
    17     3     5    2
    18     3     4    1
    19    20    19    1
    20     4     1    1
    21    19    16    1
    22    16    18    2
    23    16    17    1
    24     1     2    1
    25    17     2    1
    26     2    14    1
    27    35    34    1
    28    14    15    1
    29    15    29    1
    30    34    33    1
    31    33    32    1
    32    29    32    1
    33    29    31    2
    34    29    30    1
