@<TRIPOS>MOLECULE
1nen_HEM_C_1.pdb
 43 50 0 0 0
SMALL
GASTEIGER

@<TRIPOS>ATOM
      1 FE         75.3900  101.0080   96.5290 Fe    305  HEM305      0.0000
      2  CHA       76.3580  101.1220   99.7760 C.2   305  HEM305      0.0000
      3  CHB       78.2180  102.7800   95.6100 C.2   305  HEM305      0.0000
      4  CHC       74.3710  100.8450   93.3310 C.2   305  HEM305      0.0000
      5  CHD       72.5200   99.1670   97.4830 C.2   305  HEM305      0.0000
      6  NA        77.0150  101.7860   97.5250 N.ar  305  HEM305      0.0000
      7  C1A       77.1770  101.7100   98.8350 C.ar  305  HEM305      0.0000
      8  C2A       78.4280  102.3490   99.1670 C.ar  305  HEM305      0.0000
      9  C3A       78.9730  102.8230   97.9920 C.ar  305  HEM305      0.0000
     10  C4A       78.0490  102.4660   96.9470 C.ar  305  HEM305      0.0000
     11  CMA       80.2810  103.5770   97.8100 C.3   305  HEM305      0.0000
     12  CAA       78.9620  102.4560  100.5660 C.3   305  HEM305      0.0000
     13  CBA       80.0670  101.4700  100.9450 C.3   305  HEM305      0.0000
     14  CGA       79.8380  100.9310  102.3480 C.2   305  HEM305      0.0000
     15  O1A       79.6720   99.6960  102.4570 O.co2 305  HEM305      0.0000
     16  O2A       79.8310  101.7700  103.2860 O.co2 305  HEM305      0.0000
     17  NB        76.1400  101.7020   94.8100 N.2   305  HEM305      0.0000
     18  C1B       77.3070  102.4120   94.6500 C.2   305  HEM305      0.0000
     19  C2B       77.4280  102.7330   93.2560 C.2   305  HEM305      0.0000
     20  C3B       76.3320  102.1770   92.6240 C.2   305  HEM305      0.0000
     21  C4B       75.5310  101.5390   93.6310 C.2   305  HEM305      0.0000
     22  CMB       78.5530  103.5160   92.6290 C.3   305  HEM305      0.0000
     23  CAB       75.9570  102.2090   91.1740 C.3   305  HEM305      0.0000
     24  CBB       75.2410  103.4800   90.7770 C.3   305  HEM305      0.0000
     25  NC        73.7640  100.1410   95.5880 N.ar  305  HEM305      0.0000
     26  C1C       73.5680  100.2400   94.2570 C.ar  305  HEM305      0.0000
     27  C2C       72.3580   99.5170   93.8890 C.ar  305  HEM305      0.0000
     28  C3C       71.8510   99.0530   95.0680 C.ar  305  HEM305      0.0000
     29  C4C       72.7210   99.4510   96.1490 C.ar  305  HEM305      0.0000
     30  CMC       71.8230   99.3830   92.4860 C.3   305  HEM305      0.0000
     31  CAC       70.5870   98.2590   95.2000 C.2   305  HEM305      0.0000
     32  CBC       70.6430   96.9140   95.2280 C.2   305  HEM305      0.0000
     33  ND        74.5810  100.2960   98.3200 N.2   305  HEM305      0.0000
     34  C1D       73.4150   99.5780   98.4710 C.2   305  HEM305      0.0000
     35  C2D       73.2420   99.3380   99.8950 C.2   305  HEM305      0.0000
     36  C3D       74.3210   99.8990  100.5360 C.2   305  HEM305      0.0000
     37  C4D       75.1680  100.4870   99.5060 C.2   305  HEM305      0.0000
     38  CMD       72.1090   98.6100  100.5660 C.3   305  HEM305      0.0000
     39  CAD       74.5690   99.9110  102.0340 C.3   305  HEM305      0.0000
     40  CBD       75.8270   99.2290  102.5610 C.3   305  HEM305      0.0000
     41  CGD       76.1730   99.6430  104.0070 C.2   305  HEM305      0.0000
     42  O1D       75.4420  100.4940  104.5940 O.co2 305  HEM305      0.0000
     43  O2D       77.1900   99.1030  104.4970 O.co2 305  HEM305      0.0000
@<TRIPOS>BOND
     1    24    23    1
     2    23    20    1
     3    30    27    1
     4    20    19    2
     5    20    21    1
     6    22    19    1
     7    19    18    1
     8     4    21    2
     9     4    26    1
    10    21    17    1
    11    27    26   ar
    12    27    28   ar
    13    26    25   ar
    14    18    17    2
    15    18     3    1
    16    17     1    1
    17    28    31    1
    18    28    29   ar
    19    31    32    2
    20    25    29   ar
    21    25     1    1
    22     3    10    2
    23    29     5    1
    24     1     6    1
    25     1    33    1
    26    10     6   ar
    27    10     9   ar
    28     5    34    2
    29     6     7   ar
    30    11     9    1
    31     9     8   ar
    32    33    34    1
    33    33    37    2
    34    34    35    1
    35     7     8   ar
    36     7     2    2
    37     8    12    1
    38    37     2    1
    39    37    36    1
    40    35    36    2
    41    35    38    1
    42    36    39    1
    43    12    13    1
    44    13    14    1
    45    39    40    1
    46    14    15   ar
    47    14    16   ar
    48    40    41    1
    49    41    43   ar
    50    41    42   ar
