@<TRIPOS>MOLECULE
1nen_DNT_C_1.pdb
 20 20 0 0 0
SMALL
GASTEIGER

@<TRIPOS>ATOM
      1  C13       89.8130   96.6320  101.2510 C.3   306  DNT306      0.0050
      2  C12       88.9920   96.4040  102.4730 C.3   306  DNT306      0.0260
      3  C11       89.7390   96.1740  103.7770 C.2   306  DNT306     -0.0262
      4  C9        88.8590   95.9330  104.9970 C.2   306  DNT306     -0.0052
      5  C8        89.4570   95.7090  106.2490 C.2   306  DNT306     -0.0081
      6  C7        88.8690   95.4690  107.4630 C.2   306  DNT306     -0.0329
      7  C10       89.4940   95.2170  108.8400 C.3   306  DNT306      0.0271
      8  C6        87.3170   95.4350  107.4580 C.3   306  DNT306      0.1055
      9  C1        86.5200   96.7010  107.2610 C.2   306  DNT306      0.2028
     10  O1        87.1510   97.7940  107.0900 O.2   306  DNT306     -0.2889
     11  C2        84.9910   96.6920  107.2410 C.2   306  DNT306      0.1796
     12  C3        84.3020   95.4520  107.4400 C.2   306  DNT306      0.0508
     13  C4        85.0860   94.1510  107.6510 C.2   306  DNT306      0.1411
     14  C5        86.6210   94.2140  107.6530 C.2   306  DNT306      0.0095
     15  N4        84.4560   93.0580  107.8300 N.pl3 306  DNT306      0.0574
     16  O61       83.1470   93.0650  107.8170 O.2   306  DNT306     -0.1261
     17  O41       85.0450   91.9330  108.0270 O.2   306  DNT306     -0.1261
     18  N6        84.3720   97.7810  107.0700 N.pl3 306  DNT306      0.0606
     19  O62       84.9830   98.9010  106.8900 O.2   306  DNT306     -0.1260
     20  O42       83.0800   97.7960  107.0590 O.2   306  DNT306     -0.1260
@<TRIPOS>BOND
     1     1     2    1
     2     2     3    1
     3     3     4    2
     4     4     5    1
     5     5     6    2
     6    19    18    2
     7    20    18    2
     8    18    11    1
     9    10     9    2
    10    11     9    1
    11    11    12    2
    12     9     8    1
    13    12    13    1
    14     8     6    1
    15     8    14    1
    16     6     7    1
    17    13    14    2
    18    13    15    1
    19    16    15    2
    20    15    17    2
