@<TRIPOS>MOLECULE
1nen_EPH_C_1.pdb
 35 34 0 0 0
SMALL
GASTEIGER

@<TRIPOS>ATOM
      1  C1        81.0260   79.0660  101.0780 C.3   309  EPH309      0.2543
      2  C2        82.3820   79.2640  101.6780 C.3   309  EPH309      0.2420
      3  C4        80.1350   79.0390   98.8690 C.2   309  EPH309      0.3171
      4  O2        81.2060   79.1540   99.6520 O.3   309  EPH309     -0.4444
      5  O4        79.0260   78.8710   99.2700 O.2   309  EPH309     -0.2501
      6  C18       80.4980   79.1510   97.3580 C.3   309  EPH309      0.1096
      7  C19       80.7130   80.5990   96.8680 C.3   309  EPH309      0.0116
      8  C20       80.9540   80.6820   95.3640 C.3   309  EPH309      0.0006
      9  C21       82.4270   80.5550   94.9860 C.3   309  EPH309      0.0000
     10  C22       82.6270   80.6330   93.4610 C.3   309  EPH309      0.0000
     11  C23       84.0650   80.9250   92.9500 C.3   309  EPH309      0.0000
     12  C24       84.4070   80.3470   91.5570 C.3   309  EPH309      0.0000
     13  C25       85.0640   81.3230   90.5680 C.3   309  EPH309      0.0000
     14  C37       82.3380   79.1330  103.1910 C.3   309  EPH309      0.1964
     15  O5        81.8230   77.8330  103.5280 O.3   309  EPH309     -0.3100
     16  C3        84.1060   80.8960  101.0670 C.2   309  EPH309      0.3171
     17  O1        82.8150   80.5880  101.2710 O.3   309  EPH309     -0.4457
     18  O3        85.0310   80.1260  101.2060 O.2   309  EPH309     -0.2501
     19  C5        84.2910   82.3620  100.6120 C.3   309  EPH309      0.1096
     20  C6        83.5840   82.4730   99.2390 C.3   309  EPH309      0.0116
     21  C7        83.6420   83.8770   98.6070 C.3   309  EPH309      0.0006
     22  C8        82.9450   83.9650   97.2410 C.3   309  EPH309      0.0000
     23  C9        83.0160   85.3930   96.6360 C.3   309  EPH309      0.0000
     24  C10       82.0300   85.7470   95.4840 C.3   309  EPH309      0.0000
     25  C11       82.7420   86.5230   94.3680 C.3   309  EPH309      0.0000
     26  C12       82.5440   86.1060   92.8700 C.3   309  EPH309      0.0000
     27  C13       83.6370   86.5560   91.8970 C.3   309  EPH309      0.0000
     28  C14       83.6620   85.6860   90.6420 C.3   309  EPH309      0.0000
     29  P1        81.6660   77.3960  105.0560 P.3   309  EPH309      0.2141
     30  O6        83.0350   77.1350  105.7300 O.3   309  EPH309     -0.4373
     31  O7        80.8630   78.6180  105.6780 O.2   309  EPH309     -0.5172
     32  O8        80.7330   76.1540  105.0690 O.3   309  EPH309     -0.3125
     33  C38       79.4540   76.2230  104.4050 C.3   309  EPH309      0.1696
     34  C39       79.1910   75.0920  103.4210 C.3   309  EPH309      0.1417
     35  N1        78.1100   75.6540  102.6030 N.3   309  EPH309     -0.1286
@<TRIPOS>BOND
     1    13    12    1
     2    28    27    1
     3    12    11    1
     4    27    26    1
     5    26    25    1
     6    11    10    1
     7    10     9    1
     8    25    24    1
     9     9     8    1
    10     8     7    1
    11    24    23    1
    12    23    22    1
    13     7     6    1
    14    22    21    1
    15     6     3    1
    16    21    20    1
    17     3     5    2
    18     3     4    1
    19    20    19    1
    20     4     1    1
    21    19    16    1
    22    16    18    2
    23    16    17    1
    24     1     2    1
    25    17     2    1
    26     2    14    1
    27    35    34    1
    28    14    15    1
    29    34    33    1
    30    15    29    1
    31    33    32    1
    32    29    32    1
    33    29    31    2
    34    29    30    1
