@<TRIPOS>MOLECULE
1nes_III_I_1.pdb
 21 21 0 0 0
SMALL
GASTEIGER

@<TRIPOS>ATOM
      1  C        -11.4120   23.6460   37.7520 C.2   600  ACE600      0.2423
      2  O        -11.9560   23.9150   36.6930 O.2   600  ACE600     -0.2733
      3  CH3      -11.1340   24.7720   38.7220 C.3   600  ACE600      0.0964
      4  N        -11.2040   22.4040   38.1260 N.am  601  ALA601     -0.1978
      5  CA       -11.6800   21.1820   37.4480 C.3   601  ALA601      0.1716
      6  C        -13.1970   21.0540   37.5140 C.2   601  ALA601      0.2496
      7  O        -13.7980   21.2680   38.5700 O.2   601  ALA601     -0.2727
      8  CB       -11.0980   19.9060   38.1110 C.3   601  ALA601      0.0333
      9  N        -13.8430   20.6230   36.4740 N.am  602  PRO602     -0.2490
     10  CA       -15.2880   20.3350   36.5360 C.3   602  PRO602      0.1619
     11  C        -15.5360   19.0650   37.3130 C.2   602  PRO602      0.2606
     12  O        -14.8600   18.1010   37.0090 O.2   602  PRO602     -0.2715
     13  CB       -15.7690   20.0860   35.0970 C.3   602  PRO602      0.0570
     14  CG       -14.4750   20.0360   34.2380 C.2   602  PRO602     -0.0077
     15  CD       -13.2800   20.4220   35.1300 C.2   602  PRO602      0.0634
     16  N        -16.2860   19.0720   38.3840 N.am  603  ALA603     -0.1942
     17  CA       -16.4100   17.9200   39.2560 C.3   603  ALA603      0.1979
     18  C        -17.8080   17.8530   39.8410 C.2   603  ALA603      0.3842
     19  O        -18.3680   16.7810   40.1670 O.co2 603  ALA603     -0.2437
     20  CB       -15.4600   18.0300   40.4470 C.3   603  ALA603      0.0356
     21  OXT      -18.4840   18.8710   39.7900 O.co2 603  ALA603     -0.2437
@<TRIPOS>BOND
     1    14    13    1
     2    14    15    2
     3    13    10    1
     4    15     9    1
     5     9    10    1
     6     9     6   am
     7    10    11    1
     8     2     1    2
     9    12    11    2
    10    11    16   am
    11     5     6    1
    12     5     8    1
    13     5     4    1
    14     6     7    2
    15     1     4   am
    16     1     3    1
    17    16    17    1
    18    17    18    1
    19    17    20    1
    20    21    18   ar
    21    18    19   ar
