@<TRIPOS>MOLECULE
1nex_III_E_1.pdb
 33 34 0 0 0
SMALL
GASTEIGER

@<TRIPOS>ATOM
      1  N         59.8300   -0.9160   73.3200 N.3     3  LEU3       -0.1231
      2  CA        59.9720   -2.0430   72.3540 C.3     3  LEU3        0.1693
      3  C         61.3610   -2.6590   72.3770 C.2     3  LEU3        0.2593
      4  O         62.2940   -2.1130   71.7860 O.2     3  LEU3       -0.2718
      5  CB        59.6890   -1.5670   70.9240 C.3     3  LEU3        0.0284
      6  CG        58.3110   -1.7540   70.2890 C.3     3  LEU3        0.0019
      7  CD1       58.3590   -1.2400   68.8600 C.3     3  LEU3        0.0001
      8  CD2       57.9200   -3.2250   70.3120 C.3     3  LEU3        0.0001
      9  N         61.5250   -3.7960   73.0730 N.am    4  THR4       -0.1941
     10  CA        62.8540   -4.4120   73.0940 C.3     4  THR4        0.1987
     11  CB        63.1340   -4.7420   74.5830 C.3     4  THR4        0.1550
     12  CG2       64.3880   -5.5880   74.7950 C.3     4  THR4        0.0350
     13  OG1       63.2470   -3.5090   75.2990 O.3     4  THR4       -0.2705
     14  P         64.6690   -2.6460   75.3390 P.3     4  THR4        0.5326
     15  O1P       65.0440   -2.2770   73.8560 O.2     4  THR4       -0.2224
     16  O2P       65.8310   -3.5230   75.9960 O.3     4  THR4       -0.1145
     17  O3P       64.3130   -1.3480   76.2190 O.3     4  THR4       -0.1145
     18  C         62.8350   -5.6960   72.2640 C.2     4  THR4        0.2483
     19  O         61.7550   -6.4740   72.1780 O.2     4  THR4       -0.2729
     20  N         63.9740   -5.9650   71.6020 N.am    5  PRO5       -0.2715
     21  CA        64.2040   -7.1360   70.7570 C.3     5  PRO5        0.1521
     22  C         64.2270   -8.3880   71.6350 C.2     5  PRO5        0.2440
     23  O         64.6520   -8.3370   72.7890 O.2     5  PRO5       -0.2731
     24  CB        65.5770   -6.8590   70.1500 C.3     5  PRO5        0.0310
     25  CG        65.6710   -5.3730   70.1470 C.3     5  PRO5        0.0237
     26  CD        65.0860   -5.0040   71.4650 C.3     5  PRO5        0.0939
     27  N         63.7640   -9.5270   71.1000 N.am    6  PRO6       -0.2727
     28  CA        63.7440  -10.7890   71.8480 C.3     6  PRO6        0.1402
     29  C         65.1600  -11.2180   72.2540 C.2     6  PRO6        0.2269
     30  O         65.7720  -11.9980   71.4920 O.2     6  PRO6       -0.2865
     31  CB        63.0990  -11.7630   70.8600 C.3     6  PRO6        0.0296
     32  CG        62.1910  -10.8750   70.0600 C.3     6  PRO6        0.0237
     33  CD        63.0730   -9.6750   69.8070 C.3     6  PRO6        0.0939
@<TRIPOS>BOND
     1     7     6    1
     2    33    32    1
     3    33    27    1
     4    32    31    1
     5    25    24    1
     6    25    26    1
     7    24    21    1
     8     6     8    1
     9     6     5    1
    10    21    20    1
    11    21    22    1
    12    31    28    1
    13     5     2    1
    14    27    22   am
    15    27    28    1
    16    26    20    1
    17    30    29    2
    18    20    18   am
    19    22    23    2
    20     4     3    2
    21    28    29    1
    22    19    18    2
    23    18    10    1
    24     2     3    1
    25     2     1    1
    26     3     9   am
    27     9    10    1
    28    10    11    1
    29    15    14    2
    30    11    12    1
    31    11    13    1
    32    13    14    1
    33    14    16    1
    34    14    17    1
