@<TRIPOS>MOLECULE
1ney_13P_A_1.pdb
 15 14 0 0 0
SMALL
GASTEIGER

@<TRIPOS>ATOM
      1  P         22.3940   42.1600   16.8930 P.3   5001  13P5001     0.5323
      2  O1P       23.0150   41.6280   18.2410 O.3   5001  13P5001    -0.1145
      3  O2P       21.5730   43.4070   17.0670 O.3   5001  13P5001    -0.1145
      4  O3P       21.6670   41.0180   16.1240 O.2   5001  13P5001    -0.2224
      5  O1        23.7530   42.5700   15.9290 O.3   5001  13P5001    -0.2759
      6  C1        23.3110   42.8350   14.5130 C.3   5001  13P5001     0.1195
      7  C2        24.6810   42.9760   13.8150 C.2   5001  13P5001     0.1844
      8  O2        25.3350   43.9540   14.0510 O.2   5001  13P5001    -0.2925
      9  C3        25.1850   41.8710   13.0110 C.3   5001  13P5001     0.1046
     10  O3        26.0310   42.0930   11.9460 O.3   5001  13P5001    -0.3874
     11  H11       22.7890   43.6500   14.4470 H     5001  13P5001     0.0646
     12  H12       22.7990   42.0940   14.1520 H     5001  13P5001     0.0646
     13  H31       25.6410   41.2640   13.6150 H     5001  13P5001     0.0637
     14  H32       24.4130   41.3950   12.6660 H     5001  13P5001     0.0637
     15  HO3       25.6560   42.5690   11.3940 H     5001  13P5001     0.2100
@<TRIPOS>BOND
     1    15    10    1
     2    10     9    1
     3    14     9    1
     4     9    13    1
     5     9     7    1
     6     7     8    2
     7     7     6    1
     8    12     6    1
     9    11     6    1
    10     6     5    1
    11     5     1    1
    12     4     1    2
    13     1     3    1
    14     1     2    1
