@<TRIPOS>MOLECULE
1nf0_13P_A_1.pdb
 10 9 0 0 0
SMALL
GASTEIGER

@<TRIPOS>ATOM
      1  P         30.1490   17.7800  149.2050 P.3   5001  13P5001     0.5330
      2  O1P       30.7390   19.2170  148.9530 O.3   5001  13P5001    -0.1145
      3  O2P       30.3600   17.5640  150.7560 O.3   5001  13P5001    -0.1145
      4  O3P       31.0280   16.6660  148.4930 O.2   5001  13P5001    -0.2224
      5  O1        28.5630   17.5340  148.8930 O.3   5001  13P5001    -0.2621
      6  C1        28.0120   16.1720  148.8340 C.3   5001  13P5001     0.2204
      7  C2        26.5290   16.2990  148.4710 C.2   5001  13P5001     0.2140
      8  O2        25.7780   16.8170  149.2860 O.2   5001  13P5001    -0.2906
      9  C3        26.0670   15.8260  147.1250 C.3   5001  13P5001     0.2485
     10  O3        24.7410   15.3950  147.1160 O.3   5001  13P5001    -0.2118
@<TRIPOS>BOND
     1    10     9    1
     2     9     7    1
     3     7     6    1
     4     7     8    2
     5     4     1    2
     6     6     5    1
     7     5     1    1
     8     2     1    1
     9     1     3    1
