@<TRIPOS>MOLECULE
1nf3_GNP_A_1.pdb
 32 34 0 0 0
SMALL
GASTEIGER

@<TRIPOS>ATOM
      1  PG        -9.6870   -4.4490   -2.7670 P.3   200  GNP200      0.4884
      2  O1G       -8.3090   -4.9500   -3.1160 O.3   200  GNP200     -0.1240
      3  O2G      -10.0660   -3.1690   -3.4320 O.2   200  GNP200     -0.2331
      4  O3G      -10.7600   -5.4790   -2.9900 O.3   200  GNP200     -0.1240
      5  N3B       -9.6670   -4.1120   -1.1100 N.3   200  GNP200     -0.0163
      6  PB        -8.7660   -3.0640   -0.3190 P.3   200  GNP200      0.4669
      7  O1B       -8.8700   -1.8040   -1.1330 O.2   200  GNP200     -0.2351
      8  O2B       -7.3390   -3.3780   -0.1260 O.3   200  GNP200     -0.1253
      9  O3A       -9.2500   -2.3400    1.0790 O.3   200  GNP200     -0.2360
     10  PA       -10.4260   -1.4160    1.5790 P.3   200  GNP200      0.2220
     11  O1A       -9.7050   -0.1050    1.7130 O.3   200  GNP200     -0.4370
     12  O2A      -11.5460   -1.1860    0.6210 O.2   200  GNP200     -0.5170
     13  O5'      -10.8990   -1.8470    3.0390 O.3   200  GNP200     -0.3111
     14  C5'      -11.5930   -3.0590    3.1090 C.3   200  GNP200      0.1813
     15  C4'      -12.0490   -3.1180    4.5770 C.3   200  GNP200      0.1799
     16  O4'      -10.9290   -3.1590    5.4410 O.3   200  GNP200     -0.3326
     17  C3'      -12.7300   -1.9020    5.1060 C.3   200  GNP200      0.2158
     18  O3'      -14.1160   -2.1230    4.9420 O.3   200  GNP200     -0.2175
     19  C2'      -12.3550   -1.8730    6.5780 C.3   200  GNP200      0.2310
     20  O2'      -13.1900   -2.5990    7.4450 O.3   200  GNP200     -0.2158
     21  C1'      -11.0240   -2.4680    6.6810 C.3   200  GNP200      0.2293
     22  N9        -9.9240   -1.5110    6.9970 N.pl3 200  GNP200     -0.2354
     23  C8        -9.1590   -0.8150    6.1150 C.3   200  GNP200      0.2246
     24  N7        -8.2660   -0.0710    6.7560 N.2   200  GNP200     -0.2322
     25  C5        -8.4770   -0.3040    8.0740 C.2   200  GNP200      0.2182
     26  C6        -7.7910    0.2360    9.2160 C.1   200  GNP200      0.2372
     27  O6        -6.7620    1.1220    9.0200 O.2   200  GNP200     -0.2069
     28  N1        -8.1930   -0.1610   10.5160 N.2   200  GNP200     -0.2485
     29  C2        -9.2340   -1.0540   10.6180 C.1   200  GNP200      0.2531
     30  N2        -9.5770   -1.4620   11.8400 N.pl3 200  GNP200     -0.0226
     31  N3        -9.8780   -1.5650    9.5320 N.2   200  GNP200     -0.3074
     32  C4        -9.5260   -1.2110    8.2380 C.2   200  GNP200      0.2300
@<TRIPOS>BOND
     1     3     1    2
     2     2     1    1
     3     4     1    1
     4     1     5    1
     5     7     6    2
     6     5     6    1
     7     6     8    1
     8     6     9    1
     9    12    10    2
    10     9    10    1
    11    10    11    1
    12    10    13    1
    13    13    14    1
    14    14    15    1
    15    15    17    1
    16    15    16    1
    17    18    17    1
    18    17    19    1
    19    16    21    1
    20    23    24    1
    21    23    22    1
    22    19    21    1
    23    19    20    1
    24    21    22    1
    25    24    25    2
    26    22    32    1
    27    25    32    1
    28    25    26    1
    29    32    31    2
    30    27    26    2
    31    26    28    2
    32    31    29    2
    33    28    29    2
    34    29    30    1
