@<TRIPOS>MOLECULE
1nf4_FEC_A_1.pdb
 49 56 0 0 0
SMALL
GASTEIGER

@<TRIPOS>ATOM
      1  O1A       20.5980  112.6900  -33.2820 O.co2 1007  FEC1007     0.0000
      2  CGA       20.9140  111.5760  -33.7720 C.2   1007  FEC1007     0.0000
      3  O2A       21.0930  111.3180  -34.9900 O.co2 1007  FEC1007     0.0000
      4  CBA       21.0730  110.4270  -32.8120 C.3   1007  FEC1007     0.0000
      5  CAA       22.1960  110.5630  -31.7810 C.3   1007  FEC1007     0.0000
      6  C3A       22.3700  109.3430  -30.8420 C.ar  1007  FEC1007     0.0000
      7  C2A       23.2570  108.3500  -30.9280 C.ar  1007  FEC1007     0.0000
      8  C1A       22.9870  107.4420  -29.8290 C.ar  1007  FEC1007     0.0000
      9  CHA       23.6980  106.2850  -29.5890 C.2   1007  FEC1007     0.0000
     10  C4D       23.5250  105.4870  -28.4780 C.2   1007  FEC1007     0.0000
     11  ND        22.6960  105.7550  -27.3950 N.2   1007  FEC1007     0.0000
     12  C1D       22.8130  104.6880  -26.5610 C.2   1007  FEC1007     0.0000
     13  CHD       22.1110  104.5190  -25.3900 C.2   1007  FEC1007     0.0000
     14  C4C       21.0620  105.3150  -24.9700 C.ar  1007  FEC1007     0.0000
     15  C3C       20.3940  105.1870  -23.6930 C.ar  1007  FEC1007     0.0000
     16  C2C       19.4450  106.1230  -23.6520 C.ar  1007  FEC1007     0.0000
     17  C1C       19.4740  106.8580  -24.8930 C.ar  1007  FEC1007     0.0000
     18  CHC       18.6650  107.9080  -25.2640 C.2   1007  FEC1007     0.0000
     19  C4B       18.8900  108.7870  -26.2980 C.2   1007  FEC1007     0.0000
     20  C3B       18.1870  110.0340  -26.5390 C.2   1007  FEC1007     0.0000
     21  C2B       18.6990  110.5830  -27.6440 C.2   1007  FEC1007     0.0000
     22  C1B       19.7270  109.6930  -28.1370 C.2   1007  FEC1007     0.0000
     23  NB        20.0400  108.5730  -27.0660 N.2   1007  FEC1007     0.0000
     24 FE         21.2520  107.1830  -27.3360 Fe    1007  FEC1007     0.0000
     25  NA        22.0180  108.0000  -29.3350 N.ar  1007  FEC1007     0.0000
     26  C4A       21.5200  109.0850  -29.6950 C.ar  1007  FEC1007     0.0000
     27  CHB       20.4860  109.8970  -29.2700 C.2   1007  FEC1007     0.0000
     28  NC        20.5530  106.2140  -25.6200 N.ar  1007  FEC1007     0.0000
     29  CMB       18.3350  111.9200  -28.3300 C.3   1007  FEC1007     0.0000
     30  CAB       17.0650  110.5450  -25.6220 C.2   1007  FEC1007     0.0000
     31  CBB       17.2180  111.9000  -24.9410 C.2   1007  FEC1007     0.0000
     32  CGB       15.9950  112.3890  -24.1970 C.2   1007  FEC1007     0.0000
     33  O1B       14.8580  112.1420  -24.6730 O.co2 1007  FEC1007     0.0000
     34  O2B       16.2260  113.0070  -23.1250 O.co2 1007  FEC1007     0.0000
     35  CAC       18.5050  106.3820  -22.4680 C.3   1007  FEC1007     0.0000
     36  CBC       17.0100  106.5930  -22.6700 C.3   1007  FEC1007     0.0000
     37  CGC       16.4040  107.3760  -21.5310 C.2   1007  FEC1007     0.0000
     38  O1C       16.1740  106.7430  -20.4650 O.co2 1007  FEC1007     0.0000
     39  O2C       16.2030  108.5990  -21.7400 O.co2 1007  FEC1007     0.0000
     40  CMC       20.7740  104.1360  -22.6280 C.3   1007  FEC1007     0.0000
     41  C2D       23.8640  103.8060  -27.0340 C.2   1007  FEC1007     0.0000
     42  C3D       24.2980  104.2930  -28.1930 C.2   1007  FEC1007     0.0000
     43  CAD       25.4020  103.7370  -29.1260 C.3   1007  FEC1007     0.0000
     44  CBD       26.7980  104.3390  -28.9990 C.3   1007  FEC1007     0.0000
     45  CGD       27.9520  103.3680  -29.0270 C.2   1007  FEC1007     0.0000
     46  O1D       29.0090  103.7900  -29.5640 O.co2 1007  FEC1007     0.0000
     47  O2D       27.7640  102.2320  -28.5360 O.co2 1007  FEC1007     0.0000
     48  CMD       24.3440  102.5430  -26.2780 C.3   1007  FEC1007     0.0000
     49  CMA       24.3890  108.1270  -31.9610 C.3   1007  FEC1007     0.0000
@<TRIPOS>BOND
     1     3     2   ar
     2     2     1   ar
     3     2     4    1
     4     4     5    1
     5    49     7    1
     6     5     6    1
     7     7     6   ar
     8     7     8   ar
     9     6    26   ar
    10     8     9    2
    11     8    25   ar
    12    26    25   ar
    13    26    27    2
    14     9    10    1
    15    46    45   ar
    16    25    24    1
    17    27    22    1
    18    43    44    1
    19    43    42    1
    20    45    44    1
    21    45    47   ar
    22    10    42    1
    23    10    11    2
    24    29    21    1
    25    42    41    2
    26    22    21    1
    27    22    23    2
    28    21    20    2
    29    11    24    1
    30    11    12    1
    31    24    23    1
    32    24    28    1
    33    23    19    1
    34    41    12    1
    35    41    48    1
    36    12    13    2
    37    20    19    1
    38    20    30    1
    39    19    18    2
    40    30    31    2
    41    28    14   ar
    42    28    17   ar
    43    13    14    1
    44    18    17    1
    45    14    15   ar
    46    31    32    1
    47    17    16   ar
    48    33    32   ar
    49    32    34   ar
    50    15    16   ar
    51    15    40    1
    52    16    35    1
    53    36    35    1
    54    36    37    1
    55    39    37   ar
    56    37    38   ar
