@<TRIPOS>MOLECULE
1nf5_BGC_B_1.pdb
 12 12 0 0 0
SMALL
GASTEIGER

@<TRIPOS>ATOM
      1  C2         2.2030   -2.1110   19.3570 C.3   403  BGC403      0.2434
      2  C3         2.2750   -1.2350   20.5820 C.3   403  BGC403      0.2199
      3  C4         3.7630   -1.0840   20.9550 C.3   403  BGC403      0.2144
      4  C5         4.5210   -0.3710   19.8060 C.3   403  BGC403      0.1836
      5  C6         6.0450   -0.3470   19.8080 C.3   403  BGC403      0.2142
      6  C1         3.0570   -1.5200   18.2170 C.3   403  BGC403      0.3024
      7  O1         2.9500   -2.2430   16.9800 O.3   403  BGC403     -0.1869
      8  O2         0.8290   -2.3070   18.9990 O.3   403  BGC403     -0.2148
      9  O3         1.6880   -1.9040   21.7070 O.3   403  BGC403     -0.2174
     10  O4         3.8890   -0.2700   22.0850 O.3   403  BGC403     -0.2176
     11  O5         4.4160   -1.2540   18.6020 O.3   403  BGC403     -0.3236
     12  O6         6.7170   -1.4530   20.3490 O.3   403  BGC403     -0.2176
@<TRIPOS>BOND
     1     7     6    1
     2     6    11    1
     3     6     1    1
     4    11     4    1
     5     8     1    1
     6     1     2    1
     7     4     5    1
     8     4     3    1
     9     5    12    1
    10     2     3    1
    11     2     9    1
    12     3    10    1
