@<TRIPOS>MOLECULE
1nf6_FEC_A_1.pdb
 49 56 0 0 0
SMALL
GASTEIGER

@<TRIPOS>ATOM
      1  O1A       21.1360  112.4040  -33.2760 O.co2 1005  FEC1005     0.0000
      2  CGA       21.4340  111.2690  -33.7300 C.2   1005  FEC1005     0.0000
      3  O2A       21.7100  110.9890  -34.9220 O.co2 1005  FEC1005     0.0000
      4  CBA       21.4630  110.1280  -32.7520 C.2   1005  FEC1005     0.0000
      5  CAA       22.2440  110.3730  -31.4580 C.2   1005  FEC1005     0.0000
      6  C3A       22.4030  109.1580  -30.5170 C.ar  1005  FEC1005     0.0000
      7  C2A       23.2560  108.1370  -30.6040 C.ar  1005  FEC1005     0.0000
      8  C1A       22.9770  107.2400  -29.5020 C.ar  1005  FEC1005     0.0000
      9  CHA       23.6480  106.0650  -29.2440 C.2   1005  FEC1005     0.0000
     10  C4D       23.4660  105.2690  -28.1340 C.2   1005  FEC1005     0.0000
     11  ND        22.5100  105.4930  -27.1580 N.2   1005  FEC1005     0.0000
     12  C1D       22.6760  104.4740  -26.2400 C.2   1005  FEC1005     0.0000
     13  CHD       21.9200  104.2950  -25.1030 C.2   1005  FEC1005     0.0000
     14  C4C       20.8410  105.0730  -24.7490 C.ar  1005  FEC1005     0.0000
     15  C3C       20.1480  104.9800  -23.4830 C.ar  1005  FEC1005     0.0000
     16  C2C       19.1760  105.8980  -23.4910 C.ar  1005  FEC1005     0.0000
     17  C1C       19.2460  106.5870  -24.7620 C.ar  1005  FEC1005     0.0000
     18  CHC       18.4130  107.6070  -25.1710 C.2   1005  FEC1005     0.0000
     19  C4B       18.6970  108.4970  -26.1860 C.2   1005  FEC1005     0.0000
     20  C3B       17.9300  109.6890  -26.4880 C.2   1005  FEC1005     0.0000
     21  C2B       18.5080  110.2680  -27.5430 C.2   1005  FEC1005     0.0000
     22  C1B       19.6560  109.4690  -27.9150 C.2   1005  FEC1005     0.0000
     23  NB        19.7560  108.3810  -27.0690 N.2   1005  FEC1005     0.0000
     24 FE         21.1610  106.9630  -27.0890 Fe    1005  FEC1005     0.0000
     25  NA        21.9200  107.7380  -28.7620 N.ar  1005  FEC1005     0.0000
     26  C4A       21.5440  108.9190  -29.3760 C.ar  1005  FEC1005     0.0000
     27  CHB       20.5110  109.7320  -28.9660 C.2   1005  FEC1005     0.0000
     28  NC        20.2810  106.0720  -25.5280 N.ar  1005  FEC1005     0.0000
     29  CMB       18.1040  111.5650  -28.2750 C.3   1005  FEC1005     0.0000
     30  CAB       16.6590  110.0870  -25.7180 C.2   1005  FEC1005     0.0000
     31  CBB       16.6390  111.3390  -24.8580 C.2   1005  FEC1005     0.0000
     32  CGB       15.3260  111.6520  -24.1790 C.2   1005  FEC1005     0.0000
     33  O1B       14.2720  111.5800  -24.8590 O.co2 1005  FEC1005     0.0000
     34  O2B       15.3710  111.9710  -22.9600 O.co2 1005  FEC1005     0.0000
     35  CAC       18.1730  106.2030  -22.3670 C.3   1005  FEC1005     0.0000
     36  CBC       16.6880  106.3640  -22.6490 C.3   1005  FEC1005     0.0000
     37  CGC       15.9210  107.1040  -21.5790 C.2   1005  FEC1005     0.0000
     38  O1C       14.8570  106.5840  -21.1570 O.co2 1005  FEC1005     0.0000
     39  O2C       16.4170  108.1940  -21.1870 O.co2 1005  FEC1005     0.0000
     40  CMC       20.5410  103.9670  -22.3860 C.3   1005  FEC1005     0.0000
     41  C2D       23.7570  103.6040  -26.6540 C.2   1005  FEC1005     0.0000
     42  C3D       24.2270  104.0810  -27.8070 C.2   1005  FEC1005     0.0000
     43  CAD       25.3940  103.5330  -28.6550 C.3   1005  FEC1005     0.0000
     44  CBD       26.8040  104.0060  -28.3160 C.3   1005  FEC1005     0.0000
     45  CGD       27.9320  103.0720  -28.6600 C.2   1005  FEC1005     0.0000
     46  O1D       28.7680  103.4750  -29.5110 O.co2 1005  FEC1005     0.0000
     47  O2D       27.9690  101.9620  -28.0640 O.co2 1005  FEC1005     0.0000
     48  CMD       24.2040  102.3670  -25.8460 C.3   1005  FEC1005     0.0000
     49  CMA       24.3800  107.8910  -31.6350 C.3   1005  FEC1005     0.0000
@<TRIPOS>BOND
     1     3     2   ar
     2     2     1   ar
     3     2     4    1
     4     4     5    2
     5    49     7    1
     6     5     6    1
     7     7     6   ar
     8     7     8   ar
     9     6    26   ar
    10    46    45   ar
    11     8     9    2
    12     8    25   ar
    13    26    27    2
    14    26    25   ar
    15     9    10    1
    16    27    22    1
    17    25    24    1
    18    45    44    1
    19    45    47   ar
    20    43    44    1
    21    43    42    1
    22    29    21    1
    23    10    42    1
    24    10    11    2
    25    22    21    1
    26    22    23    2
    27    42    41    2
    28    21    20    2
    29    11    24    1
    30    11    12    1
    31    24    23    1
    32    24    28    1
    33    23    19    1
    34    41    12    1
    35    41    48    1
    36    20    19    1
    37    20    30    1
    38    12    13    2
    39    19    18    2
    40    30    31    2
    41    28    17   ar
    42    28    14   ar
    43    18    17    1
    44    13    14    1
    45    33    32   ar
    46    31    32    1
    47    17    16   ar
    48    14    15   ar
    49    32    34   ar
    50    16    15   ar
    51    16    35    1
    52    15    40    1
    53    36    35    1
    54    36    37    1
    55    37    39   ar
    56    37    38   ar
