@<TRIPOS>MOLECULE
1nf7_RVP_A_1.pdb
 21 22 0 0 0
SMALL
GASTEIGER

@<TRIPOS>ATOM
      1  P         67.5900   51.6120   -5.6070 P.3   600  RVP600      0.5327
      2  O1P       67.2930   51.6510   -7.0780 O.2   600  RVP600     -0.2224
      3  O2P       68.7000   50.7290   -5.1140 O.3   600  RVP600     -0.1145
      4  O3P       67.9020   53.1520   -5.1210 O.3   600  RVP600     -0.1145
      5  O5'       66.1990   51.2540   -4.8020 O.3   600  RVP600     -0.2675
      6  C5'       65.4400   50.0830   -5.1410 C.3   600  RVP600      0.1859
      7  C4'       64.2190   49.9430   -4.2380 C.3   600  RVP600      0.1801
      8  O4'       63.2810   51.0540   -4.3560 O.3   600  RVP600     -0.3317
      9  C3'       63.4030   48.7180   -4.5560 C.3   600  RVP600      0.2159
     10  O3'       63.9970   47.5800   -3.9270 O.3   600  RVP600     -0.2175
     11  C2'       62.0710   49.0310   -3.9210 C.3   600  RVP600      0.2323
     12  O2'       62.1070   48.7640   -2.5200 O.3   600  RVP600     -0.2157
     13  C1'       61.9100   50.5350   -4.1200 C.3   600  RVP600      0.2437
     14  N9        61.0410   50.8310   -5.3080 N.pl3 600  RVP600     -0.1720
     15  C8        60.9640   50.1420   -6.4740 C.3   600  RVP600      0.2500
     16  N7        60.0310   50.8000   -7.2270 N.2   600  RVP600     -0.1909
     17  C5        59.6560   51.8000   -6.4330 C.1   600  RVP600      0.1072
     18  C6        58.5920   52.8440   -6.8190 C.2   600  RVP600      0.3485
     19  O6        57.9440   52.7280   -7.8640 O.2   600  RVP600     -0.2552
     20  N1        58.4250   53.8380   -5.9360 N.am  600  RVP600     -0.0743
     21  N4        60.2840   51.7870   -5.2910 N.2   600  RVP600     -0.1198
@<TRIPOS>BOND
     1    19    18    2
     2    16    15    1
     3    16    17    2
     4     2     1    2
     5    18    17    1
     6    18    20   am
     7    15    14    1
     8    17    21    2
     9     1     4    1
    10     1     3    1
    11     1     5    1
    12    14    21    1
    13    14    13    1
    14     6     5    1
    15     6     7    1
    16     9     7    1
    17     9    10    1
    18     9    11    1
    19     8     7    1
    20     8    13    1
    21    13    11    1
    22    11    12    1
