@<TRIPOS>MOLECULE
1nf7_MYD_A_1.pdb
 43 47 0 0 0
SMALL
GASTEIGER

@<TRIPOS>ATOM
      1  C53       55.3800   48.0390   -3.6490 C.3   701  MYD701      0.2524
      2  O51       56.7160   48.5180   -3.7950 O.3   701  MYD701     -0.4720
      3  C46       57.1810   49.7460   -3.2300 C.ar  701  MYD701      0.1336
      4  C47       58.2360   49.7030   -2.2900 C.ar  701  MYD701      0.0117
      5  C52       58.8550   48.3510   -1.9090 C.3   701  MYD701      0.0340
      6  C48       58.7320   50.9000   -1.7040 C.ar  701  MYD701      0.0296
      7  C49       59.8690   51.1150   -0.6620 C.3   701  MYD701      0.2355
      8  O50       59.8320   52.5660   -0.5120 O.3   701  MYD701     -0.4404
      9  C42       58.8220   53.1380   -1.3460 C.2   701  MYD701      0.3445
     10  O43       58.5920   54.3630   -1.3990 O.2   701  MYD701     -0.2448
     11  C41       58.1450   52.1410   -2.0710 C.ar  701  MYD701      0.1135
     12  C40       57.0910   52.1810   -3.0160 C.ar  701  MYD701      0.2006
     13  O31       56.5450   53.3930   -3.3460 O.3   701  MYD701     -0.2866
     14  C39       56.5860   50.9810   -3.6150 C.ar  701  MYD701      0.0530
     15  C38       55.4230   51.0320   -4.6340 C.3   701  MYD701      0.0653
     16  C37       54.0920   51.1950   -3.8850 C.3   701  MYD701      0.1563
     17  O36       53.7780   50.1340   -2.9670 O.3   701  MYD701     -0.2919
     18  P35       52.4360   50.3780   -2.0720 P.3   701  MYD701      0.3820
     19  O45       51.4220   50.6240   -3.3470 O.2   701  MYD701     -0.2548
     20  O30       52.6060   51.7220   -1.4560 O.3   701  MYD701     -0.1392
     21  C34       52.0620   49.4710   -1.1430 C.3   701  MYD701      0.2353
     22  P33       51.2220   48.5070   -1.5820 P.3   701  MYD701      0.3820
     23  O44       50.9280   47.2560   -0.5260 O.3   701  MYD701     -0.1392
     24  O29       51.5980   47.8000   -2.8630 O.2   701  MYD701     -0.2548
     25  O32       49.6190   48.9650   -1.8390 O.3   701  MYD701     -0.2896
     26  C28       48.9030   49.2920   -0.6540 C.3   701  MYD701      0.1836
     27  C27       47.4160   49.4780   -0.6520 C.3   701  MYD701      0.1822
     28  O24       46.7380   48.3040   -1.2460 O.3   701  MYD701     -0.3135
     29  C26       46.8320   49.7430    0.8310 C.3   701  MYD701      0.2184
     30  O25       46.9450   51.1450    0.9860 O.3   701  MYD701     -0.2174
     31  C22       45.3620   49.4400    0.4030 C.3   701  MYD701      0.2570
     32  O21       44.7000   50.5520   -0.3210 O.3   701  MYD701     -0.2130
     33  C23       45.5000   48.1270   -0.4650 C.3   701  MYD701      0.3186
     34  N20       45.6970   46.9410    0.3900 N.pl3 701  MYD701     -0.1439
     35  C16       46.7880   46.3360    0.7870 C.3   701  MYD701      0.3377
     36  N15       46.4730   45.1460    1.3510 N.2   701  MYD701     -0.2095
     37  C14       45.1050   45.0250    1.3540 C.2   701  MYD701      0.2526
     38  C19       44.6040   46.1620    0.7500 C.2   701  MYD701      0.3518
     39  N18       43.2500   46.3000    0.5940 N.2   701  MYD701     -0.0055
     40  C17       42.3960   45.3960    1.0810 C.3   701  MYD701      0.5254
     41  N12       42.8570   44.3230    1.7160 N.2   701  MYD701      0.0021
     42  C13       44.1870   44.1080    1.8850 C.2   701  MYD701      0.4393
     43  N11       44.6200   43.0550    2.6060 N.pl3 701  MYD701      0.2180
@<TRIPOS>BOND
     1    15    16    1
     2    15    14    1
     3    16    17    1
     4     2     1    1
     5     2     3    1
     6    14     3   ar
     7    14    12   ar
     8    19    18    2
     9    13    12    1
    10     3     4   ar
    11    12    11   ar
    12    17    18    1
    13    24    22    2
    14     4     5    1
    15     4     6   ar
    16    18    20    1
    17    18    21    1
    18    11     6   ar
    19    11     9    1
    20    25    22    1
    21    25    26    1
    22     6     7    1
    23    22    21    1
    24    22    23    1
    25    10     9    2
    26     9     8    1
    27    28    27    1
    28    28    33    1
    29     7     8    1
    30    26    27    1
    31    27    29    1
    32    33    34    1
    33    33    31    1
    34    32    31    1
    35    34    38    1
    36    34    35    1
    37    31    29    1
    38    39    38    2
    39    39    40    1
    40    38    37    1
    41    35    36    1
    42    29    30    1
    43    40    41    1
    44    36    37    2
    45    37    42    1
    46    41    42    2
    47    42    43    1
