@<TRIPOS>MOLECULE
1nf8_ISC_A_1.pdb
 16 16 0 0 0
SMALL
GASTEIGER

@<TRIPOS>ATOM
      1  C          6.0480   21.6670   76.5190 C.2   220  ISC220      0.3863
      2  C1         6.0430   20.8580   75.2370 C.2   220  ISC220      0.0902
      3  O1         6.2470   21.2140   77.6550 O.co2 220  ISC220     -0.2408
      4  C2         5.8600   21.4630   73.8410 C.3   220  ISC220      0.2117
      5  O2         5.8480   22.8860   76.3170 O.co2 220  ISC220     -0.2408
      6  C3         6.2820   20.7470   72.7800 C.3   220  ISC220      0.1725
      7  O3         4.6730   22.1250   73.7890 O.3   220  ISC220     -0.2151
      8  C4         6.1200   19.2830   72.8920 C.2   220  ISC220      0.0058
      9  C5         6.0980   18.6590   74.1370 C.2   220  ISC220     -0.0021
     10  C6         6.1280   19.3940   75.3370 C.2   220  ISC220      0.0046
     11  C1'        7.7890   20.2940   70.1780 C.2   220  ISC220      0.3913
     12  O1'        7.9580   19.2460   69.5050 O.co2 220  ISC220     -0.2430
     13  C2'        8.3640   20.4100   71.4990 C.3   220  ISC220      0.2181
     14  O2'        6.9450   21.1680   69.8900 O.co2 220  ISC220     -0.2430
     15  C3'        9.7130   19.9490   71.6550 C.3   220  ISC220      0.0444
     16  O3'        7.6690   20.9510   72.5440 O.3   220  ISC220     -0.3401
@<TRIPOS>BOND
     1    12    11   ar
     2    14    11   ar
     3    11    13    1
     4    13    15    1
     5    13    16    1
     6    16     6    1
     7     6     8    1
     8     6     4    1
     9     8     9    2
    10     7     4    1
    11     4     2    1
    12     9    10    1
    13     2    10    2
    14     2     1    1
    15     5     1   ar
    16     1     3   ar
