@<TRIPOS>MOLECULE
1nfb_NAD_A_1.pdb
 44 48 0 0 0
SMALL
GASTEIGER

@<TRIPOS>ATOM
      1  PA        95.3910   48.0330    2.9160 P.3   701  NAD701      0.2189
      2  O1A       94.6060   48.0810    1.6600 O.2   701  NAD701     -0.5170
      3  O2A       95.2430   46.8370    3.7770 O.3   701  NAD701     -0.4371
      4  O5B       96.9670   48.2300    2.5920 O.3   701  NAD701     -0.3112
      5  C5B       97.5890   49.5210    2.7390 C.3   701  NAD701      0.1813
      6  C4B       98.7770   49.6780    1.7930 C.3   701  NAD701      0.1821
      7  O4B       99.9520   48.8510    2.1110 O.3   701  NAD701     -0.3135
      8  C3B       98.3730   49.3300    0.3710 C.3   701  NAD701      0.2184
      9  O3B       97.7540   50.4990   -0.2360 O.3   701  NAD701     -0.2174
     10  C2B       99.6870   48.9870   -0.2850 C.3   701  NAD701      0.2570
     11  O2B      100.3260   50.1780   -0.7250 O.3   701  NAD701     -0.2130
     12  C1B      100.5400   48.3720    0.8390 C.3   701  NAD701      0.3186
     13  N9A      100.4900   46.8860    0.8720 N.pl3 701  NAD701     -0.1439
     14  C8A       99.4180   46.1110    1.1020 C.3   701  NAD701      0.3377
     15  N7A       99.7830   44.8280    1.0660 N.2   701  NAD701     -0.2095
     16  C5A      101.0870   44.7880    0.8140 C.2   701  NAD701      0.2526
     17  C6A      102.0420   43.7620    0.6570 C.2   701  NAD701      0.4393
     18  N6A      101.6910   42.4900    0.7610 N.pl3 701  NAD701      0.2180
     19  N1A      103.3470   44.0810    0.3950 N.2   701  NAD701      0.0021
     20  C2A      103.7480   45.3620    0.2810 C.3   701  NAD701      0.5254
     21  N3A      102.8490   46.3560    0.4270 N.2   701  NAD701     -0.0055
     22  C4A      101.5320   46.0970    0.6900 C.2   701  NAD701      0.3518
     23  O3        95.0490   49.3440    3.8150 O.3   701  NAD701     -0.2703
     24  PN        94.0740   50.5470    3.2960 P.3   701  NAD701      0.2189
     25  O1N       92.6680   50.0510    3.2750 O.3   701  NAD701     -0.4371
     26  O2N       94.6190   51.1440    2.0510 O.2   701  NAD701     -0.5170
     27  O5D       94.2010   51.6530    4.5220 O.3   701  NAD701     -0.3112
     28  C5D       94.5320   51.2990    5.9240 C.3   701  NAD701      0.1813
     29  C4D       93.4610   50.3920    6.5950 C.3   701  NAD701      0.1799
     30  O4D       92.1130   50.9360    6.4510 O.3   701  NAD701     -0.3327
     31  C3D       93.4160   48.9930    6.0030 C.3   701  NAD701      0.2158
     32  O3D       94.3290   48.1210    6.6830 O.3   701  NAD701     -0.2175
     33  C2D       91.9860   48.5340    6.1770 C.3   701  NAD701      0.2309
     34  O2D       91.8670   47.6210    7.2760 O.3   701  NAD701     -0.2158
     35  C1D       91.1490   49.8280    6.4300 C.3   701  NAD701      0.2263
     36  N1N       90.0360   50.0670    5.4220 N.pl3 701  NAD701     -0.2787
     37  C2N       89.2090   48.9840    5.0930 C.3   701  NAD701      0.1244
     38  C3N       88.1640   49.1190    4.1830 C.2   701  NAD701      0.0544
     39  C7N       87.3340   47.8780    3.9230 C.2   701  NAD701      0.2818
     40  O7N       86.6560   47.7450    2.9280 O.2   701  NAD701     -0.2670
     41  N7N       87.3690   46.9990    4.8980 N.am  701  NAD701     -0.0839
     42  C4N       87.9180   50.3770    3.5600 C.2   701  NAD701      0.0033
     43  C5N       88.7280   51.5060    3.8640 C.2   701  NAD701      0.0157
     44  C6N       89.7980   51.3630    4.8020 C.2   701  NAD701      0.0633
@<TRIPOS>BOND
     1    11    10    1
     2    10     8    1
     3    10    12    1
     4     9     8    1
     5    20    19    1
     6    20    21    1
     7     8     6    1
     8    19    17    2
     9    21    22    2
    10    17    18    1
    11    17    16    1
    12    22    16    1
    13    22    13    1
    14    16    15    2
    15    12    13    1
    16    12     7    1
    17    13    14    1
    18    15    14    1
    19     2     1    2
    20     6     7    1
    21     6     5    1
    22    26    24    2
    23     4     5    1
    24     4     1    1
    25     1     3    1
    26     1    23    1
    27    40    39    2
    28    25    24    1
    29    24    23    1
    30    24    27    1
    31    42    43    1
    32    42    38    2
    33    43    44    2
    34    39    38    1
    35    39    41   am
    36    38    37    1
    37    27    28    1
    38    44    36    1
    39    37    36    1
    40    36    35    1
    41    28    29    1
    42    31    33    1
    43    31    29    1
    44    31    32    1
    45    33    35    1
    46    33    34    1
    47    35    30    1
    48    30    29    1
