@<TRIPOS>MOLECULE
1nfb_CPR_A_1.pdb
 22 24 0 0 0
SMALL
GASTEIGER

@<TRIPOS>ATOM
      1  P         78.5120   51.6890    7.5480 P.3   631  CPR631      0.5327
      2  O1P       77.9120   50.5110    8.2040 O.3   631  CPR631     -0.1145
      3  O2P       78.5580   52.9600    8.2870 O.3   631  CPR631     -0.1145
      4  O3P       77.8060   51.9390    6.1320 O.2   631  CPR631     -0.2224
      5  O5'       80.0090   51.3520    7.1110 O.3   631  CPR631     -0.2675
      6  C5'       80.5110   50.0300    7.1210 C.3   631  CPR631      0.1860
      7  C4'       81.6110   49.9520    6.0960 C.3   631  CPR631      0.1823
      8  O4'       82.5390   51.0680    6.2280 O.3   631  CPR631     -0.3135
      9  C3'       82.4570   48.7170    6.2070 C.3   631  CPR631      0.2184
     10  O3'       81.8660   47.6210    5.5070 O.3   631  CPR631     -0.2174
     11  C2'       83.7130   49.1360    5.5270 C.3   631  CPR631      0.2570
     12  O2'       83.5350   49.1250    4.1140 O.3   631  CPR631     -0.2130
     13  C1'       83.9020   50.5770    5.9890 C.3   631  CPR631      0.3186
     14  N9        84.6430   50.6380    7.2880 N.pl3 631  CPR631     -0.1440
     15  C8        84.3210   50.0160    8.4340 C.3   631  CPR631      0.3373
     16  N7        85.2330   50.3160    9.3680 N.2   631  CPR631     -0.2187
     17  C5        86.1220   51.1250    8.8220 C.2   631  CPR631      0.1644
     18  C6        87.2780   51.7500    9.2920 C.3   631  CPR631      0.1822
     19  N1        87.9810   52.5290    8.4630 N.2   631  CPR631     -0.2189
     20  C2        87.6050   52.7110    7.1900 C.2   631  CPR631      0.3347
     21  N3        86.5030   52.1220    6.7140 N.2   631  CPR631     -0.0132
     22  C4        85.7570   51.3230    7.5030 C.2   631  CPR631      0.3444
@<TRIPOS>BOND
     1    12    11    1
     2    10     9    1
     3    11    13    1
     4    11     9    1
     5    13     8    1
     6    13    14    1
     7     7     9    1
     8     7     8    1
     9     7     6    1
    10     4     1    2
    11    21    20    1
    12    21    22    2
    13     5     6    1
    14     5     1    1
    15    20    19    2
    16    14    22    1
    17    14    15    1
    18    22    17    1
    19     1     2    1
    20     1     3    1
    21    15    16    1
    22    19    18    1
    23    17    18    1
    24    17    16    2
