@<TRIPOS>MOLECULE
1nff_NAD_A_1.pdb
 44 48 0 0 0
SMALL
GASTEIGER

@<TRIPOS>ATOM
      1  PA         2.9660   43.4980   52.2540 P.3   1300  NAD1300     0.2189
      2  O1A        2.9810   44.1970   50.9480 O.2   1300  NAD1300    -0.5170
      3  O2A        2.7970   44.3830   53.4380 O.3   1300  NAD1300    -0.4371
      4  O5B        4.3390   42.7570   52.4810 O.3   1300  NAD1300    -0.3112
      5  C5B        4.8330   41.8550   51.4760 C.3   1300  NAD1300     0.1813
      6  C4B        6.3210   41.9900   51.6650 C.3   1300  NAD1300     0.1821
      7  O4B        7.0300   41.1840   50.6610 O.3   1300  NAD1300    -0.3135
      8  C3B        6.8580   43.4270   51.5170 C.3   1300  NAD1300     0.2184
      9  O3B        7.7330   43.7730   52.6300 O.3   1300  NAD1300    -0.2174
     10  C2B        7.5200   43.3310   50.1640 C.3   1300  NAD1300     0.2570
     11  O2B        8.5410   44.3280   49.9930 O.3   1300  NAD1300    -0.2130
     12  C1B        8.0840   41.9100   50.1790 C.3   1300  NAD1300     0.3186
     13  N9A        8.3940   41.4800   48.8360 N.pl3 1300  NAD1300    -0.1439
     14  C8A        7.6640   41.6840   47.6930 C.3   1300  NAD1300     0.3377
     15  N7A        8.2420   41.1680   46.6000 N.2   1300  NAD1300    -0.2095
     16  C5A        9.4020   40.6100   47.1080 C.2   1300  NAD1300     0.2526
     17  C6A       10.4740   39.9050   46.4810 C.2   1300  NAD1300     0.4393
     18  N6A       10.5440   39.6440   45.1810 N.pl3 1300  NAD1300     0.2180
     19  N1A       11.5050   39.4680   47.2830 N.2   1300  NAD1300     0.0021
     20  C2A       11.4420   39.7350   48.6330 C.3   1300  NAD1300     0.5254
     21  N3A       10.4900   40.3820   49.2870 N.2   1300  NAD1300    -0.0055
     22  C4A        9.5020   40.7930   48.4780 C.2   1300  NAD1300     0.3518
     23  O3         1.8450   42.3650   52.1760 O.3   1300  NAD1300    -0.2703
     24  PN         1.3190   41.4900   53.4230 P.3   1300  NAD1300     0.2189
     25  O1N       -0.0810   41.7370   53.8020 O.2   1300  NAD1300    -0.5170
     26  O2N        2.2510   41.6810   54.5850 O.3   1300  NAD1300    -0.4371
     27  O5D        1.3270   40.0290   52.8140 O.3   1300  NAD1300    -0.3112
     28  C5D        2.4310   39.1160   53.0520 C.3   1300  NAD1300     0.1813
     29  C4D        2.0100   37.8020   52.4300 C.3   1300  NAD1300     0.1799
     30  O4D        0.6870   37.4900   52.9590 O.3   1300  NAD1300    -0.3327
     31  C3D        1.8660   37.7210   50.8980 C.3   1300  NAD1300     0.2158
     32  O3D        2.2300   36.3890   50.4580 O.3   1300  NAD1300    -0.2175
     33  C2D        0.3820   37.9340   50.6810 C.3   1300  NAD1300     0.2309
     34  O2D       -0.0600   37.4180   49.4060 O.3   1300  NAD1300    -0.2158
     35  C1D       -0.1890   37.2020   51.8750 C.3   1300  NAD1300     0.2263
     36  N1N       -1.5830   37.5650   52.1900 N.pl3 1300  NAD1300    -0.2787
     37  C2N       -1.9640   38.9010   52.4980 C.3   1300  NAD1300     0.1244
     38  C3N       -3.3620   39.2470   52.8160 C.2   1300  NAD1300     0.0544
     39  C7N       -3.6610   40.6800   53.1210 C.2   1300  NAD1300     0.2818
     40  O7N       -4.8630   40.8830   53.3680 O.2   1300  NAD1300    -0.2670
     41  N7N       -2.7350   41.6790   53.1340 N.am  1300  NAD1300    -0.0839
     42  C4N       -4.3860   38.1690   52.8170 C.2   1300  NAD1300     0.0033
     43  C5N       -3.8920   36.7810   52.4880 C.2   1300  NAD1300     0.0157
     44  C6N       -2.6030   36.5560   52.2080 C.2   1300  NAD1300     0.0633
@<TRIPOS>BOND
     1    18    17    1
     2    17    16    1
     3    17    19    2
     4    15    16    2
     5    15    14    1
     6    16    22    1
     7    19    20    1
     8    14    13    1
     9    22    13    1
    10    22    21    2
    11    20    21    1
    12    13    12    1
    13    34    33    1
    14    11    10    1
    15    10    12    1
    16    10     8    1
    17    12     7    1
    18    32    31    1
    19     7     6    1
    20    33    31    1
    21    33    35    1
    22    31    29    1
    23     2     1    2
    24     5     6    1
    25     5     4    1
    26     8     6    1
    27     8     9    1
    28    35    36    1
    29    35    30    1
    30    23     1    1
    31    23    24    1
    32    36    44    1
    33    36    37    1
    34    44    43    2
    35     1     4    1
    36     1     3    1
    37    29    30    1
    38    29    28    1
    39    43    42    1
    40    37    38    1
    41    27    28    1
    42    27    24    1
    43    38    42    2
    44    38    39    1
    45    39    41   am
    46    39    40    2
    47    24    25    2
    48    24    26    1
