@<TRIPOS>MOLECULE
1nfp_FMN_A_1.pdb
 31 33 0 0 0
SMALL
GASTEIGER

@<TRIPOS>ATOM
      1  N1         9.8940    7.3680   14.2130 N.2   229  FMN229     -0.2887
      2  C2         9.5560    6.6070   13.1830 C.1   229  FMN229      0.3669
      3  O2         9.2670    5.4570   13.2810 O.2   229  FMN229     -0.1744
      4  N3         9.4910    7.1200   11.8500 N.2   229  FMN229     -0.2300
      5  C4         9.7780    8.4180   11.5770 C.1   229  FMN229      0.2513
      6  O4         9.7200    8.8350   10.4410 O.2   229  FMN229     -0.2057
      7  C4A       10.1340    9.2480   12.6920 C.2   229  FMN229      0.2706
      8  N5        10.3950   10.5330   12.5260 N.2   229  FMN229     -0.3841
      9  C5A       10.7190   11.3490   13.5590 C.2   229  FMN229      0.1452
     10  C6        11.0170   12.6870   13.3200 C.2   229  FMN229      0.0252
     11  C7        11.2720   13.5190   14.3670 C.2   229  FMN229     -0.0375
     12  C7M       11.5880   15.0140   14.2270 C.3   229  FMN229      0.0268
     13  C8        11.2640   13.0020   15.7190 C.3   229  FMN229      0.0417
     14  C8M       11.5410   13.8700   16.9130 C.3   229  FMN229      0.0091
     15  C9        10.9760   11.6740   15.9400 C.2   229  FMN229     -0.0049
     16  C9A       10.6930   10.8370   14.8930 C.2   229  FMN229      0.0795
     17  N10       10.4300    9.4720   15.0370 N.pl3 229  FMN229     -0.2545
     18  C10       10.1750    8.6450   14.0300 C.2   229  FMN229      0.2449
     19  C1'       10.3760    8.8770   16.4170 C.3   229  FMN229      0.1336
     20  C2'       11.8380    8.5930   16.9120 C.3   229  FMN229      0.2048
     21  O2'       12.4080    7.7370   15.9320 O.3   229  FMN229     -0.2185
     22  C3'       11.7490    7.9260   18.2680 C.3   229  FMN229      0.2165
     23  O3'       11.1810    6.6550   18.1210 O.3   229  FMN229     -0.2175
     24  C4'       10.9300    8.7790   19.2450 C.3   229  FMN229      0.2147
     25  O4'       11.5810   10.0970   19.3330 O.3   229  FMN229     -0.2176
     26  C5'       10.9120    8.1320   20.6360 C.3   229  FMN229      0.1892
     27  O5'       12.4140    8.0980   21.1100 O.3   229  FMN229     -0.2674
     28  P         12.9590    7.5320   22.4350 P.3   229  FMN229      0.5327
     29  O1P       13.9180    8.6960   22.8600 O.3   229  FMN229     -0.1145
     30  O2P       11.8920    7.3570   23.3340 O.3   229  FMN229     -0.1145
     31  O3P       13.5610    6.2620   22.1900 O.2   229  FMN229     -0.2224
@<TRIPOS>BOND
     1     6     5    2
     2     5     4    2
     3     5     7    1
     4     4     2    2
     5     8     7    2
     6     8     9    2
     7     7    18    1
     8     2     3    2
     9     2     1    2
    10    10     9    1
    11    10    11    2
    12     9    16    1
    13    18     1    2
    14    18    17    1
    15    12    11    1
    16    11    13    1
    17    16    17    1
    18    16    15    2
    19    17    19    1
    20    13    15    1
    21    13    14    1
    22    21    20    1
    23    19    20    1
    24    20    22    1
    25    23    22    1
    26    22    24    1
    27    24    25    1
    28    24    26    1
    29    26    27    1
    30    27    28    1
    31    31    28    2
    32    28    29    1
    33    28    30    1
