@<TRIPOS>MOLECULE
1nfq_NAI_A_1.pdb
 44 48 0 0 0
SMALL
GASTEIGER

@<TRIPOS>ATOM
      1  PA         7.7850   53.3130   13.3640 P.3   300  NAI300      0.2189
      2  O1A        7.3390   54.3250   12.3770 O.2   300  NAI300     -0.5170
      3  O2A        6.7010   52.8310   14.2650 O.3   300  NAI300     -0.4371
      4  O5B        8.8960   53.9340   14.3260 O.3   300  NAI300     -0.3112
      5  C5B       10.0970   54.5440   13.7950 C.3   300  NAI300      0.1813
      6  C4B       10.4060   55.5570   14.8750 C.3   300  NAI300      0.1821
      7  O4B       11.5810   56.3680   14.5260 O.3   300  NAI300     -0.3135
      8  C3B        9.2590   56.5390   15.1450 C.3   300  NAI300      0.2184
      9  O3B        8.8710   56.5110   16.5510 O.3   300  NAI300     -0.2174
     10  C2B        9.8540   57.8400   14.6270 C.3   300  NAI300      0.2570
     11  O2B        9.3250   58.9840   15.3010 O.3   300  NAI300     -0.2130
     12  C1B       11.3610   57.6780   14.8710 C.3   300  NAI300      0.3186
     13  N9A       12.1050   58.5490   13.9750 N.pl3 300  NAI300     -0.1439
     14  C8A       11.7800   58.8860   12.6830 C.3   300  NAI300      0.3377
     15  N7A       12.6590   59.7190   12.1140 N.2   300  NAI300     -0.2095
     16  C5A       13.5980   59.9090   13.1160 C.2   300  NAI300      0.2526
     17  C6A       14.7960   60.6910   13.1600 C.2   300  NAI300      0.4393
     18  N6A       15.2500   61.4430   12.1510 N.pl3 300  NAI300      0.2180
     19  N1A       15.5280   60.6620   14.3280 N.2   300  NAI300      0.0021
     20  C2A       15.0700   59.8930   15.3740 C.3   300  NAI300      0.5254
     21  N3A       13.9710   59.1520   15.4140 N.2   300  NAI300     -0.0055
     22  C4A       13.2820   59.1860   14.2600 C.2   300  NAI300      0.3518
     23  O3         8.4920   52.1070   12.5680 O.3   300  NAI300     -0.2703
     24  PN         8.7080   50.5970   13.1330 P.3   300  NAI300      0.2189
     25  O1N        7.7940   49.5870   12.5610 O.2   300  NAI300     -0.5170
     26  O2N        8.6320   50.6140   14.6380 O.3   300  NAI300     -0.4371
     27  O5D       10.1660   50.3100   12.5450 O.3   300  NAI300     -0.3112
     28  C5D       11.3680   50.7300   13.2650 C.3   300  NAI300      0.1813
     29  C4D       12.5620   50.2450   12.4600 C.3   300  NAI300      0.1799
     30  O4D       12.3310   48.8580   12.0640 O.3   300  NAI300     -0.3327
     31  C3D       12.8740   51.0030   11.1650 C.3   300  NAI300      0.2158
     32  O3D       14.3140   51.0400   10.9870 O.3   300  NAI300     -0.2175
     33  C2D       12.2310   50.1320   10.0950 C.3   300  NAI300      0.2309
     34  O2D       12.8150   50.3570    8.7960 O.3   300  NAI300     -0.2158
     35  C1D       12.4880   48.7440   10.6470 C.3   300  NAI300      0.2263
     36  N1N       11.6010   47.6960   10.0950 N.pl3 300  NAI300     -0.2787
     37  C2N       10.1830   47.7530   10.2290 C.3   300  NAI300      0.1244
     38  C3N        9.3050   46.6900    9.6760 C.2   300  NAI300      0.0544
     39  C7N        7.8250   46.8370    9.8710 C.2   300  NAI300      0.2818
     40  O7N        7.1630   45.9010    9.3740 O.2   300  NAI300     -0.2670
     41  N7N        7.2290   47.8790   10.5240 N.am  300  NAI300     -0.0839
     42  C4N        9.9360   45.5450    8.9670 C.2   300  NAI300      0.0033
     43  C5N       11.4460   45.5680    8.8730 C.2   300  NAI300      0.0157
     44  C6N       12.1580   46.5710    9.4060 C.2   300  NAI300      0.0633
@<TRIPOS>BOND
     1    34    33    1
     2    43    42    1
     3    43    44    2
     4    42    38    2
     5    40    39    2
     6    44    36    1
     7    38    39    1
     8    38    37    1
     9    39    41   am
    10    36    37    1
    11    36    35    1
    12    33    35    1
    13    33    31    1
    14    35    30    1
    15    32    31    1
    16    31    29    1
    17    30    29    1
    18    15    14    1
    19    15    16    2
    20    18    17    1
    21     2     1    2
    22    29    28    1
    23    27    24    1
    24    27    28    1
    25    25    24    2
    26    23    24    1
    27    23     1    1
    28    14    13    1
    29    16    17    1
    30    16    22    1
    31    24    26    1
    32    17    19    2
    33     1     3    1
    34     1     4    1
    35     5     4    1
    36     5     6    1
    37    13    22    1
    38    13    12    1
    39    22    21    2
    40    19    20    1
    41     7    12    1
    42     7     6    1
    43    10    12    1
    44    10     8    1
    45    10    11    1
    46     6     8    1
    47     8     9    1
    48    20    21    1
