@<TRIPOS>MOLECULE
1nfq_AE2_A_1.pdb
 21 24 0 0 0
SMALL
GASTEIGER

@<TRIPOS>ATOM
      1  C1         6.2610   45.5830    3.3630 C.3   401  AE2401      0.0084
      2  C2         7.0490   45.6410    4.8760 C.3   401  AE2401      0.0688
      3  C3         8.1910   46.8190    4.8870 C.2   401  AE2401      0.1689
      4  O3         9.2250   46.8640    5.8770 O.2   401  AE2401     -0.2917
      5  C4         8.2580   47.9030    3.9350 C.2   401  AE2401      0.0109
      6  C5         7.2650   47.9510    2.7170 C.3   401  AE2401      0.0249
      7  C6         7.3950   49.1860    1.8260 C.3   401  AE2401      0.0044
      8  C7         6.9860   49.1440    0.2170 C.3   401  AE2401      0.0003
      9  C8         5.7620   48.2640   -0.0500 C.3   401  AE2401      0.0001
     10  C9         5.9250   46.6910    0.6700 C.3   401  AE2401      0.0003
     11  C10        6.1380   46.8640    2.3610 C.3   401  AE2401      0.0043
     12  C11        4.5150   45.7550    0.2320 C.3   401  AE2401      0.0001
     13  C12        4.4280   45.8320   -1.4280 C.3   401  AE2401      0.0024
     14  C13        4.3770   47.3790   -2.0840 C.3   401  AE2401      0.0282
     15  C14        5.5240   48.2550   -1.6700 C.3   401  AE2401      0.0024
     16  C15        5.2380   49.6610   -2.6060 C.3   401  AE2401      0.0027
     17  C16        4.4590   49.1340   -3.9810 C.3   401  AE2401      0.0329
     18  C17        4.4370   47.5050   -3.6480 C.3   401  AE2401      0.1519
     19  O17        3.4120   46.7640   -4.3170 O.3   401  AE2401     -0.2232
     20  C18        2.8660   47.8230   -1.5300 C.3   401  AE2401      0.0025
     21  C19        4.7890   47.5200    3.0120 C.3   401  AE2401      0.0003
@<TRIPOS>BOND
     1    19    18    1
     2    17    18    1
     3    17    16    1
     4    18    14    1
     5    16    15    1
     6    14    15    1
     7    14    20    1
     8    14    13    1
     9    15     9    1
    10    13    12    1
    11     9     8    1
    12     9    10    1
    13     8     7    1
    14    12    10    1
    15    10    11    1
    16     7     6    1
    17    11     6    1
    18    11    21    1
    19    11     1    1
    20     6     5    1
    21     1     2    1
    22     5     3    2
    23     2     3    1
    24     3     4    1
