@<TRIPOS>MOLECULE
1nfr_NAD_A_1.pdb
 44 48 0 0 0
SMALL
GASTEIGER

@<TRIPOS>ATOM
      1  PA        21.3240    5.4360   43.1710 P.3   300  NAD300      0.2189
      2  O1A       20.9080    4.4960   44.2300 O.3   300  NAD300     -0.4371
      3  O2A       20.2720    5.7550   42.1770 O.2   300  NAD300     -0.5170
      4  O5B       22.4960    4.8360   42.3160 O.3   300  NAD300     -0.3112
      5  C5B       23.7000    4.3530   42.9470 C.3   300  NAD300      0.1813
      6  C4B       24.1250    3.3310   41.9270 C.3   300  NAD300      0.1821
      7  O4B       25.3190    2.6080   42.3610 O.3   300  NAD300     -0.3135
      8  C3B       23.0620    2.2780   41.6230 C.3   300  NAD300      0.2184
      9  O3B       22.8830    2.1300   40.1870 O.3   300  NAD300     -0.2174
     10  C2B       23.6330    1.0910   42.3590 C.3   300  NAD300      0.2570
     11  O2B       23.1160   -0.1450   41.8430 O.3   300  NAD300     -0.2130
     12  C1B       25.1440    1.2660   42.1280 C.3   300  NAD300      0.3186
     13  N9A       25.9130    0.5350   43.1100 N.pl3 300  NAD300     -0.1439
     14  C8A       25.6250    0.3510   44.4400 C.3   300  NAD300      0.3377
     15  N7A       26.5380   -0.3940   45.0850 N.2   300  NAD300     -0.2095
     16  C5A       27.4460   -0.6910   44.0820 C.2   300  NAD300      0.2526
     17  C6A       28.6520   -1.4530   44.0850 C.2   300  NAD300      0.4393
     18  N6A       29.1570   -2.0690   45.1560 N.pl3 300  NAD300      0.2180
     19  N1A       29.3430   -1.5550   42.8990 N.2   300  NAD300      0.0021
     20  C2A       28.8350   -0.9250   41.7820 C.3   300  NAD300      0.5254
     21  N3A       27.7230   -0.2060   41.6940 N.2   300  NAD300     -0.0055
     22  C4A       27.0750   -0.1220   42.8660 C.2   300  NAD300      0.3518
     23  O3        21.9200    6.7320   43.8860 O.3   300  NAD300     -0.2703
     24  PN        22.1750    8.1520   43.1710 P.3   300  NAD300      0.2189
     25  O1N       21.3340    9.2540   43.6760 O.3   300  NAD300     -0.4371
     26  O2N       22.0580    7.9860   41.6780 O.2   300  NAD300     -0.5170
     27  O5D       23.6300    8.4790   43.6900 O.3   300  NAD300     -0.3112
     28  C5D       24.8170    8.0900   42.9730 C.3   300  NAD300      0.1813
     29  C4D       25.9580    8.6890   43.7760 C.3   300  NAD300      0.1799
     30  O4D       25.6480   10.0860   44.0550 O.3   300  NAD300     -0.3327
     31  C3D       26.2870    8.0620   45.1370 C.3   300  NAD300      0.2158
     32  O3D       27.7120    8.0750   45.3400 O.3   300  NAD300     -0.2175
     33  C2D       25.6050    9.0010   46.1230 C.3   300  NAD300      0.2309
     34  O2D       26.1810    8.9150   47.4390 O.3   300  NAD300     -0.2158
     35  C1D       25.8150   10.3320   45.4480 C.3   300  NAD300      0.2263
     36  N1N       24.9170   11.4070   45.9250 N.pl3 300  NAD300     -0.2787
     37  C2N       23.4970   11.3190   45.8340 C.3   300  NAD300      0.1244
     38  C3N       22.6220   12.4120   46.3160 C.2   300  NAD300      0.0544
     39  C7N       21.1490   12.2280   46.1760 C.2   300  NAD300      0.2818
     40  O7N       20.4900   13.1950   46.6180 O.2   300  NAD300     -0.2670
     41  N7N       20.5530   11.1270   45.6290 N.am  300  NAD300     -0.0839
     42  C4N       23.2470   13.6200   46.9020 C.2   300  NAD300      0.0033
     43  C5N       24.7560   13.6300   46.9560 C.2   300  NAD300      0.0157
     44  C6N       25.4720   12.6000   46.4960 C.2   300  NAD300      0.0633
@<TRIPOS>BOND
     1     9     8    1
     2     8     6    1
     3     8    10    1
     4    26    24    2
     5    21    20    1
     6    21    22    2
     7    20    19    1
     8    11    10    1
     9     6     7    1
    10     6     5    1
    11    12    10    1
    12    12     7    1
    13    12    13    1
    14     3     1    2
    15     4     5    1
    16     4     1    1
    17    22    13    1
    18    22    16    1
    19    19    17    2
    20    28    27    1
    21    28    29    1
    22    13    14    1
    23    24    25    1
    24    24    27    1
    25    24    23    1
    26     1    23    1
    27     1     2    1
    28    29    30    1
    29    29    31    1
    30    30    35    1
    31    16    17    1
    32    16    15    2
    33    17    18    1
    34    14    15    1
    35    31    32    1
    36    31    33    1
    37    35    36    1
    38    35    33    1
    39    41    39   am
    40    37    36    1
    41    37    38    1
    42    36    44    1
    43    33    34    1
    44    39    38    1
    45    39    40    2
    46    38    42    2
    47    44    43    2
    48    42    43    1
