@<TRIPOS>MOLECULE
1nfs_DED_A_1.pdb
 14 13 0 0 0
SMALL
GASTEIGER

@<TRIPOS>ATOM
      1  O1        11.0840    2.4940   10.3280 O.2   301  DED301     -0.2221
      2  O2        10.7230    2.2890   12.6210 O.3   301  DED301     -0.1143
      3  O3         8.8570    2.0930   11.1060 O.3   301  DED301     -0.1143
      4  P4        10.1960    2.7640   11.2820 P.3   301  DED301      0.5373
      5  O5         9.9230    4.2670   11.4440 O.3   301  DED301     -0.2261
      6  O6        11.6080    5.9160   11.8150 O.2   301  DED301     -0.5169
      7  O7        11.5470    3.8890   13.1840 O.3   301  DED301     -0.4370
      8  P8        10.8440    4.9960   12.4350 P.3   301  DED301      0.2230
      9  O9         9.9300    5.6960   13.4220 O.3   301  DED301     -0.3123
     10  C10        9.7930    7.0970   13.1880 C.3   301  DED301      0.1664
     11  C11        8.6410    7.6540   14.0590 C.3   301  DED301      0.1051
     12  N12        8.8850    9.0930   14.2480 N.3   301  DED301     -0.2682
     13  C13        9.1490    9.3880   15.6600 C.3   301  DED301      0.0897
     14  C14       10.0470    9.4560   13.4130 C.3   301  DED301      0.0897
@<TRIPOS>BOND
     1     1     4    2
     2     3     4    1
     3     4     5    1
     4     4     2    1
     5     5     8    1
     6     6     8    2
     7     8     7    1
     8     8     9    1
     9    10     9    1
    10    10    11    1
    11    14    12    1
    12    11    12    1
    13    12    13    1
