@<TRIPOS>MOLECULE
1nft_NTA_A_1.pdb
 13 12 0 0 0
SMALL
GASTEIGER

@<TRIPOS>ATOM
      1  N1        25.0360   74.3210   58.1590 N.3   334  NTA334     -0.2440
      2  C6        24.6210   73.2070   59.1180 C.3   334  NTA334      0.1886
      3  C10       24.2910   74.4660   56.8090 C.3   334  NTA334      0.1886
      4  C2        25.8950   75.4530   58.7890 C.3   334  NTA334      0.1886
      5  C7        25.6110   72.2350   59.3370 C.2   334  NTA334      0.3809
      6  O8        26.5340   72.1660   58.5650 O.co2 334  NTA334     -0.2441
      7  O9        25.3010   71.4620   60.1600 O.co2 334  NTA334     -0.2441
      8  C3        27.1740   75.4810   58.2170 C.2   334  NTA334      0.3809
      9  C11       25.1120   74.7610   55.6090 C.2   334  NTA334      0.3809
     10  O12       26.2360   74.2310   55.5240 O.co2 334  NTA334     -0.2441
     11  O13       24.5280   75.4180   54.8020 O.co2 334  NTA334     -0.2441
     12  O4        27.6720   76.5490   58.2020 O.co2 334  NTA334     -0.2441
     13  O5        27.6290   74.4510   57.7920 O.co2 334  NTA334     -0.2441
@<TRIPOS>BOND
     1    11     9   ar
     2    10     9   ar
     3     9     3    1
     4     3     1    1
     5    13     8   ar
     6     1     4    1
     7     1     2    1
     8    12     8   ar
     9     8     4    1
    10     6     5   ar
    11     2     5    1
    12     5     7   ar
