@<TRIPOS>MOLECULE
1nfu_RRP_A_1.pdb
 30 33 0 0 0
SMALL
GASTEIGER

@<TRIPOS>ATOM
      1  N29        7.7990    0.4050   16.6500 N.pl3 301  RRP301      0.2047
      2  C28        6.6810    1.0070   17.0690 C.2   301  RRP301      0.4766
      3  N30        5.6500    1.1520   16.2090 N.pl3 301  RRP301      0.2047
      4  C27        6.5450    1.5100   18.4550 C.ar  301  RRP301      0.0972
      5  C26        5.6790    2.6020   18.7490 C.ar  301  RRP301      0.0054
      6  C24        5.5380    3.0890   20.0770 C.ar  301  RRP301     -0.0021
      7  C22        6.2730    2.4720   21.1150 C.ar  301  RRP301     -0.0026
      8  C23        7.1300    1.3950   20.8350 C.ar  301  RRP301     -0.0000
      9  C25        7.2720    0.9110   19.5180 C.ar  301  RRP301      0.0080
     10  C21        4.6130    4.2550   20.3660 C.3   301  RRP301      0.1202
     11  N2         5.2400    5.3030   21.2030 N.am  301  RRP301     -0.2728
     12  C8         4.9050    5.4240   22.5450 C.2   301  RRP301      0.2440
     13  O1         4.0950    4.6980   23.1190 O.2   301  RRP301     -0.2733
     14  C4         5.6160    6.5420   23.3200 C.3   301  RRP301      0.1806
     15  N1         5.9860    7.7240   22.4970 N.3   301  RRP301     -0.1440
     16  C7         6.8820    7.2660   21.3990 C.3   301  RRP301      0.1178
     17  C2         6.2230    6.1930   20.5160 C.3   301  RRP301      0.1129
     18  S4         6.5220    9.0100   23.3700 S.O2  301  RRP301      0.0695
     19  O8         6.7240   10.0460   22.4060 O.2   301  RRP301     -0.1523
     20  O9         5.5370    9.2960   24.3990 O.2   301  RRP301     -0.1523
     21  C1         8.0180    8.5900   24.0920 C.ar  301  RRP301      0.1516
     22  C3         8.0470    7.9730   25.3790 C.ar  301  RRP301      0.0271
     23  C6         9.4290    7.7150   25.7380 C.ar  301  RRP301      0.0079
     24  C5        10.3100    8.1500   24.7190 C.ar  301  RRP301      0.0316
     25  S2         9.5610    8.8390   23.3840 S.2   301  RRP301     -0.0672
     26  C10       11.7310    7.9480   24.9430 C.ar  301  RRP301      0.0179
     27  C14       12.1760    7.3380   26.1300 C.ar  301  RRP301      0.0582
     28 CL         13.8710    7.1120   26.3290 Cl    301  RRP301     -0.0822
     29  C15       11.2610    6.9150   27.1380 C.ar  301  RRP301      0.0114
     30  C11        9.8670    7.1140   26.9230 C.ar  301  RRP301      0.0014
@<TRIPOS>BOND
     1     3     2    2
     2     1     2    1
     3     2     4    1
     4     4     5   ar
     5     4     9   ar
     6     5     6   ar
     7     9     8   ar
     8     6    10    1
     9     6     7   ar
    10    10    11    1
    11    17    11    1
    12    17    16    1
    13     8     7   ar
    14    11    12   am
    15    16    15    1
    16    19    18    2
    17    15    14    1
    18    15    18    1
    19    12    13    2
    20    12    14    1
    21    18    21    1
    22    18    20    2
    23    25    21   ar
    24    25    24   ar
    25    21    22   ar
    26    24    26   ar
    27    24    23   ar
    28    26    27   ar
    29    22    23   ar
    30    23    30   ar
    31    27    28    1
    32    27    29   ar
    33    30    29   ar
