@<TRIPOS>MOLECULE
1nfv_FEC_B_1.pdb
 49 56 0 0 0
SMALL
GASTEIGER

@<TRIPOS>ATOM
      1  O1A       20.5790  112.2220  -33.1440 O.co2 1107  FEC1107     0.0000
      2  CGA       20.8400  111.1140  -33.6870 C.2   1107  FEC1107     0.0000
      3  O2A       20.9720  110.9240  -34.9250 O.co2 1107  FEC1107     0.0000
      4  CBA       21.0060  109.9090  -32.8000 C.2   1107  FEC1107     0.0000
      5  CAA       22.0130  110.0360  -31.6610 C.2   1107  FEC1107     0.0000
      6  C3A       22.1840  108.8370  -30.7050 C.ar  1107  FEC1107     0.0000
      7  C2A       23.0630  107.8370  -30.7400 C.ar  1107  FEC1107     0.0000
      8  C1A       22.7880  106.9770  -29.6070 C.ar  1107  FEC1107     0.0000
      9  CHA       23.4820  105.8290  -29.2940 C.2   1107  FEC1107     0.0000
     10  C4D       23.2670  105.0390  -28.1880 C.2   1107  FEC1107     0.0000
     11  ND        22.3030  105.2640  -27.2230 N.2   1107  FEC1107     0.0000
     12  C1D       22.4390  104.2320  -26.3130 C.2   1107  FEC1107     0.0000
     13  CHD       21.6500  104.0510  -25.1970 C.2   1107  FEC1107     0.0000
     14  C4C       20.7200  104.9670  -24.7510 C.ar  1107  FEC1107     0.0000
     15  C3C       20.1300  104.9730  -23.4270 C.ar  1107  FEC1107     0.0000
     16  C2C       19.2880  106.0130  -23.3650 C.ar  1107  FEC1107     0.0000
     17  C1C       19.3130  106.6550  -24.6580 C.ar  1107  FEC1107     0.0000
     18  CHC       18.5780  107.7600  -25.0280 C.2   1107  FEC1107     0.0000
     19  C4B       18.7560  108.5390  -26.1390 C.2   1107  FEC1107     0.0000
     20  C3B       18.0110  109.7400  -26.4470 C.2   1107  FEC1107     0.0000
     21  C2B       18.4780  110.1970  -27.6080 C.2   1107  FEC1107     0.0000
     22  C1B       19.5460  109.3100  -28.0330 C.2   1107  FEC1107     0.0000
     23  NB        19.7050  108.2910  -27.1090 N.2   1107  FEC1107     0.0000
     24 FE         21.0100  106.7840  -27.1550 Fe    1107  FEC1107     0.0000
     25  NA        21.7200  107.4800  -28.8850 N.ar  1107  FEC1107     0.0000
     26  C4A       21.3310  108.6290  -29.5500 C.ar  1107  FEC1107     0.0000
     27  CHB       20.2980  109.4580  -29.1770 C.2   1107  FEC1107     0.0000
     28  NC        20.1890  105.9980  -25.5090 N.ar  1107  FEC1107     0.0000
     29  CMB       18.0490  111.4390  -28.4150 C.3   1107  FEC1107     0.0000
     30  CAB       16.8750  110.2450  -25.5360 C.2   1107  FEC1107     0.0000
     31  CBB       17.0660  111.4850  -24.6800 C.2   1107  FEC1107     0.0000
     32  CGB       15.8280  112.0090  -23.9950 C.2   1107  FEC1107     0.0000
     33  O1B       14.7080  111.7700  -24.5120 O.co2 1107  FEC1107     0.0000
     34  O2B       15.9930  112.6570  -22.9300 O.co2 1107  FEC1107     0.0000
     35  CAC       18.4840  106.5140  -22.1560 C.2   1107  FEC1107     0.0000
     36  CBC       17.1390  107.1950  -22.2760 C.2   1107  FEC1107     0.0000
     37  CGC       16.5920  107.9220  -21.0790 C.2   1107  FEC1107     0.0000
     38  O1C       16.1940  107.2090  -20.1220 O.co2 1107  FEC1107     0.0000
     39  O2C       16.5490  109.1790  -21.1630 O.co2 1107  FEC1107     0.0000
     40  CMC       20.4940  103.9260  -22.3540 C.3   1107  FEC1107     0.0000
     41  C2D       23.5100  103.3530  -26.7320 C.2   1107  FEC1107     0.0000
     42  C3D       24.0070  103.8340  -27.8720 C.2   1107  FEC1107     0.0000
     43  CAD       25.1620  103.2760  -28.7320 C.3   1107  FEC1107     0.0000
     44  CBD       26.5180  103.9750  -28.6220 C.3   1107  FEC1107     0.0000
     45  CGD       27.7190  103.0890  -28.8560 C.2   1107  FEC1107     0.0000
     46  O1D       28.6910  103.6050  -29.4680 O.co2 1107  FEC1107     0.0000
     47  O2D       27.6430  101.9120  -28.4190 O.co2 1107  FEC1107     0.0000
     48  CMD       23.9550  102.0900  -25.9600 C.3   1107  FEC1107     0.0000
     49  CMA       24.2010  107.5650  -31.7490 C.3   1107  FEC1107     0.0000
@<TRIPOS>BOND
     1     3     2   ar
     2     2     1   ar
     3     2     4    1
     4     4     5    2
     5    49     7    1
     6     5     6    1
     7     7     6   ar
     8     7     8   ar
     9     6    26   ar
    10     8     9    2
    11     8    25   ar
    12    26    27    2
    13    26    25   ar
    14    46    45   ar
    15     9    10    1
    16    27    22    1
    17    25    24    1
    18    45    44    1
    19    45    47   ar
    20    43    44    1
    21    43    42    1
    22    29    21    1
    23    10    42    1
    24    10    11    2
    25    22    21    1
    26    22    23    2
    27    42    41    2
    28    21    20    2
    29    11    24    1
    30    11    12    1
    31    24    23    1
    32    24    28    1
    33    23    19    1
    34    41    12    1
    35    41    48    1
    36    20    19    1
    37    20    30    1
    38    12    13    2
    39    19    18    2
    40    30    31    2
    41    28    14   ar
    42    28    17   ar
    43    13    14    1
    44    18    17    1
    45    14    15   ar
    46    31    32    1
    47    17    16   ar
    48    33    32   ar
    49    32    34   ar
    50    15    16   ar
    51    15    40    1
    52    16    35    1
    53    36    35    2
    54    36    37    1
    55    39    37   ar
    56    37    38   ar
