@<TRIPOS>MOLECULE
1nfw_RRR_A_1.pdb
 28 31 0 0 0
SMALL
GASTEIGER

@<TRIPOS>ATOM
      1  N10        5.8400    2.2970   18.8420 N.2   301  RRR301     -0.4127
      2  C4         6.9690    1.6440   18.3920 C.2   301  RRR301      0.1121
      3  C5         7.9620    1.7500   19.4420 C.2   301  RRR301      0.0294
      4  C6         9.2320    1.1400   19.2150 C.2   301  RRR301      0.0968
      5  N1         9.4680    0.4910   18.0400 N.2   301  RRR301     -0.2468
      6  C2         8.5580    0.3770   17.0370 C.2   301  RRR301      0.0799
      7  C3         7.2600    0.9560   17.1760 C.3   301  RRR301      0.1055
      8  C12        7.3950    2.4730   20.5110 C.3   301  RRR301      0.0863
      9  C11        6.0840    2.7840   20.0830 C.2   301  RRR301      0.1107
     10  C13        4.9980    3.5390   20.8340 C.3   301  RRR301      0.1483
     11  N14        5.3160    4.8270   21.4730 N.am  301  RRR301     -0.2705
     12  C17        4.9700    5.0200   22.7950 C.2   301  RRR301      0.2441
     13  O44        4.4150    4.1690   23.4860 O.2   301  RRR301     -0.2733
     14  C18        5.3100    6.4010   23.3890 C.3   301  RRR301      0.1806
     15  N19        5.9100    7.4130   22.3900 N.3   301  RRR301     -0.1444
     16  C20        6.6760    6.9350   21.4420 C.3   301  RRR301      0.1178
     17  C21        5.9840    5.8360   20.6150 C.3   301  RRR301      0.1130
     18  S28        6.6310    8.7910   23.3900 S.O2  301  RRR301      0.0651
     19  O37        5.6960    8.9380   24.4770 O.2   301  RRR301     -0.1527
     20  O45        6.5960    9.6640   22.2590 O.2   301  RRR301     -0.1527
     21  C29        8.2550    8.6880   23.9880 C.2   301  RRR301      0.1412
     22  C30        8.4570    7.9600   25.0920 C.2   301  RRR301      0.0278
     23  C31        9.7590    7.6910   25.7070 C.ar  301  RRR301      0.0317
     24  C35        9.8480    6.9000   26.9160 C.ar  301  RRR301      0.0079
     25  C34       11.1980    6.7250   27.3460 C.ar  301  RRR301      0.0185
     26  C33       12.1220    7.3870   26.4530 C.ar  301  RRR301      0.0870
     27 CL36       13.8300    7.3370   26.6850 Cl    301  RRR301     -0.0752
     28  S32       11.3150    8.1930   25.1540 S.2   301  RRR301     -0.0755
@<TRIPOS>BOND
     1     6     7    1
     2     6     5    2
     3     7     2    1
     4     5     4    1
     5     2     1    2
     6     2     3    1
     7     1     9    2
     8     4     3    2
     9     3     8    1
    10     9     8    1
    11     9    10    1
    12    17    16    1
    13    17    11    1
    14    10    11    1
    15    16    15    1
    16    11    12   am
    17    20    18    2
    18    15    14    1
    19    15    18    1
    20    12    14    1
    21    12    13    2
    22    18    21    1
    23    18    19    2
    24    21    22    2
    25    22    23    1
    26    28    23   ar
    27    28    26   ar
    28    23    24   ar
    29    26    27    1
    30    26    25   ar
    31    24    25   ar
