@<TRIPOS>MOLECULE
1nfx_RDR_A_1.pdb
 33 37 0 0 0
SMALL
GASTEIGER

@<TRIPOS>ATOM
      1  O15        3.0240    1.4970   19.6010 O.3   301  RDR301     -0.2182
      2  C10        3.6290    1.2890   18.3300 C.3   301  RDR301      0.2064
      3  C6         4.6490    2.4260   18.0790 C.3   301  RDR301      0.1412
      4  N2         5.8630    2.3630   18.9590 N.ar  301  RDR301     -0.3263
      5  C5         6.9980    1.6170   18.5910 C.ar  301  RDR301      0.0628
      6  C7         7.9620    1.7650   19.6380 C.ar  301  RDR301      0.0361
      7  C11        9.1910    1.1150   19.5130 C.ar  301  RDR301      0.1003
      8  N16        9.4950    0.3450   18.4150 N.ar  301  RDR301     -0.2422
      9  C14        8.5770    0.2060   17.4160 C.ar  301  RDR301      0.1004
     10  C9         7.3110    0.8300   17.4710 C.ar  301  RDR301      0.0378
     11  C3         7.3740    2.6180   20.6430 C.ar  301  RDR301      0.0174
     12  C1         6.0850    2.9620   20.1790 C.ar  301  RDR301      0.0574
     13  C4         5.0250    3.8540   20.8600 C.3   301  RDR301      0.1373
     14  N8         5.4810    5.0590   21.6000 N.am  301  RDR301     -0.2713
     15  C12        5.0590    5.2490   22.9140 C.2   301  RDR301      0.2440
     16  O18        4.3260    4.4710   23.5090 O.2   301  RDR301     -0.2733
     17  C17        5.5690    6.5220   23.6350 C.3   301  RDR301      0.1806
     18  N20        6.0490    7.6170   22.7620 N.3   301  RDR301     -0.1440
     19  C19        7.0310    7.0800   21.7900 C.3   301  RDR301      0.1178
     20  C13        6.3750    6.0220   20.8810 C.3   301  RDR301      0.1129
     21  S21        6.6240    9.0390   23.6600 S.O2  301  RDR301      0.0695
     22  O23        5.6180    9.2810   24.6610 O.2   301  RDR301     -0.1523
     23  O24        6.8390   10.0160   22.6250 O.2   301  RDR301     -0.1523
     24  C22        8.1260    8.6830   24.4200 C.ar  301  RDR301      0.1516
     25  C25        8.1590    8.0810   25.6900 C.ar  301  RDR301      0.0271
     26  C27        9.5230    7.8410   26.1410 C.ar  301  RDR301      0.0079
     27  C28       10.4700    8.2970   25.1410 C.ar  301  RDR301      0.0316
     28  S26        9.6780    8.9630   23.7900 S.2   301  RDR301     -0.0672
     29  C30       11.8340    8.1450   25.3740 C.ar  301  RDR301      0.0179
     30  C32       12.2780    7.5450   26.5740 C.ar  301  RDR301      0.0582
     31 CL33       13.9650    7.3450   26.8310 Cl    301  RDR301     -0.0822
     32  C31       11.3680    7.1010   27.5620 C.ar  301  RDR301      0.0114
     33  C29        9.9810    7.2570   27.3230 C.ar  301  RDR301      0.0014
@<TRIPOS>BOND
     1     9    10   ar
     2     9     8   ar
     3    10     5   ar
     4     3     2    1
     5     3     4    1
     6     2     1    1
     7     8     7   ar
     8     5     4   ar
     9     5     6   ar
    10     4    12   ar
    11     7     6   ar
    12     6    11   ar
    13    12    11   ar
    14    12    13    1
    15    13    14    1
    16    20    14    1
    17    20    19    1
    18    14    15   am
    19    19    18    1
    20    23    21    2
    21    18    17    1
    22    18    21    1
    23    15    16    2
    24    15    17    1
    25    21    24    1
    26    21    22    2
    27    28    24   ar
    28    28    27   ar
    29    24    25   ar
    30    27    29   ar
    31    27    26   ar
    32    29    30   ar
    33    25    26   ar
    34    26    33   ar
    35    30    31    1
    36    30    32   ar
    37    33    32   ar
