@<TRIPOS>MOLECULE
1nfz_EIP_A_1.pdb
 15 14 0 0 0
SMALL
GASTEIGER

@<TRIPOS>ATOM
      1  O1        11.1070    2.6460   10.3080 O.2   301  EIP301     -0.2221
      2  O2        10.5290    2.0290   12.4610 O.3   301  EIP301     -0.1143
      3  O3         8.8090    2.3510   10.8340 O.3   301  EIP301     -0.1143
      4  P4        10.1870    2.8590   11.2500 P.3   301  EIP301      0.5373
      5  O5         9.9840    4.3070   11.6850 O.3   301  EIP301     -0.2261
      6  O6        11.6870    6.0140   11.5610 O.2   301  EIP301     -0.5169
      7  O7        11.7080    4.4750   13.3690 O.3   301  EIP301     -0.4370
      8  P8        10.9020    5.2920   12.3880 P.3   301  EIP301      0.2230
      9  O9        10.0820    6.1530   13.3280 O.3   301  EIP301     -0.3138
     10  C10        8.9490    6.8360   12.8020 C.3   301  EIP301      0.1492
     11  C11        8.2660    7.7140   13.8700 C.3   301  EIP301      0.0351
     12  C12        9.3870    8.4100   14.6960 C.3   301  EIP301      0.0355
     13  C13       10.4360    8.9080   13.6660 C.3   301  EIP301      0.1821
     14  C14        8.7980    9.6690   15.3720 C.3   301  EIP301      0.0028
     15  O15        9.8640   10.0270   12.9780 O.3   301  EIP301     -0.2204
@<TRIPOS>BOND
     1     1     4    2
     2     3     4    1
     3     4     5    1
     4     4     2    1
     5     6     8    2
     6     5     8    1
     7     8     9    1
     8     8     7    1
     9    10     9    1
    10    10    11    1
    11    15    13    1
    12    13    12    1
    13    11    12    1
    14    12    14    1
