@<TRIPOS>MOLECULE
1ng1_GDP_A_1.pdb
 28 30 0 0 0
SMALL
GASTEIGER

@<TRIPOS>ATOM
      1  PB        16.0630   88.7670    9.2000 P.3   900  GDP900      0.5373
      2  O1B       15.1190   87.9840    8.3660 O.2   900  GDP900     -0.2221
      3  O2B       15.4340   89.3520   10.3990 O.3   900  GDP900     -0.1143
      4  O3B       16.8940   89.7300    8.4320 O.3   900  GDP900     -0.1143
      5  O3A       17.0930   87.7140    9.7590 O.3   900  GDP900     -0.2261
      6  PA        18.6310   87.7390   10.2210 P.3   900  GDP900      0.2231
      7  O1A       18.7920   88.7860   11.2250 O.3   900  GDP900     -0.4370
      8  O2A       19.4730   87.7770    9.0340 O.2   900  GDP900     -0.5169
      9  O5'       18.8200   86.3170   10.9070 O.3   900  GDP900     -0.3111
     10  C5'       18.1810   86.0130   12.1480 C.3   900  GDP900      0.1813
     11  C4'       19.1100   85.1250   13.0500 C.3   900  GDP900      0.1799
     12  O4'       19.2770   83.8650   12.4060 O.3   900  GDP900     -0.3326
     13  C3'       20.5580   85.6120   13.2980 C.3   900  GDP900      0.2158
     14  O3'       20.9560   85.4020   14.6420 O.3   900  GDP900     -0.2175
     15  C2'       21.4360   84.8170   12.3530 C.3   900  GDP900      0.2310
     16  O2'       22.7970   84.6340   12.7420 O.3   900  GDP900     -0.2158
     17  C1'       20.6780   83.5300   12.2770 C.3   900  GDP900      0.2293
     18  N9        20.8320   82.7860   11.0090 N.pl3 900  GDP900     -0.2354
     19  C8        20.5160   83.1660    9.7190 C.3   900  GDP900      0.2246
     20  N7        20.7750   82.2790    8.8000 N.2   900  GDP900     -0.2322
     21  C5        21.3100   81.2090    9.5350 C.2   900  GDP900      0.2182
     22  C6        21.8020   79.9180    9.1060 C.1   900  GDP900      0.2372
     23  O6        21.8450   79.4760    7.9640 O.2   900  GDP900     -0.2069
     24  N1        22.2630   79.1260   10.1710 N.2   900  GDP900     -0.2485
     25  C2        22.2660   79.5130   11.5050 C.1   900  GDP900      0.2531
     26  N2        22.7320   78.6640   12.4020 N.pl3 900  GDP900     -0.0226
     27  N3        21.8130   80.7110   11.9210 N.2   900  GDP900     -0.3074
     28  C4        21.3530   81.5130   10.8850 C.2   900  GDP900      0.2300
@<TRIPOS>BOND
     1    23    22    2
     2     2     1    2
     3     4     1    1
     4    20    21    2
     5    20    19    1
     6     8     6    2
     7    22    21    1
     8    22    24    2
     9     1     5    1
    10     1     3    1
    11    21    28    1
    12    19    18    1
    13     5     6    1
    14    24    25    2
    15     6     9    1
    16     6     7    1
    17    28    18    1
    18    28    27    2
    19     9    10    1
    20    18    17    1
    21    25    27    2
    22    25    26    1
    23    10    11    1
    24    17    15    1
    25    17    12    1
    26    15    16    1
    27    15    13    1
    28    12    11    1
    29    11    13    1
    30    13    14    1
