@<TRIPOS>MOLECULE
1ng9_ADP_A_1.pdb
 27 29 0 0 0
SMALL
GASTEIGER

@<TRIPOS>ATOM
      1  PB        -0.2860   45.8350    7.8210 P.3   2001  ADP2001     0.5373
      2  O1B       -1.4580   45.9760    6.9330 O.2   2001  ADP2001    -0.2221
      3  O2B        0.3100   44.4170    7.8540 O.3   2001  ADP2001    -0.1143
      4  O3B        0.8250   46.7230    7.2510 O.3   2001  ADP2001    -0.1143
      5  PA        -0.5410   45.2880   10.5710 P.3   2001  ADP2001     0.2231
      6  O1A        0.8610   44.8030   10.5220 O.2   2001  ADP2001    -0.5169
      7  O2A       -1.5400   44.1250   10.6380 O.3   2001  ADP2001    -0.4370
      8  O3A       -0.8290   46.2140    9.2890 O.3   2001  ADP2001    -0.2261
      9  O5'       -0.8270   46.1960   11.8720 O.3   2001  ADP2001    -0.3111
     10  C5'        0.1180   47.1490   12.3160 C.3   2001  ADP2001     0.1813
     11  C4'       -0.1750   47.5630   13.7490 C.3   2001  ADP2001     0.1821
     12  O4'       -1.5360   47.8870   13.8980 O.3   2001  ADP2001    -0.3135
     13  C3'        0.1340   46.4630   14.7440 C.3   2001  ADP2001     0.2184
     14  O3'        1.3740   46.7380   15.3500 O.3   2001  ADP2001    -0.2174
     15  C2'       -1.0060   46.4910   15.7340 C.3   2001  ADP2001     0.2570
     16  O2'       -0.5460   46.9130   17.0010 O.3   2001  ADP2001    -0.2130
     17  C1'       -2.0290   47.4510   15.1400 C.3   2001  ADP2001     0.3186
     18  N9        -3.3120   46.7780   14.8980 N.pl3 2001  ADP2001    -0.1439
     19  C8        -3.5860   45.8440   13.9270 C.3   2001  ADP2001     0.3377
     20  N7        -4.8790   45.4530   14.0250 N.2   2001  ADP2001    -0.2095
     21  C5        -5.4290   46.1230   15.0530 C.2   2001  ADP2001     0.2526
     22  C6        -6.6970   46.1010   15.5950 C.2   2001  ADP2001     0.4393
     23  N6        -7.6740   45.5160   14.9250 N.pl3 2001  ADP2001     0.2180
     24  N1        -6.9850   46.9240   16.6730 N.2   2001  ADP2001     0.0021
     25  C2        -6.0210   47.7600   17.2220 C.3   2001  ADP2001     0.5254
     26  N3        -4.7490   47.7710   16.6770 N.2   2001  ADP2001    -0.0055
     27  C4        -4.4630   46.9650   15.6130 C.2   2001  ADP2001     0.3518
@<TRIPOS>BOND
     1     2     1    2
     2     4     1    1
     3     1     3    1
     4     1     8    1
     5     8     5    1
     6     6     5    2
     7     5     7    1
     8     5     9    1
     9     9    10    1
    10    10    11    1
    11    11    12    1
    12    11    13    1
    13    12    17    1
    14    19    20    1
    15    19    18    1
    16    20    21    2
    17    13    14    1
    18    13    15    1
    19    18    17    1
    20    18    27    1
    21    23    22    1
    22    21    22    1
    23    21    27    1
    24    17    15    1
    25    22    24    2
    26    27    26    2
    27    15    16    1
    28    24    25    1
    29    26    25    1
