@<TRIPOS>MOLECULE
1nga_ADP_A_1.pdb
 27 29 0 0 0
SMALL
GASTEIGER

@<TRIPOS>ATOM
      1  PB        18.0820   29.4810   16.2990 P.3   486  ADP486      0.5373
      2  O1B       18.5390   29.5190   17.7030 O.3   486  ADP486     -0.1143
      3  O2B       18.6560   28.3940   15.5030 O.2   486  ADP486     -0.2221
      4  O3B       16.5960   29.6500   16.1190 O.3   486  ADP486     -0.1143
      5  PA        19.7520   31.6780   15.1640 P.3   486  ADP486      0.2231
      6  O1A       20.9220   30.7670   15.2260 O.3   486  ADP486     -0.4370
      7  O2A       19.4410   32.3430   13.8860 O.2   486  ADP486     -0.5169
      8  O3A       18.5500   30.8800   15.7390 O.3   486  ADP486     -0.2261
      9  O5'       19.8400   32.7720   16.2300 O.3   486  ADP486     -0.3111
     10  C5'       19.0670   33.9220   16.1700 C.3   486  ADP486      0.1813
     11  C4'       19.3780   34.6850   17.4060 C.3   486  ADP486      0.1821
     12  O4'       20.6510   35.2690   17.0960 O.3   486  ADP486     -0.3135
     13  C3'       18.4090   35.8360   17.7670 C.3   486  ADP486      0.2184
     14  O3'       18.5590   36.0360   19.1850 O.3   486  ADP486     -0.2174
     15  C2'       18.9520   37.0380   16.9730 C.3   486  ADP486      0.2570
     16  O2'       18.8100   38.2010   17.7160 O.3   486  ADP486     -0.2130
     17  C1'       20.4670   36.6930   17.1320 C.3   486  ADP486      0.3186
     18  N9        21.3360   37.3910   16.0950 N.pl3 486  ADP486     -0.1439
     19  C8        21.4280   37.4800   14.6730 C.3   486  ADP486      0.3377
     20  N7        22.4280   38.2790   14.2980 N.2   486  ADP486     -0.2095
     21  C5        22.9910   38.7290   15.4940 C.2   486  ADP486      0.2526
     22  C6        24.0560   39.5860   15.7490 C.2   486  ADP486      0.4393
     23  N6        24.6780   40.1400   14.7120 N.pl3 486  ADP486      0.2180
     24  N1        24.4050   39.8490   17.0230 N.2   486  ADP486      0.0021
     25  C2        23.7010   39.2760   17.9710 C.3   486  ADP486      0.5254
     26  N3        22.6620   38.4400   17.8670 N.2   486  ADP486     -0.0055
     27  C4        22.3410   38.2070   16.5670 C.2   486  ADP486      0.3518
@<TRIPOS>BOND
     1     7     5    2
     2    20    19    1
     3    20    21    2
     4    19    18    1
     5    23    22    1
     6     5     6    1
     7     5     8    1
     8     5     9    1
     9    21    22    1
    10    21    27    1
    11     3     1    2
    12     8     1    1
    13    22    24    2
    14    18    27    1
    15    18    17    1
    16     4     1    1
    17    10     9    1
    18    10    11    1
    19     1     2    1
    20    27    26    2
    21    15    17    1
    22    15    16    1
    23    15    13    1
    24    24    25    1
    25    12    17    1
    26    12    11    1
    27    11    13    1
    28    13    14    1
    29    26    25    1
