@<TRIPOS>MOLECULE
1ngb_ADP_A_1.pdb
 27 29 0 0 0
SMALL
GASTEIGER

@<TRIPOS>ATOM
      1  PB        18.1660   29.4680   16.2040 P.3   486  ADP486      0.5373
      2  O1B       18.7000   29.7180   17.5510 O.3   486  ADP486     -0.1143
      3  O2B       18.6630   28.2490   15.5830 O.2   486  ADP486     -0.2221
      4  O3B       16.6920   29.6280   16.1020 O.3   486  ADP486     -0.1143
      5  PA        19.7480   31.6350   14.9920 P.3   486  ADP486      0.2231
      6  O1A       21.0010   30.8360   15.0290 O.3   486  ADP486     -0.4370
      7  O2A       19.4010   32.3510   13.7420 O.2   486  ADP486     -0.5169
      8  O3A       18.5610   30.7230   15.3890 O.3   486  ADP486     -0.2261
      9  O5'       19.8200   32.7090   16.1470 O.3   486  ADP486     -0.3111
     10  C5'       19.0140   33.8610   16.1710 C.3   486  ADP486      0.1813
     11  C4'       19.4440   34.7160   17.3360 C.3   486  ADP486      0.1821
     12  O4'       20.7080   35.2780   16.9250 O.3   486  ADP486     -0.3135
     13  C3'       18.4920   35.8750   17.7100 C.3   486  ADP486      0.2184
     14  O3'       18.5660   35.9620   19.1340 O.3   486  ADP486     -0.2174
     15  C2'       19.1180   37.1070   16.9620 C.3   486  ADP486      0.2570
     16  O2'       18.8910   38.3430   17.6890 O.3   486  ADP486     -0.2130
     17  C1'       20.6220   36.7050   17.0860 C.3   486  ADP486      0.3186
     18  N9        21.4800   37.4170   16.1170 N.pl3 486  ADP486     -0.1439
     19  C8        21.4810   37.5110   14.7620 C.3   486  ADP486      0.3377
     20  N7        22.4160   38.3160   14.2960 N.2   486  ADP486     -0.2095
     21  C5        23.0700   38.7660   15.4540 C.2   486  ADP486      0.2526
     22  C6        24.1450   39.6400   15.7000 C.2   486  ADP486      0.4393
     23  N6        24.7260   40.3460   14.7500 N.pl3 486  ADP486      0.2180
     24  N1        24.5160   39.8320   16.9850 N.2   486  ADP486      0.0021
     25  C2        23.8780   39.2190   17.9530 C.3   486  ADP486      0.5254
     26  N3        22.8510   38.3810   17.8550 N.2   486  ADP486     -0.0055
     27  C4        22.5000   38.2060   16.5490 C.2   486  ADP486      0.3518
@<TRIPOS>BOND
     1     7     5    2
     2    20    19    1
     3    20    21    2
     4    23    22    1
     5    19    18    1
     6     5     6    1
     7     5     8    1
     8     5     9    1
     9     8     1    1
    10    21    22    1
    11    21    27    1
    12     3     1    2
    13    22    24    2
    14     4     1    1
    15    18    27    1
    16    18    17    1
    17     9    10    1
    18    10    11    1
    19     1     2    1
    20    27    26    2
    21    12    17    1
    22    12    11    1
    23    15    17    1
    24    15    16    1
    25    15    13    1
    26    24    25    1
    27    11    13    1
    28    13    14    1
    29    26    25    1
