@<TRIPOS>MOLECULE
1ngc_ADP_A_1.pdb
 27 29 0 0 0
SMALL
GASTEIGER

@<TRIPOS>ATOM
      1  PB        18.0870   29.4390   16.4140 P.3   486  ADP486      0.5373
      2  O1B       18.4670   29.3620   17.8490 O.3   486  ADP486     -0.1143
      3  O2B       18.6580   28.3690   15.6050 O.2   486  ADP486     -0.2221
      4  O3B       16.6380   29.6360   16.1720 O.3   486  ADP486     -0.1143
      5  PA        19.7520   31.6020   15.2750 P.3   486  ADP486      0.2231
      6  O1A       20.9280   30.7240   15.4550 O.3   486  ADP486     -0.4370
      7  O2A       19.4440   32.1040   13.9290 O.2   486  ADP486     -0.5169
      8  O3A       18.5380   30.8740   15.9190 O.3   486  ADP486     -0.2261
      9  O5'       19.9420   32.8110   16.2060 O.3   486  ADP486     -0.3111
     10  C5'       19.0150   33.8370   16.3070 C.3   486  ADP486      0.1813
     11  C4'       19.5490   34.7850   17.3350 C.3   486  ADP486      0.1821
     12  O4'       20.7130   35.3140   16.7500 O.3   486  ADP486     -0.3135
     13  C3'       18.6350   35.9860   17.7050 C.3   486  ADP486      0.2184
     14  O3'       18.7210   36.0390   19.1510 O.3   486  ADP486     -0.2174
     15  C2'       19.2550   37.1590   16.9610 C.3   486  ADP486      0.2570
     16  O2'       19.0970   38.3960   17.6760 O.3   486  ADP486     -0.2130
     17  C1'       20.7100   36.7090   17.0500 C.3   486  ADP486      0.3186
     18  N9        21.5760   37.4650   16.1170 N.pl3 486  ADP486     -0.1439
     19  C8        21.5970   37.5550   14.7360 C.3   486  ADP486      0.3377
     20  N7        22.5340   38.3620   14.2630 N.2   486  ADP486     -0.2095
     21  C5        23.1600   38.8170   15.4330 C.2   486  ADP486      0.2526
     22  C6        24.2190   39.6970   15.6590 C.2   486  ADP486      0.4393
     23  N6        24.7800   40.3610   14.6720 N.pl3 486  ADP486      0.2180
     24  N1        24.6000   39.9270   16.9190 N.2   486  ADP486      0.0021
     25  C2        23.9670   39.3290   17.8830 C.3   486  ADP486      0.5254
     26  N3        22.9460   38.4910   17.8190 N.2   486  ADP486     -0.0055
     27  C4        22.5870   38.2740   16.5410 C.2   486  ADP486      0.3518
@<TRIPOS>BOND
     1     7     5    2
     2    20    19    1
     3    20    21    2
     4    23    22    1
     5    19    18    1
     6     5     6    1
     7     5     8    1
     8     5     9    1
     9    21    22    1
    10    21    27    1
    11     3     1    2
    12    22    24    2
    13     8     1    1
    14    18    27    1
    15    18    17    1
    16     4     1    1
    17     9    10    1
    18    10    11    1
    19     1     2    1
    20    27    26    2
    21    12    17    1
    22    12    11    1
    23    24    25    1
    24    15    17    1
    25    15    16    1
    26    15    13    1
    27    11    13    1
    28    13    14    1
    29    26    25    1
