@<TRIPOS>MOLECULE
1ngd_ADP_A_1.pdb
 27 29 0 0 0
SMALL
GASTEIGER

@<TRIPOS>ATOM
      1  PB        18.1350   29.4500   16.4870 P.3   486  ADP486      0.5373
      2  O1B       18.5910   29.5330   17.8920 O.3   486  ADP486     -0.1143
      3  O2B       18.6820   28.3070   15.7570 O.2   486  ADP486     -0.2221
      4  O3B       16.6570   29.5470   16.3680 O.3   486  ADP486     -0.1143
      5  PA        19.7090   31.6660   15.2650 P.3   486  ADP486      0.2231
      6  O1A       20.8530   30.7470   15.4970 O.3   486  ADP486     -0.4370
      7  O2A       19.4490   32.1800   13.9000 O.2   486  ADP486     -0.5169
      8  O3A       18.5010   30.8770   15.8700 O.3   486  ADP486     -0.2261
      9  O5'       19.8600   32.8510   16.1940 O.3   486  ADP486     -0.3111
     10  C5'       18.9760   33.8970   16.2410 C.3   486  ADP486      0.1813
     11  C4'       19.4720   34.7760   17.3260 C.3   486  ADP486      0.1821
     12  O4'       20.6900   35.3060   16.7830 O.3   486  ADP486     -0.3135
     13  C3'       18.5460   35.9930   17.7130 C.3   486  ADP486      0.2184
     14  O3'       18.5760   36.0170   19.1730 O.3   486  ADP486     -0.2174
     15  C2'       19.2730   37.1930   17.0080 C.3   486  ADP486      0.2570
     16  O2'       19.1620   38.4040   17.7790 O.3   486  ADP486     -0.2130
     17  C1'       20.7430   36.7080   17.1030 C.3   486  ADP486      0.3186
     18  N9        21.6160   37.4680   16.1670 N.pl3 486  ADP486     -0.1439
     19  C8        21.5950   37.5490   14.7930 C.3   486  ADP486      0.3377
     20  N7        22.5140   38.3790   14.3090 N.2   486  ADP486     -0.2095
     21  C5        23.1680   38.8490   15.4640 C.2   486  ADP486      0.2526
     22  C6        24.2130   39.7610   15.6590 C.2   486  ADP486      0.4393
     23  N6        24.7420   40.4540   14.6520 N.pl3 486  ADP486      0.2180
     24  N1        24.5980   40.0100   16.9190 N.2   486  ADP486      0.0021
     25  C2        23.9940   39.4020   17.9060 C.3   486  ADP486      0.5254
     26  N3        22.9960   38.5200   17.8560 N.2   486  ADP486     -0.0055
     27  C4        22.6250   38.2940   16.5830 C.2   486  ADP486      0.3518
@<TRIPOS>BOND
     1     7     5    2
     2    20    19    1
     3    20    21    2
     4    23    22    1
     5    19    18    1
     6     5     6    1
     7     5     8    1
     8     5     9    1
     9    21    22    1
    10    21    27    1
    11    22    24    2
    12     3     1    2
    13     8     1    1
    14    18    27    1
    15    18    17    1
    16     9    10    1
    17    10    11    1
    18     4     1    1
    19     1     2    1
    20    27    26    2
    21    12    17    1
    22    12    11    1
    23    24    25    1
    24    15    17    1
    25    15    13    1
    26    15    16    1
    27    11    13    1
    28    13    14    1
    29    26    25    1
