@<TRIPOS>MOLECULE
1nge_ATP_A_1.pdb
 31 33 0 0 0
SMALL
GASTEIGER

@<TRIPOS>ATOM
      1  PG        17.5530   28.5460   18.7210 P.3   486  ATP486      0.5373
      2  O1G       18.5150   28.3330   19.7990 O.3   486  ATP486     -0.1143
      3  O2G       16.9720   27.3050   18.1830 O.2   486  ATP486     -0.2221
      4  O3G       16.6260   29.6680   19.0120 O.3   486  ATP486     -0.1143
      5  PB        18.0300   29.5290   15.9790 P.3   486  ATP486      0.2277
      6  O1B       18.7360   28.5200   15.2230 O.2   486  ATP486     -0.5168
      7  O2B       16.5590   29.6590   15.7730 O.3   486  ATP486     -0.4368
      8  O3B       18.3750   29.1970   17.5070 O.3   486  ATP486     -0.2258
      9  PA        19.7040   31.7290   15.1230 P.3   486  ATP486      0.2189
     10  O1A       20.9560   30.9510   15.2580 O.3   486  ATP486     -0.4371
     11  O2A       19.2910   32.2490   13.8180 O.2   486  ATP486     -0.5170
     12  O3A       18.5920   30.9630   15.8890 O.3   486  ATP486     -0.2700
     13  O5'       19.8050   32.9080   16.1270 O.3   486  ATP486     -0.3112
     14  C5'       18.8740   33.9500   16.2570 C.3   486  ATP486      0.1813
     15  C4'       19.4050   34.9030   17.3370 C.3   486  ATP486      0.1821
     16  O4'       20.6640   35.4460   16.9040 O.3   486  ATP486     -0.3135
     17  C3'       18.4820   36.0950   17.6350 C.3   486  ATP486      0.2184
     18  O3'       18.4800   36.1560   19.0750 O.3   486  ATP486     -0.2174
     19  C2'       19.1820   37.2710   16.9490 C.3   486  ATP486      0.2570
     20  O2'       18.9740   38.4830   17.6870 O.3   486  ATP486     -0.2130
     21  C1'       20.6210   36.8500   17.0770 C.3   486  ATP486      0.3186
     22  N9        21.4630   37.5330   16.0890 N.pl3 486  ATP486     -0.1439
     23  C8        21.4080   37.6080   14.7100 C.3   486  ATP486      0.3377
     24  N7        22.3440   38.3790   14.1920 N.2   486  ATP486     -0.2095
     25  C5        23.0560   38.8400   15.3200 C.2   486  ATP486      0.2526
     26  C6        24.1540   39.6970   15.5120 C.2   486  ATP486      0.4393
     27  N6        24.7380   40.3620   14.5330 N.pl3 486  ATP486      0.2180
     28  N1        24.5850   39.9100   16.7680 N.2   486  ATP486      0.0021
     29  C2        23.9940   39.3470   17.7780 C.3   486  ATP486      0.5254
     30  N3        22.9500   38.5380   17.7520 N.2   486  ATP486     -0.0055
     31  C4        22.5250   38.3240   16.4680 C.2   486  ATP486      0.3518
@<TRIPOS>BOND
     1    11     9    2
     2    24    23    1
     3    24    25    2
     4    27    26    1
     5    23    22    1
     6     9    10    1
     7     9    12    1
     8     9    13    1
     9     6     5    2
    10    25    26    1
    11    25    31    1
    12    26    28    2
    13     7     5    1
    14    12     5    1
    15     5     8    1
    16    22    31    1
    17    22    21    1
    18    13    14    1
    19    14    15    1
    20    31    30    2
    21    28    29    1
    22    16    21    1
    23    16    15    1
    24    19    21    1
    25    19    17    1
    26    19    20    1
    27    15    17    1
    28     8     1    1
    29    17    18    1
    30    30    29    1
    31     3     1    2
    32     1     4    1
    33     1     2    1
