@<TRIPOS>MOLECULE
1ngf_ATP_A_1.pdb
 31 33 0 0 0
SMALL
GASTEIGER

@<TRIPOS>ATOM
      1  PG        17.6680   28.3410   18.6350 P.3   486  ATP486      0.5373
      2  O1G       16.9200   27.1550   18.1570 O.2   486  ATP486     -0.2221
      3  O2G       16.9380   29.2180   19.5720 O.3   486  ATP486     -0.1143
      4  O3G       19.0710   28.1280   19.0370 O.3   486  ATP486     -0.1143
      5  PB        17.9310   29.4370   15.8910 P.3   486  ATP486      0.2277
      6  O1B       16.5500   29.6070   15.3720 O.2   486  ATP486     -0.5168
      7  O2B       18.7180   28.2720   15.4680 O.3   486  ATP486     -0.4368
      8  O3B       17.7350   29.3750   17.4520 O.3   486  ATP486     -0.2258
      9  PA        19.7010   31.7250   15.1510 P.3   486  ATP486      0.2189
     10  O1A       20.9010   30.8610   15.1540 O.3   486  ATP486     -0.4371
     11  O2A       19.2290   32.3670   13.9150 O.2   486  ATP486     -0.5170
     12  O3A       18.6140   30.8770   15.9250 O.3   486  ATP486     -0.2700
     13  O5'       19.9420   32.9180   16.1340 O.3   486  ATP486     -0.3112
     14  C5'       19.0350   33.9800   16.2230 C.3   486  ATP486      0.1813
     15  C4'       19.4990   34.8460   17.3790 C.3   486  ATP486      0.1821
     16  O4'       20.7310   35.4000   16.9210 O.3   486  ATP486     -0.3135
     17  C3'       18.5360   36.0460   17.7770 C.3   486  ATP486      0.2184
     18  O3'       18.7260   36.0960   19.2190 O.3   486  ATP486     -0.2174
     19  C2'       19.1100   37.2210   16.9450 C.3   486  ATP486      0.2570
     20  O2'       18.8360   38.4890   17.6020 O.3   486  ATP486     -0.2130
     21  C1'       20.5990   36.8340   17.0750 C.3   486  ATP486      0.3186
     22  N9        21.5010   37.5210   16.1130 N.pl3 486  ATP486     -0.1439
     23  C8        21.5390   37.6030   14.7490 C.3   486  ATP486      0.3377
     24  N7        22.4940   38.3790   14.2980 N.2   486  ATP486     -0.2095
     25  C5        23.1270   38.8170   15.4830 C.2   486  ATP486      0.2526
     26  C6        24.1890   39.6620   15.7540 C.2   486  ATP486      0.4393
     27  N6        24.8270   40.3090   14.8040 N.pl3 486  ATP486      0.2180
     28  N1        24.5400   39.8750   17.0320 N.2   486  ATP486      0.0021
     29  C2        23.8720   39.2870   17.9940 C.3   486  ATP486      0.5254
     30  N3        22.8520   38.4790   17.8750 N.2   486  ATP486     -0.0055
     31  C4        22.5240   38.2870   16.5710 C.2   486  ATP486      0.3518
@<TRIPOS>BOND
     1    11     9    2
     2    24    23    1
     3    24    25    2
     4    23    22    1
     5    27    26    1
     6     9    10    1
     7     9    12    1
     8     9    13    1
     9     6     5    2
    10     7     5    1
    11    25    26    1
    12    25    31    1
    13    26    28    2
    14     5    12    1
    15     5     8    1
    16    22    31    1
    17    22    21    1
    18    13    14    1
    19    14    15    1
    20    31    30    2
    21    16    21    1
    22    16    15    1
    23    19    21    1
    24    19    20    1
    25    19    17    1
    26    28    29    1
    27    15    17    1
    28     8     1    1
    29    17    18    1
    30    30    29    1
    31     2     1    2
    32     1     4    1
    33     1     3    1
