@<TRIPOS>MOLECULE
1ngg_ATP_A_1.pdb
 31 33 0 0 0
SMALL
GASTEIGER

@<TRIPOS>ATOM
      1  PG        17.6620   28.5010   18.8770 P.3   486  ATP486      0.5373
      2  O1G       18.8950   28.4480   19.6880 O.3   486  ATP486     -0.1143
      3  O2G       17.2330   27.2320   18.2590 O.2   486  ATP486     -0.2221
      4  O3G       16.6190   29.3890   19.4620 O.3   486  ATP486     -0.1143
      5  PB        17.8420   29.5000   16.1440 P.3   486  ATP486      0.2277
      6  O1B       16.3920   29.6930   15.9250 O.3   486  ATP486     -0.4368
      7  O2B       18.5150   28.3820   15.4830 O.2   486  ATP486     -0.5168
      8  O3B       18.1280   29.3860   17.6760 O.3   486  ATP486     -0.2258
      9  PA        19.5930   31.6340   15.0650 P.3   486  ATP486      0.2189
     10  O1A       20.7450   30.7070   15.0560 O.3   486  ATP486     -0.4371
     11  O2A       19.1590   32.3230   13.8280 O.2   486  ATP486     -0.5170
     12  O3A       18.4900   30.9440   15.9340 O.3   486  ATP486     -0.2700
     13  O5'       19.8520   32.7850   16.0740 O.3   486  ATP486     -0.3112
     14  C5'       18.9610   33.8720   16.1460 C.3   486  ATP486      0.1813
     15  C4'       19.4000   34.8030   17.2570 C.3   486  ATP486      0.1821
     16  O4'       20.6350   35.3390   16.7550 O.3   486  ATP486     -0.3135
     17  C3'       18.4930   36.0040   17.6400 C.3   486  ATP486      0.2184
     18  O3'       18.6030   36.0540   19.0610 O.3   486  ATP486     -0.2174
     19  C2'       19.1870   37.1880   16.9460 C.3   486  ATP486      0.2570
     20  O2'       19.0790   38.3910   17.7270 O.3   486  ATP486     -0.2130
     21  C1'       20.6680   36.7320   17.0080 C.3   486  ATP486      0.3186
     22  N9        21.5680   37.4590   16.0470 N.pl3 486  ATP486     -0.1439
     23  C8        21.6040   37.5640   14.6650 C.3   486  ATP486      0.3377
     24  N7        22.5350   38.3990   14.2360 N.2   486  ATP486     -0.2095
     25  C5        23.1370   38.8600   15.4260 C.2   486  ATP486      0.2526
     26  C6        24.1710   39.7670   15.7250 C.2   486  ATP486      0.4393
     27  N6        24.8090   40.4530   14.7780 N.pl3 486  ATP486      0.2180
     28  N1        24.4790   39.9780   17.0220 N.2   486  ATP486      0.0021
     29  C2        23.8170   39.3300   17.9590 C.3   486  ATP486      0.5254
     30  N3        22.8310   38.4590   17.8090 N.2   486  ATP486     -0.0055
     31  C4        22.5490   38.2790   16.5070 C.2   486  ATP486      0.3518
@<TRIPOS>BOND
     1    11     9    2
     2    24    23    1
     3    24    25    2
     4    23    22    1
     5    27    26    1
     6    10     9    1
     7     9    12    1
     8     9    13    1
     9    25    26    1
    10    25    31    1
    11     7     5    2
    12    26    28    2
    13     6     5    1
    14    12     5    1
    15    22    31    1
    16    22    21    1
    17    13    14    1
    18     5     8    1
    19    14    15    1
    20    31    30    2
    21    16    21    1
    22    16    15    1
    23    19    21    1
    24    19    17    1
    25    19    20    1
    26    28    29    1
    27    15    17    1
    28    17    18    1
    29     8     1    1
    30    30    29    1
    31     3     1    2
    32     1     4    1
    33     1     2    1
