@<TRIPOS>MOLECULE
1ngh_ATP_A_1.pdb
 31 33 0 0 0
SMALL
GASTEIGER

@<TRIPOS>ATOM
      1  PG        17.5940   28.4900   18.8480 P.3   486  ATP486      0.5373
      2  O1G       18.4610   28.5730   20.0330 O.3   486  ATP486     -0.1143
      3  O2G       17.4090   27.1470   18.2810 O.2   486  ATP486     -0.2221
      4  O3G       16.4090   29.4010   18.9760 O.3   486  ATP486     -0.1143
      5  PB        17.9430   29.3370   16.1750 P.3   486  ATP486      0.2277
      6  O1B       18.5370   28.1130   15.6780 O.2   486  ATP486     -0.5168
      7  O2B       16.5310   29.6250   15.9230 O.3   486  ATP486     -0.4368
      8  O3B       18.2590   29.2810   17.6990 O.3   486  ATP486     -0.2258
      9  PA        19.7040   31.5010   15.1550 P.3   486  ATP486      0.2189
     10  O1A       20.9720   30.7280   15.2320 O.3   486  ATP486     -0.4371
     11  O2A       19.2130   32.0300   13.8690 O.2   486  ATP486     -0.5170
     12  O3A       18.6520   30.7210   15.9690 O.3   486  ATP486     -0.2700
     13  O5'       19.8470   32.6830   16.1690 O.3   486  ATP486     -0.3112
     14  C5'       18.9190   33.7370   16.3030 C.3   486  ATP486      0.1813
     15  C4'       19.4190   34.6980   17.3790 C.3   486  ATP486      0.1821
     16  O4'       20.6130   35.2460   16.8070 O.3   486  ATP486     -0.3135
     17  C3'       18.4960   35.9000   17.7770 C.3   486  ATP486      0.2184
     18  O3'       18.6070   35.9230   19.2430 O.3   486  ATP486     -0.2174
     19  C2'       19.1370   37.1010   17.0150 C.3   486  ATP486      0.2570
     20  O2'       19.0930   38.3730   17.7360 O.3   486  ATP486     -0.2130
     21  C1'       20.5910   36.6300   17.0620 C.3   486  ATP486      0.3186
     22  N9        21.4730   37.3520   16.1120 N.pl3 486  ATP486     -0.1439
     23  C8        21.4960   37.4470   14.7400 C.3   486  ATP486      0.3377
     24  N7        22.4310   38.2720   14.2860 N.2   486  ATP486     -0.2095
     25  C5        23.0490   38.7330   15.4570 C.2   486  ATP486      0.2526
     26  C6        24.1090   39.6300   15.6970 C.2   486  ATP486      0.4393
     27  N6        24.6770   40.2930   14.7150 N.pl3 486  ATP486      0.2180
     28  N1        24.5040   39.8740   16.9620 N.2   486  ATP486      0.0021
     29  C2        23.8710   39.2690   17.9480 C.3   486  ATP486      0.5254
     30  N3        22.8440   38.4120   17.8690 N.2   486  ATP486     -0.0055
     31  C4        22.4760   38.1800   16.5660 C.2   486  ATP486      0.3518
@<TRIPOS>BOND
     1    11     9    2
     2    24    23    1
     3    24    25    2
     4    27    26    1
     5    23    22    1
     6     9    10    1
     7     9    12    1
     8     9    13    1
     9    25    26    1
    10    25    31    1
    11     6     5    2
    12    26    28    2
    13     7     5    1
    14    12     5    1
    15    22    31    1
    16    22    21    1
    17    13    14    1
    18     5     8    1
    19    14    15    1
    20    31    30    2
    21    16    21    1
    22    16    15    1
    23    28    29    1
    24    19    21    1
    25    19    20    1
    26    19    17    1
    27    15    17    1
    28     8     1    1
    29    17    18    1
    30    30    29    1
    31     3     1    2
    32     1     4    1
    33     1     2    1
