@<TRIPOS>MOLECULE
1ngi_ANP_A_1.pdb
 31 33 0 0 0
SMALL
GASTEIGER

@<TRIPOS>ATOM
      1  PG        17.6910   28.3930   18.6950 P.3   486  ANP486      0.4884
      2  O1G       18.7170   28.2840   19.7360 O.3   486  ANP486     -0.1240
      3  O2G       17.1250   27.1050   18.2760 O.2   486  ANP486     -0.2331
      4  O3G       16.7810   29.5580   18.9080 O.3   486  ANP486     -0.1240
      5  PB        18.0120   29.3410   15.9530 P.3   486  ANP486      0.4669
      6  O1B       16.5530   29.5910   15.9700 O.3   486  ANP486     -0.1253
      7  O2B       18.5580   28.3760   14.9820 O.2   486  ANP486     -0.2351
      8  N3B       18.4340   28.8810   17.4080 N.3   486  ANP486     -0.0163
      9  PA        19.7090   31.6290   15.1730 P.3   486  ANP486      0.2220
     10  O1A       20.9060   30.7840   15.3030 O.3   486  ANP486     -0.4370
     11  O2A       19.3380   32.2070   13.8730 O.2   486  ANP486     -0.5170
     12  O3A       18.5480   30.8430   15.8760 O.3   486  ANP486     -0.2360
     13  O5'       19.8190   32.7850   16.1840 O.3   486  ANP486     -0.3111
     14  C5'       19.0440   33.9460   16.1220 C.3   486  ANP486      0.1813
     15  C4'       19.4260   34.7750   17.3400 C.3   486  ANP486      0.1821
     16  O4'       20.7170   35.3070   16.9490 O.3   486  ANP486     -0.3135
     17  C3'       18.4780   35.9510   17.7680 C.3   486  ANP486      0.2184
     18  O3'       18.5650   36.0290   19.2130 O.3   486  ANP486     -0.2174
     19  C2'       19.1370   37.1370   17.0370 C.3   486  ANP486      0.2570
     20  O2'       18.9890   38.3780   17.7420 O.3   486  ANP486     -0.2130
     21  C1'       20.6430   36.7120   17.1460 C.3   486  ANP486      0.3186
     22  N9        21.4990   37.4430   16.2030 N.pl3 486  ANP486     -0.1439
     23  C8        21.4830   37.5870   14.8470 C.3   486  ANP486      0.3377
     24  N7        22.3900   38.4240   14.4060 N.2   486  ANP486     -0.2095
     25  C5        23.0410   38.8450   15.5720 C.2   486  ANP486      0.2526
     26  C6        24.0950   39.7190   15.8320 C.2   486  ANP486      0.4393
     27  N6        24.6500   40.4220   14.8740 N.pl3 486  ANP486      0.2180
     28  N1        24.4910   39.8900   17.1100 N.2   486  ANP486      0.0021
     29  C2        23.8880   39.2420   18.0840 C.3   486  ANP486      0.5254
     30  N3        22.8710   38.3900   17.9780 N.2   486  ANP486     -0.0055
     31  C4        22.4990   38.2440   16.6620 C.2   486  ANP486      0.3518
@<TRIPOS>BOND
     1    11     9    2
     2    24    23    1
     3    24    25    2
     4    23    22    1
     5    27    26    1
     6     7     5    2
     7     9    10    1
     8     9    12    1
     9     9    13    1
    10    25    26    1
    11    25    31    1
    12    26    28    2
    13    12     5    1
    14     5     6    1
    15     5     8    1
    16    14    13    1
    17    14    15    1
    18    22    31    1
    19    22    21    1
    20    31    30    2
    21    16    21    1
    22    16    15    1
    23    19    21    1
    24    19    20    1
    25    19    17    1
    26    28    29    1
    27    15    17    1
    28     8     1    1
    29    17    18    1
    30    30    29    1
    31     3     1    2
    32     1     4    1
    33     1     2    1
