@<TRIPOS>MOLECULE
1ngj_ANP_A_1.pdb
 31 33 0 0 0
SMALL
GASTEIGER

@<TRIPOS>ATOM
      1  PG        17.7130   28.6280   18.8800 P.3   486  ANP486      0.4884
      2  O1G       18.8160   28.6630   19.8640 O.3   486  ANP486     -0.1240
      3  O2G       17.3770   27.2780   18.3710 O.2   486  ANP486     -0.2331
      4  O3G       16.5680   29.5240   19.2380 O.3   486  ANP486     -0.1240
      5  PB        18.0030   29.3490   16.1410 P.3   486  ANP486      0.4669
      6  O1B       18.7800   28.2530   15.5780 O.2   486  ANP486     -0.2351
      7  O2B       16.5330   29.3750   15.9460 O.3   486  ANP486     -0.1253
      8  N3B       18.3350   29.3920   17.6430 N.3   486  ANP486     -0.0163
      9  PA        19.6950   31.6250   15.3320 P.3   486  ANP486      0.2220
     10  O1A       20.8720   30.7600   15.6000 O.3   486  ANP486     -0.4370
     11  O2A       19.4370   32.1160   13.9660 O.2   486  ANP486     -0.5170
     12  O3A       18.4920   30.8290   15.8940 O.3   486  ANP486     -0.2360
     13  O5'       19.7730   32.8630   16.2930 O.3   486  ANP486     -0.3111
     14  C5'       19.0370   34.0600   16.1980 C.3   486  ANP486      0.1813
     15  C4'       19.3620   34.8470   17.4300 C.3   486  ANP486      0.1821
     16  O4'       20.6360   35.3790   17.0630 O.3   486  ANP486     -0.3135
     17  C3'       18.4700   36.0560   17.8260 C.3   486  ANP486      0.2184
     18  O3'       18.5940   36.1090   19.2750 O.3   486  ANP486     -0.2174
     19  C2'       19.1140   37.2500   17.0660 C.3   486  ANP486      0.2570
     20  O2'       19.0090   38.4460   17.8030 O.3   486  ANP486     -0.2130
     21  C1'       20.5840   36.8160   17.1870 C.3   486  ANP486      0.3186
     22  N9        21.4650   37.4730   16.1600 N.pl3 486  ANP486     -0.1439
     23  C8        21.4720   37.5900   14.7510 C.3   486  ANP486      0.3377
     24  N7        22.4330   38.4070   14.3150 N.2   486  ANP486     -0.2095
     25  C5        23.0750   38.8470   15.4710 C.2   486  ANP486      0.2526
     26  C6        24.1440   39.7290   15.6720 C.2   486  ANP486      0.4393
     27  N6        24.6450   40.3670   14.6310 N.pl3 486  ANP486      0.2180
     28  N1        24.5690   39.9700   16.9220 N.2   486  ANP486      0.0021
     29  C2        23.9550   39.3620   17.9180 C.3   486  ANP486      0.5254
     30  N3        22.9220   38.5090   17.8630 N.2   486  ANP486     -0.0055
     31  C4        22.5110   38.2860   16.5860 C.2   486  ANP486      0.3518
@<TRIPOS>BOND
     1    11     9    2
     2    24    23    1
     3    24    25    2
     4    27    26    1
     5    23    22    1
     6     9    10    1
     7     9    12    1
     8     9    13    1
     9    25    26    1
    10    25    31    1
    11     6     5    2
    12    26    28    2
    13    12     5    1
    14     7     5    1
    15     5     8    1
    16    22    31    1
    17    22    21    1
    18    14    13    1
    19    14    15    1
    20    31    30    2
    21    28    29    1
    22    16    21    1
    23    16    15    1
    24    19    21    1
    25    19    20    1
    26    19    17    1
    27    15    17    1
    28     8     1    1
    29    17    18    1
    30    30    29    1
    31     3     1    2
    32     1     4    1
    33     1     2    1
