@<TRIPOS>MOLECULE
1ngk_HEM_A_1.pdb
 43 50 0 0 0
SMALL
GASTEIGER

@<TRIPOS>ATOM
      1 FE         74.0290   -9.1040   18.2880 Fe    700  HEM700      0.0000
      2  CHA       74.5280   -6.0360   19.6350 C.2   700  HEM700      0.0000
      3  CHB       73.5760   -7.6530   15.1760 C.2   700  HEM700      0.0000
      4  CHC       72.9630  -12.0940   17.0480 C.2   700  HEM700      0.0000
      5  CHD       74.9330  -10.6420   21.2410 C.2   700  HEM700      0.0000
      6  NA        74.0210   -7.2030   17.5350 N.ar  700  HEM700      0.0000
      7  C1A       74.3030   -6.0710   18.2670 C.ar  700  HEM700      0.0000
      8  C2A       74.3050   -4.9350   17.3680 C.ar  700  HEM700      0.0000
      9  C3A       74.0350   -5.3790   16.1410 C.ar  700  HEM700      0.0000
     10  C4A       73.8540   -6.8120   16.2250 C.ar  700  HEM700      0.0000
     11  CMA       73.9200   -4.5480   14.8410 C.3   700  HEM700      0.0000
     12  CAA       74.5930   -3.4650   17.7730 C.3   700  HEM700      0.0000
     13  CBA       76.0990   -3.3010   17.5650 C.3   700  HEM700      0.0000
     14  CGA       76.5890   -1.9370   18.0000 C.2   700  HEM700      0.0000
     15  O1A       76.7860   -1.0480   17.1320 O.co2 700  HEM700      0.0000
     16  O2A       76.8130   -1.7360   19.2220 O.co2 700  HEM700      0.0000
     17  NB        73.3980   -9.7440   16.4500 N.2   700  HEM700      0.0000
     18  C1B       73.2830   -8.9900   15.2970 C.2   700  HEM700      0.0000
     19  C2B       72.7710   -9.8290   14.2430 C.2   700  HEM700      0.0000
     20  C3B       72.5950  -11.0490   14.7640 C.2   700  HEM700      0.0000
     21  C4B       72.9860  -11.0270   16.1640 C.2   700  HEM700      0.0000
     22  CMB       72.4990   -9.3630   12.7910 C.3   700  HEM700      0.0000
     23  CAB       72.0660  -12.2820   14.0340 C.2   700  HEM700      0.0000
     24  CBB       71.1470  -13.0360   14.6580 C.2   700  HEM700      0.0000
     25  NC        73.9510  -10.9930   19.0130 N.ar  700  HEM700      0.0000
     26  C1C       73.5040  -12.1090   18.3210 C.ar  700  HEM700      0.0000
     27  C2C       73.6810  -13.2710   19.1670 C.ar  700  HEM700      0.0000
     28  C3C       74.2370  -12.8480   20.3200 C.ar  700  HEM700      0.0000
     29  C4C       74.4100  -11.4240   20.2380 C.ar  700  HEM700      0.0000
     30  CMC       73.3120  -14.7300   18.7680 C.3   700  HEM700      0.0000
     31  CAC       74.6510  -13.6370   21.5840 C.2   700  HEM700      0.0000
     32  CBC       74.4400  -14.9440   21.7230 C.2   700  HEM700      0.0000
     33  ND        74.6480   -8.4660   20.1410 N.2   700  HEM700      0.0000
     34  C1D       74.9230   -9.2700   21.2420 C.2   700  HEM700      0.0000
     35  C2D       75.2530   -8.4430   22.3800 C.2   700  HEM700      0.0000
     36  C3D       75.1190   -7.0150   21.8730 C.2   700  HEM700      0.0000
     37  C4D       74.7410   -7.1160   20.4730 C.2   700  HEM700      0.0000
     38  CMD       75.6390   -8.8720   23.8180 C.3   700  HEM700      0.0000
     39  CAD       75.3400   -5.7430   22.7120 C.3   700  HEM700      0.0000
     40  CBD       74.0930   -5.5300   23.5700 C.3   700  HEM700      0.0000
     41  CGD       74.3470   -4.3180   24.4440 C.2   700  HEM700      0.0000
     42  O1D       73.9280   -3.1890   24.0610 O.co2 700  HEM700      0.0000
     43  O2D       74.9890   -4.4790   25.5140 O.co2 700  HEM700      0.0000
@<TRIPOS>BOND
     1    22    19    1
     2    23    24    2
     3    23    20    1
     4    19    20    2
     5    19    18    1
     6    20    21    1
     7    11     9    1
     8     3    18    1
     9     3    10    2
    10    18    17    2
    11     9    10   ar
    12     9     8   ar
    13    21    17    1
    14    21     4    2
    15    10     6   ar
    16    17     1    1
    17     4    26    1
    18    15    14   ar
    19     8    12    1
    20     8     7   ar
    21     6     7   ar
    22     6     1    1
    23    13    12    1
    24    13    14    1
    25    14    16   ar
    26     7     2    2
    27     1    25    1
    28     1    33    1
    29    26    25   ar
    30    26    27   ar
    31    30    27    1
    32    25    29   ar
    33    27    28   ar
    34     2    37    1
    35    33    37    2
    36    33    34    1
    37    29    28   ar
    38    29     5    1
    39    28    31    1
    40    37    36    1
    41     5    34    2
    42    34    35    1
    43    31    32    2
    44    36    35    2
    45    36    39    1
    46    35    38    1
    47    39    40    1
    48    40    41    1
    49    42    41   ar
    50    41    43   ar
