@<TRIPOS>MOLECULE
1ngp_NPA_H_1.pdb
 14 14 0 0 0
SMALL
GASTEIGER

@<TRIPOS>ATOM
      1  C1        73.4220   29.0490   43.3870 C.ar  302  NPA302     -0.0091
      2  C2        72.5600   29.4200   42.4250 C.ar  302  NPA302      0.0237
      3  C3        73.0770   29.9980   41.2870 C.ar  302  NPA302      0.1812
      4  C4        74.4320   30.2450   41.0950 C.ar  302  NPA302      0.2179
      5  C5        75.3010   29.8740   42.0880 C.ar  302  NPA302      0.0435
      6  C6        74.7940   29.2950   43.2040 C.ar  302  NPA302     -0.0003
      7  C7        72.8900   28.4110   44.6280 C.3   302  NPA302      0.1404
      8  C8        72.8150   29.4250   45.7640 C.2   302  NPA302      0.3692
      9  N1        72.1280   30.3130   40.2990 N.pl3 302  NPA302      0.0609
     10  O1        70.9490   30.1050   40.4580 O.2   302  NPA302     -0.1260
     11  O2        72.5790   30.8150   39.2750 O.2   302  NPA302     -0.1260
     12  O3        75.0330   30.8050   40.0300 O.3   302  NPA302     -0.2848
     13  O4        73.7150   29.4150   46.5670 O.co2 302  NPA302     -0.2453
     14  O5        71.7590   30.1390   45.8490 O.co2 302  NPA302     -0.2453
@<TRIPOS>BOND
     1    11     9    2
     2    12     4    1
     3     9    10    2
     4     9     3    1
     5     4     3   ar
     6     4     5   ar
     7     3     2   ar
     8     5     6   ar
     9     2     1   ar
    10     6     1   ar
    11     1     7    1
    12     7     8    1
    13     8    14   ar
    14     8    13   ar
