@<TRIPOS>MOLECULE
1ngs_TPP_A_1.pdb
 26 27 0 0 0
SMALL
GASTEIGER

@<TRIPOS>ATOM
      1  N1'       -3.0600   60.8580   19.4500 N.2   682  TPP682     -0.1861
      2  C2'       -2.3190   59.9830   20.1370 C.1   682  TPP682      0.0663
      3  CM2       -1.0420   60.4340   20.6800 C.3   682  TPP682      0.1291
      4  N3'       -2.7500   58.7630   20.3680 N.2   682  TPP682     -0.3368
      5  C4'       -3.9590   58.3310   19.8410 C.2   682  TPP682      0.2292
      6  N4'       -4.3200   57.0810   20.1630 N.pl3 682  TPP682     -0.0925
      7  C5'       -4.8050   59.2390   19.1310 C.2   682  TPP682      0.0654
      8  C6'       -4.2930   60.4870   18.9630 C.2   682  TPP682      0.1115
      9  C7'       -6.2230   58.8990   18.7170 C.3   682  TPP682      0.1237
     10  N3        -6.2010   58.0880   17.4190 N.pl3 682  TPP682     -0.2970
     11  C2        -6.1430   56.7500   17.3140 C.3   682  TPP682      0.1543
     12  S1        -5.8580   56.2080   15.7210 S.3   682  TPP682     -0.0951
     13  C5        -5.9110   57.8160   15.2000 C.2   682  TPP682      0.0164
     14  C4        -6.1370   58.6690   16.2540 C.2   682  TPP682      0.0279
     15  CM4       -6.3310   60.1220   16.1630 C.3   682  TPP682      0.0473
     16  C6        -5.7560   58.1700   13.7540 C.3   682  TPP682      0.0661
     17  C7        -5.5440   57.0140   12.8710 C.3   682  TPP682      0.1544
     18  O7        -4.4580   57.3950   12.0300 O.3   682  TPP682     -0.3134
     19  PA        -3.5910   56.2680   11.4430 P.3   682  TPP682      0.2230
     20  O1A       -2.2380   56.0150   12.0660 O.3   682  TPP682     -0.4370
     21  O2A       -3.6240   56.7530   10.0660 O.2   682  TPP682     -0.5169
     22  O3A       -4.5310   54.9840   11.2030 O.3   682  TPP682     -0.2261
     23  PB        -5.7210   54.3680   10.3140 P.3   682  TPP682      0.5373
     24  O1B       -4.9100   54.2480    9.0900 O.2   682  TPP682     -0.2221
     25  O2B       -6.0140   53.0610   10.9190 O.3   682  TPP682     -0.1143
     26  O3B       -6.8960   55.2840   10.3500 O.3   682  TPP682     -0.1143
@<TRIPOS>BOND
     1    24    23    2
     2    21    19    2
     3    23    26    1
     4    23    25    1
     5    23    22    1
     6    22    19    1
     7    19    18    1
     8    19    20    1
     9    18    17    1
    10    17    16    1
    11    16    13    1
    12    13    12    1
    13    13    14    2
    14    12    11    1
    15    15    14    1
    16    14    10    1
    17    11    10    1
    18    10     9    1
    19     9     7    1
    20     8     7    2
    21     8     1    1
    22     7     5    1
    23     1     2    2
    24     5     6    1
    25     5     4    2
    26     2     4    2
    27     2     3    1
