@<TRIPOS>MOLECULE
1ngs_E4P_A_1.pdb
 12 11 0 0 0
SMALL
GASTEIGER

@<TRIPOS>ATOM
      1  C1        -9.9900   55.1720   17.3410 C.2   900  E4P900      0.2427
      2  O1        -8.7770   55.1580   17.0720 O.2   900  E4P900     -0.2854
      3  C2       -10.4880   55.5090   18.7400 C.3   900  E4P900      0.2485
      4  O2        -9.6440   54.9340   19.7560 O.3   900  E4P900     -0.2118
      5  C3       -11.8990   54.9470   18.8760 C.3   900  E4P900      0.2197
      6  O3       -12.4240   54.5770   17.5840 O.3   900  E4P900     -0.2172
      7  C4       -12.7840   56.0420   19.4430 C.3   900  E4P900      0.1896
      8  O4       -14.0610   55.4490   19.6620 O.3   900  E4P900     -0.2674
      9  P        -15.0170   56.4400   20.1920 P.3   900  E4P900      0.5327
     10  O1P      -16.5140   55.9360   19.9280 O.3   900  E4P900     -0.1145
     11  O2P      -14.7780   57.8290   19.4490 O.2   900  E4P900     -0.2224
     12  O3P      -14.7710   56.6070   21.7650 O.3   900  E4P900     -0.1145
@<TRIPOS>BOND
     1     2     1    2
     2     1     3    1
     3     6     5    1
     4     3     5    1
     5     3     4    1
     6     5     7    1
     7     7     8    1
     8    11     9    2
     9     8     9    1
    10    10     9    1
    11     9    12    1
