@<TRIPOS>MOLECULE
1ngw_MMP_B_1.pdb
 42 46 0 0 0
SMALL
GASTEIGER

@<TRIPOS>ATOM
      1  N1        13.2860   83.7470    3.1780 N.2   217  MMP217     -0.3673
      2  C11       11.9070   83.9870    3.2830 C.1   217  MMP217      0.0084
      3  C12       11.5960   84.4970    4.6310 C.2   217  MMP217      0.0336
      4  C13       12.8020   84.5580    5.3330 C.2   217  MMP217      0.0138
      5  C14       13.8440   84.0880    4.4100 C.2   217  MMP217      0.1469
      6  C15       15.2290   83.9890    4.7180 C.2   217  MMP217      0.0981
      7  C16       10.2070   84.8880    5.1680 C.3   217  MMP217      0.0412
      8  C17       13.0000   85.0380    6.8190 C.3   217  MMP217      0.0293
      9  C18       13.2570   83.8350    7.7400 C.3   217  MMP217      0.0051
     10  N2        15.8430   82.1550    3.1760 N.2   217  MMP217     -0.3338
     11  C21       16.1440   83.0380    4.1980 C.1   217  MMP217      0.0112
     12  C22       17.3940   82.6310    4.8440 C.2   217  MMP217      0.0401
     13  C23       17.8430   81.4980    4.1950 C.2   217  MMP217      0.0398
     14  C24       16.8700   81.2040    3.1560 C.1   217  MMP217      0.0112
     15  C25       16.9370   80.0910    2.2380 C.2   217  MMP217      0.0981
     16  C26       18.0810   83.3310    6.0250 C.3   217  MMP217      0.0418
     17  C27       19.1440   80.6850    4.5140 C.3   217  MMP217      0.0364
     18  C28       18.8390   79.5890    5.5480 C.3   217  MMP217      0.0058
     19  N3        14.9150   80.6770    0.9810 N.2   217  MMP217     -0.3673
     20  C31       15.9950   79.8330    1.2050 C.2   217  MMP217      0.1469
     21  C32       16.2580   79.0540   -0.0200 C.2   217  MMP217      0.0141
     22  C33       15.3240   79.4590   -0.9770 C.2   217  MMP217      0.0338
     23  C34       14.4900   80.4850   -0.3210 C.1   217  MMP217      0.0085
     24  C35       13.6590   81.4000   -0.9880 C.2   217  MMP217      0.1301
     25  C36       17.3700   77.9810   -0.2250 C.3   217  MMP217      0.0341
     26  C37       15.1880   78.9180   -2.4760 C.3   217  MMP217      0.0476
     27  C38       16.0390   79.7250   -3.5410 C.3   217  MMP217      0.1194
     28  C39       15.1970   80.2650   -4.7410 C.2   217  MMP217      0.3652
     29  O31       15.6620   81.3230   -5.4990 O.co2 217  MMP217     -0.2456
     30  O32       13.9840   79.6960   -5.0670 O.co2 217  MMP217     -0.2456
     31  N4        12.5900   82.9200    0.5880 N.2   217  MMP217     -0.3327
     32  C41       12.5280   81.9670   -0.4050 C.1   217  MMP217      0.0183
     33  C42       11.1450   81.6550   -0.7360 C.2   217  MMP217      0.0410
     34  C43       10.3670   82.4640    0.1020 C.2   217  MMP217      0.0408
     35  C44       11.2880   83.2570    0.9340 C.1   217  MMP217      0.0183
     36  C45       10.9650   83.7620    2.2260 C.2   217  MMP217      0.1301
     37  C46        8.8030   82.5120    0.1440 C.3   217  MMP217      0.0418
     38  C47       10.6090   80.6120   -1.8200 C.3   217  MMP217      0.0482
     39  C48       10.4100   81.1580   -3.2870 C.3   217  MMP217      0.1194
     40  C49        9.8760   80.0770   -4.2780 C.2   217  MMP217      0.3652
     41  O41       10.5320   79.8250   -5.4710 O.co2 217  MMP217     -0.2456
     42  O42        8.7380   79.3650   -3.9730 O.co2 217  MMP217     -0.2456
@<TRIPOS>BOND
     1    29    28   ar
     2    41    40   ar
     3    30    28   ar
     4    28    27    1
     5    40    42   ar
     6    40    39    1
     7    27    26    1
     8    39    38    1
     9    26    22    1
    10    38    33    1
    11    24    32    1
    12    24    23    2
    13    22    23    1
    14    22    21    2
    15    33    32    2
    16    33    34    1
    17    32    31    2
    18    23    19    2
    19    25    21    1
    20    21    20    1
    21    34    37    1
    22    34    35    2
    23    31    35    2
    24    35    36    1
    25    19    20    2
    26    20    15    1
    27    36     2    2
    28    15    14    2
    29    14    10    2
    30    14    13    1
    31    10    11    2
    32     1     2    2
    33     1     5    2
    34     2     3    1
    35    13    17    1
    36    13    12    2
    37    11     6    2
    38    11    12    1
    39     5     6    1
    40     5     4    1
    41    17    18    1
    42     3     7    1
    43     3     4    2
    44    12    16    1
    45     4     8    1
    46     8     9    1
