@<TRIPOS>MOLECULE
1ngx_JEF_B_1.pdb
 28 27 0 0 0
SMALL
GASTEIGER

@<TRIPOS>ATOM
      1  C19       50.0320   41.6180   47.2920 C.3   700  JEF700      0.0346
      2  C20       48.7390   41.1310   46.6100 C.3   700  JEF700      0.1422
      3  O         49.0150   39.9230   45.8830 O.3   700  JEF700     -0.3537
      4  C         47.8260   39.3970   45.2060 C.3   700  JEF700      0.1448
      5  C18       46.3880   39.4740   45.8170 C.3   700  JEF700      0.0347
      6  C17       48.1020   38.1060   44.4120 C.3   700  JEF700      0.1715
      7  OH        47.1670   37.9900   43.3280 O.3   700  JEF700     -0.3511
      8  C2        47.5060   36.8630   42.5110 C.3   700  JEF700      0.1449
      9  C1        48.4640   36.4760   41.3700 C.3   700  JEF700      0.0347
     10  C3        46.6260   35.6450   42.8890 C.3   700  JEF700      0.1715
     11  O2        45.2110   35.9780   42.7860 O.3   700  JEF700     -0.3511
     12  C5        44.4220   34.8930   43.3100 C.3   700  JEF700      0.1449
     13  C6        43.2990   35.4480   44.2260 C.3   700  JEF700      0.0347
     14  C4        43.7890   34.0550   42.1760 C.3   700  JEF700      0.1715
     15  O3        43.5960   34.9100   41.0260 O.3   700  JEF700     -0.3511
     16  C7        43.2870   34.3020   39.7370 C.3   700  JEF700      0.1449
     17  C9        44.1990   33.1260   39.2650 C.3   700  JEF700      0.0347
     18  C8        41.8390   33.7880   39.7550 C.3   700  JEF700      0.1715
     19  O4        40.9830   34.9190   39.5710 O.3   700  JEF700     -0.3511
     20  C11       39.6320   34.8090   40.0830 C.3   700  JEF700      0.1449
     21  C12       38.5900   34.2500   39.0790 C.3   700  JEF700      0.0347
     22  C10       39.2080   36.2330   40.4810 C.3   700  JEF700      0.1715
     23  O5        40.3340   36.8880   41.0970 O.3   700  JEF700     -0.3511
     24  C13       40.1270   38.2530   41.5230 C.3   700  JEF700      0.1449
     25  C15       41.0620   39.2920   40.8580 C.3   700  JEF700      0.0347
     26  C14       40.3690   38.2860   43.0400 C.3   700  JEF700      0.1716
     27  O6        39.2820   38.9750   43.6800 O.3   700  JEF700     -0.3485
     28  C16       39.7190   40.2620   44.1440 C.3   700  JEF700      0.1742
@<TRIPOS>BOND
     1    21    20    1
     2    17    16    1
     3    19    18    1
     4    19    20    1
     5    16    18    1
     6    16    15    1
     7    20    22    1
     8    22    23    1
     9    25    24    1
    10    15    14    1
    11    23    24    1
    12     9     8    1
    13    24    26    1
    14    14    12    1
    15     8    10    1
    16     8     7    1
    17    11    10    1
    18    11    12    1
    19    26    27    1
    20    12    13    1
    21     7     6    1
    22    27    28    1
    23     6     4    1
    24     4     5    1
    25     4     3    1
    26     3     2    1
    27     2     1    1
