@<TRIPOS>MOLECULE
1nh6_NAG_A_1.pdb
 15 15 0 0 0
SMALL
GASTEIGER

@<TRIPOS>ATOM
      1  C1        11.1060   20.1170   70.7820 C.3   700  NAG700      0.2917
      2  C2        12.0870   21.2660   71.0260 C.3   700  NAG700      0.1871
      3  C3        11.3920   22.6360   70.8530 C.3   700  NAG700      0.2095
      4  C4        10.5750   22.7040   69.5400 C.3   700  NAG700      0.2136
      5  C5         9.6790   21.4600   69.4360 C.3   700  NAG700      0.1835
      6  C6         8.8760   21.3820   68.1550 C.3   700  NAG700      0.2142
      7  C7        13.9440   21.0600   72.5520 C.2   700  NAG700      0.2421
      8  C8        14.4660   21.3170   73.9570 C.3   700  NAG700      0.0964
      9  N2        12.6310   21.1540   72.3680 N.am  700  NAG700     -0.1991
     10  O1        11.7880   18.9120   70.7810 O.3   700  NAG700     -0.1879
     11  O3        12.3770   23.6600   70.8580 O.3   700  NAG700     -0.2183
     12  O4         9.7360   23.8820   69.5410 O.3   700  NAG700     -0.2176
     13  O5        10.4820   20.2670   69.5070 O.3   700  NAG700     -0.3242
     14  O6         9.7280   21.2080   67.0350 O.3   700  NAG700     -0.2176
     15  O7        14.7320   20.7820   71.6440 O.2   700  NAG700     -0.2733
@<TRIPOS>BOND
     1    14     6    1
     2     6     5    1
     3     5    13    1
     4     5     4    1
     5    13     1    1
     6     4    12    1
     7     4     3    1
     8    10     1    1
     9     1     2    1
    10     3    11    1
    11     3     2    1
    12     2     9    1
    13    15     7    2
    14     9     7   am
    15     7     8    1
