@<TRIPOS>MOLECULE
1nh8_AMP_A_1.pdb
 23 25 0 0 0
SMALL
GASTEIGER

@<TRIPOS>ATOM
      1  P         40.2720   48.0440   50.1180 P.3   288  AMP288      0.5327
      2  O1P       38.9810   48.7120   50.4260 O.3   288  AMP288     -0.1145
      3  O2P       40.0830   46.9900   49.0120 O.2   288  AMP288     -0.2224
      4  O3P       41.2520   49.1100   49.6260 O.3   288  AMP288     -0.1145
      5  O5'       40.7130   47.3280   51.4860 O.3   288  AMP288     -0.2675
      6  C5'       42.0250   46.8840   51.7250 C.3   288  AMP288      0.1860
      7  C4'       42.0470   45.5020   52.3840 C.3   288  AMP288      0.1823
      8  O4'       40.7710   44.8710   52.4880 O.3   288  AMP288     -0.3135
      9  C3'       42.9350   44.5590   51.5850 C.3   288  AMP288      0.2184
     10  O3'       44.2320   44.5060   52.1480 O.3   288  AMP288     -0.2174
     11  C2'       42.2030   43.2220   51.6160 C.3   288  AMP288      0.2570
     12  O2'       42.9810   42.1600   52.1310 O.3   288  AMP288     -0.2130
     13  C1'       40.9540   43.4660   52.4600 C.3   288  AMP288      0.3186
     14  N9        39.8550   42.7190   51.8160 N.pl3 288  AMP288     -0.1439
     15  C8        39.3030   42.9730   50.5860 C.3   288  AMP288      0.3377
     16  N7        38.3530   42.0420   50.3390 N.2   288  AMP288     -0.2095
     17  C5        38.2920   41.1890   51.3880 C.2   288  AMP288      0.2526
     18  C6        37.5030   40.0740   51.6520 C.2   288  AMP288      0.4393
     19  N6        36.5970   39.6690   50.7730 N.pl3 288  AMP288      0.2180
     20  N1        37.6650   39.3800   52.8350 N.2   288  AMP288      0.0021
     21  C2        38.6160   39.7980   53.7470 C.3   288  AMP288      0.5254
     22  N3        39.3930   40.9100   53.4820 N.2   288  AMP288     -0.0055
     23  C4        39.2370   41.5980   52.3220 C.2   288  AMP288      0.3518
@<TRIPOS>BOND
     1     3     1    2
     2     4     1    1
     3     1     2    1
     4     1     5    1
     5    16    15    1
     6    16    17    2
     7    15    14    1
     8    19    18    1
     9    17    18    1
    10    17    23    1
    11     5     6    1
    12     9    11    1
    13     9    10    1
    14     9     7    1
    15    11    12    1
    16    11    13    1
    17    18    20    2
    18     6     7    1
    19    14    23    1
    20    14    13    1
    21    23    22    2
    22     7     8    1
    23    13     8    1
    24    20    21    1
    25    22    21    1
