@<TRIPOS>MOLECULE
1nh8_HIS_A_1.pdb
 10 10 0 0 0
SMALL
GASTEIGER

@<TRIPOS>ATOM
      1  N         63.6950   38.9500   88.2490 N.3   289  HIS289     -0.1241
      2  CA        64.4360   38.5470   87.0160 C.3   289  HIS289      0.1618
      3  C         65.3550   39.6590   86.5150 C.2   289  HIS289      0.2264
      4  O         65.9950   39.4500   85.4660 O.2   289  HIS289     -0.2867
      5  CB        63.4530   38.1800   85.9070 C.3   289  HIS289      0.0704
      6  CG        62.4580   39.2590   85.6100 C.2   289  HIS289      0.0649
      7  ND1       61.1970   39.2840   86.1670 N.2   289  HIS289     -0.2310
      8  CD2       62.5610   40.3830   84.8630 C.3   289  HIS289      0.1683
      9  CE1       60.5670   40.3790   85.7770 C.2   289  HIS289      0.1939
     10  NE2       61.3740   41.0640   84.9870 N.2   289  HIS289     -0.2440
@<TRIPOS>BOND
     1     8    10    1
     2     8     6    1
     3    10     9    2
     4     4     3    2
     5     6     5    1
     6     6     7    2
     7     9     7    1
     8     5     2    1
     9     3     2    1
    10     2     1    1
