@<TRIPOS>MOLECULE
1nhc_MAN_A_1.pdb
 11 11 0 0 0
SMALL
GASTEIGER

@<TRIPOS>ATOM
      1  C1        31.4810   34.5710   22.1740 C.3   402  MAN402      0.1777
      2  C2        31.9170   35.7310   23.0450 C.3   402  MAN402      0.2141
      3  C3        33.0020   35.2730   24.0210 C.3   402  MAN402      0.2173
      4  C4        32.4100   34.1310   24.8350 C.3   402  MAN402      0.2142
      5  C5        31.8870   33.0390   23.9040 C.3   402  MAN402      0.1810
      6  C6        31.1430   31.9660   24.6810 C.3   402  MAN402      0.2141
      7  O2        30.7610   36.1240   23.7380 O.3   402  MAN402     -0.2176
      8  O3        33.3930   36.3860   24.8130 O.3   402  MAN402     -0.2175
      9  O4        33.3720   33.5740   25.7110 O.3   402  MAN402     -0.2176
     10  O5        30.9480   33.5360   22.9730 O.3   402  MAN402     -0.3481
     11  O6        30.9460   30.8290   23.8880 O.3   402  MAN402     -0.2176
@<TRIPOS>BOND
     1     1    10    1
     2     1     2    1
     3    10     5    1
     4     2     7    1
     5     2     3    1
     6    11     6    1
     7     5     6    1
     8     5     4    1
     9     3     8    1
    10     3     4    1
    11     4     9    1
