@<TRIPOS>MOLECULE
1nhe_UDP_B_1.pdb
 25 26 0 0 0
SMALL
GASTEIGER

@<TRIPOS>ATOM
      1  N1       -11.3600   17.3530  -17.1760 N.am  809  UDP809     -0.1766
      2  C2       -11.0420   16.7810  -15.9250 C.1   809  UDP809      0.2845
      3  N3       -10.8680   15.3940  -15.9410 N.2   809  UDP809     -0.2452
      4  C4       -10.9860   14.5370  -17.0690 C.1   809  UDP809      0.2182
      5  C5       -11.3060   15.2110  -18.2940 C.2   809  UDP809      0.1242
      6  C6       -11.4800   16.5210  -18.3210 C.2   809  UDP809      0.0929
      7  O2       -10.9450   17.5110  -14.9500 O.2   809  UDP809     -0.1918
      8  O4       -10.8180   13.3260  -16.9650 O.2   809  UDP809     -0.2085
      9  C1'      -11.5750   18.8600  -17.2110 C.3   809  UDP809      0.2401
     10  C2'      -10.4250   19.7910  -17.0520 C.3   809  UDP809      0.2319
     11  O2'      -10.7760   20.9850  -16.3140 O.3   809  UDP809     -0.2157
     12  C3'      -10.0600   20.0490  -18.4900 C.3   809  UDP809      0.2158
     13  C4'      -11.3970   20.1140  -19.2200 C.3   809  UDP809      0.1799
     14  O4'      -12.1360   19.1050  -18.4970 O.3   809  UDP809     -0.3320
     15  O3'       -9.3360   21.2530  -18.6720 O.3   809  UDP809     -0.2175
     16  C5'      -11.2660   19.8070  -20.7090 C.3   809  UDP809      0.1813
     17  O5'       -9.9520   19.5980  -21.2920 O.3   809  UDP809     -0.3111
     18  PA        -9.7240   19.2510  -22.8480 P.3   809  UDP809      0.2231
     19  O1A       -8.7120   18.1550  -22.9600 O.3   809  UDP809     -0.4370
     20  O2A      -10.9720   19.0190  -23.6320 O.2   809  UDP809     -0.5169
     21  O3A       -9.1070   20.7400  -23.3620 O.3   809  UDP809     -0.2261
     22  PB        -9.2450   21.4640  -24.7780 P.3   809  UDP809      0.5373
     23  O1B       -8.4040   22.8120  -24.4840 O.3   809  UDP809     -0.1143
     24  O2B       -8.4850   20.5920  -25.7400 O.2   809  UDP809     -0.2221
     25  O3B      -10.6610   21.4180  -25.2650 O.3   809  UDP809     -0.1143
@<TRIPOS>BOND
     1    24    22    2
     2    25    22    1
     3    22    23    1
     4    22    21    1
     5    20    18    2
     6    21    18    1
     7    19    18    1
     8    18    17    1
     9    17    16    1
    10    16    13    1
    11    13    14    1
    12    13    12    1
    13    15    12    1
    14    14     9    1
    15    12    10    1
    16     6     5    2
    17     6     1    1
    18     5     4    1
    19     9     1    1
    20     9    10    1
    21     1     2   am
    22     4     8    2
    23     4     3    2
    24    10    11    1
    25     3     2    2
    26     2     7    2
