@<TRIPOS>MOLECULE
1nhg_NAD_A_1.pdb
 44 48 0 0 0
SMALL
GASTEIGER

@<TRIPOS>ATOM
      1  PA        51.3140   89.5410   40.9740 P.3   450  NAD450      0.2189
      2  O1A       51.0180   89.5680   42.4330 O.3   450  NAD450     -0.4371
      3  O2A       52.7680   89.6390   40.5410 O.2   450  NAD450     -0.5170
      4  O5B       50.6520   88.1500   40.4360 O.3   450  NAD450     -0.3112
      5  C5B       51.0160   87.3740   39.2690 C.3   450  NAD450      0.1813
      6  C4B       51.3800   85.9850   39.6790 C.3   450  NAD450      0.1821
      7  O4B       51.5240   85.0360   38.5740 O.3   450  NAD450     -0.3135
      8  C3B       52.7050   85.9280   40.4570 C.3   450  NAD450      0.2184
      9  O3B       52.3590   85.7990   41.8540 O.3   450  NAD450     -0.2174
     10  C2B       53.4600   84.7210   39.8900 C.3   450  NAD450      0.2570
     11  O2B       53.9970   83.9480   40.9380 O.3   450  NAD450     -0.2130
     12  C1B       52.4140   83.9990   38.9930 C.3   450  NAD450      0.3186
     13  N9A       53.0210   83.3700   37.7900 N.pl3 450  NAD450     -0.1439
     14  C8A       53.8890   83.5960   36.7410 C.3   450  NAD450      0.3377
     15  N7A       54.0710   82.5860   35.9040 N.2   450  NAD450     -0.2095
     16  C5A       53.2550   81.5950   36.4260 C.2   450  NAD450      0.2526
     17  C6A       53.0050   80.2790   36.0270 C.2   450  NAD450      0.4393
     18  N6A       53.5750   79.7070   34.9800 N.pl3 450  NAD450      0.2180
     19  N1A       52.1420   79.5470   36.7620 N.2   450  NAD450      0.0021
     20  C2A       51.5100   80.1180   37.8120 C.3   450  NAD450      0.5254
     21  N3A       51.7160   81.3250   38.3480 N.2   450  NAD450     -0.0055
     22  C4A       52.5960   82.0550   37.5820 C.2   450  NAD450      0.3518
     23  O3        50.7730   90.6350   40.0570 O.3   450  NAD450     -0.2703
     24  PN        49.4090   91.2150   39.8160 P.3   450  NAD450      0.2189
     25  O1N       48.5110   91.2190   41.0130 O.3   450  NAD450     -0.4371
     26  O2N       49.6700   92.5020   39.1300 O.2   450  NAD450     -0.5170
     27  O5D       48.9130   90.3500   38.5700 O.3   450  NAD450     -0.3112
     28  C5D       47.8100   89.4440   38.5890 C.3   450  NAD450      0.1813
     29  C4D       46.9520   89.7240   37.3400 C.3   450  NAD450      0.1799
     30  O4D       46.4590   91.1020   37.3760 O.3   450  NAD450     -0.3327
     31  C3D       47.7700   89.5630   36.0550 C.3   450  NAD450      0.2158
     32  O3D       46.9980   88.7940   35.1890 O.3   450  NAD450     -0.2175
     33  C2D       47.9280   90.9730   35.5990 C.3   450  NAD450      0.2309
     34  O2D       48.0820   91.0240   34.2090 O.3   450  NAD450     -0.2158
     35  C1D       46.6410   91.5860   36.0510 C.3   450  NAD450      0.2263
     36  N1N       46.5870   93.0520   36.0400 N.pl3 450  NAD450     -0.2787
     37  C2N       47.4160   93.7680   36.9400 C.3   450  NAD450      0.1244
     38  C3N       47.5460   95.1470   37.0640 C.2   450  NAD450      0.0544
     39  C7N       48.3870   95.9120   38.0010 C.2   450  NAD450      0.2818
     40  O7N       48.5620   97.2360   37.9050 O.2   450  NAD450     -0.2670
     41  N7N       49.1000   95.3880   38.9870 N.am  450  NAD450     -0.0839
     42  C4N       46.6230   95.7620   36.2220 C.2   450  NAD450      0.0033
     43  C5N       45.6780   95.1530   35.3280 C.2   450  NAD450      0.0157
     44  C6N       45.6880   93.7170   35.2370 C.2   450  NAD450      0.0633
@<TRIPOS>BOND
     1    34    33    1
     2    18    17    1
     3    32    31    1
     4    44    43    2
     5    44    36    1
     6    43    42    1
     7    33    35    1
     8    33    31    1
     9    15    16    2
    10    15    14    1
    11    17    16    1
    12    17    19    2
    13    36    35    1
    14    36    37    1
    15    35    30    1
    16    31    29    1
    17    42    38    2
    18    16    22    1
    19    14    13    1
    20    19    20    1
    21    37    38    1
    22    38    39    1
    23    29    30    1
    24    29    28    1
    25    22    13    1
    26    22    21    2
    27    13    12    1
    28    20    21    1
    29    40    39    2
    30    39    41   am
    31    27    28    1
    32    27    24    1
    33     7    12    1
    34     7     6    1
    35    12    10    1
    36    26    24    2
    37     5     6    1
    38     5     4    1
    39     6     8    1
    40    24    23    1
    41    24    25    1
    42    10     8    1
    43    10    11    1
    44    23     1    1
    45     4     1    1
    46     8     9    1
    47     3     1    2
    48     1     2    1
