@<TRIPOS>MOLECULE
1nhg_TCL_A_1.pdb
 17 18 0 0 0
SMALL
GASTEIGER

@<TRIPOS>ATOM
      1  C1        49.2360   95.7350   33.8340 C.ar  500  TCL500      0.0566
      2  C2        49.9030   96.7370   34.6340 C.ar  500  TCL500      0.0611
      3  C6        49.5870   94.3320   34.0470 C.ar  500  TCL500      0.2307
      4  C5        50.6080   93.9410   35.0670 C.ar  500  TCL500      0.1840
      5  C4        51.2540   94.9660   35.8440 C.ar  500  TCL500      0.0417
      6  C3        50.9030   96.3660   35.6290 C.ar  500  TCL500      0.0147
      7  C11       54.1920   90.4650   33.3180 C.ar  500  TCL500      0.0587
      8  C10       53.4150   89.7560   34.4050 C.ar  500  TCL500      0.0259
      9  C9        52.3510   90.4890   35.0520 C.ar  500  TCL500      0.0929
     10  C8        52.0580   91.9470   34.6130 C.ar  500  TCL500      0.1559
     11  C12       53.8750   91.7870   32.9620 C.ar  500  TCL500      0.0146
     12  C13       52.8920   92.5320   33.5280 C.ar  500  TCL500      0.0392
     13  O7        50.9930   92.6050   35.3200 O.3   500  TCL500     -0.4494
     14 CL14       49.5510   98.3340   34.4540 Cl    500  TCL500     -0.0821
     15 CL15       55.4230   89.5830   32.6000 Cl    500  TCL500     -0.0822
     16 CL16       51.4760   89.7450   36.2620 Cl    500  TCL500     -0.0790
     17  O17       48.9430   93.3860   33.2740 O.3   500  TCL500     -0.2833
@<TRIPOS>BOND
     1    15     7    1
     2    11     7   ar
     3    11    12   ar
     4    17     3    1
     5     7     8   ar
     6    12    10   ar
     7     1     3   ar
     8     1     2   ar
     9     3     4   ar
    10     8     9   ar
    11    14     2    1
    12    10     9   ar
    13    10    13    1
    14     2     6   ar
    15     9    16    1
    16     4    13    1
    17     4     5   ar
    18     6     5   ar
