@<TRIPOS>MOLECULE
1nhh_ANP_A_1.pdb
 31 33 0 0 0
SMALL
GASTEIGER

@<TRIPOS>ATOM
      1  PG        -3.4630   25.6920   56.5980 P.3   380  ANP380      0.4884
      2  O1G       -2.5020   26.6520   56.0060 O.2   380  ANP380     -0.2331
      3  O2G       -2.8340   24.6930   57.2780 O.3   380  ANP380     -0.1240
      4  O3G       -4.4450   26.3060   57.5650 O.3   380  ANP380     -0.1240
      5  PB        -4.2790   23.7270   54.4910 P.3   380  ANP380      0.4669
      6  O1B       -5.2930   23.7990   53.4470 O.2   380  ANP380     -0.2351
      7  O2B       -4.3040   22.4940   55.2070 O.3   380  ANP380     -0.1253
      8  N3B       -4.4580   25.0620   55.4170 N.3   380  ANP380     -0.0163
      9  PA        -1.5360   23.0740   53.7680 P.3   380  ANP380      0.2220
     10  O1A       -1.2290   22.6020   55.0580 O.3   380  ANP380     -0.4370
     11  O2A       -0.5120   23.7930   52.9970 O.2   380  ANP380     -0.5170
     12  O3A       -2.8630   23.9600   53.8060 O.3   380  ANP380     -0.2360
     13  O5'       -1.9370   21.8580   52.8320 O.3   380  ANP380     -0.3111
     14  C5'       -2.3270   21.9240   51.5010 C.3   380  ANP380      0.1813
     15  C4'       -3.5010   21.1300   50.9080 C.3   380  ANP380      0.1821
     16  O4'       -2.6380   19.9790   50.6990 O.3   380  ANP380     -0.3135
     17  C3'       -4.6290   20.6780   51.8310 C.3   380  ANP380      0.2184
     18  O3'       -5.6870   21.5890   51.7000 O.3   380  ANP380     -0.2174
     19  C2'       -4.8490   19.2400   51.3890 C.3   380  ANP380      0.2570
     20  O2'       -5.8440   19.2310   50.3700 O.3   380  ANP380     -0.2130
     21  C1'       -3.4110   18.8130   50.9810 C.3   380  ANP380      0.3186
     22  N9        -2.5750   18.0630   51.9980 N.pl3 380  ANP380     -0.1439
     23  C8        -1.5090   18.4290   52.8140 C.3   380  ANP380      0.3377
     24  N7        -0.9930   17.5250   53.5990 N.2   380  ANP380     -0.2095
     25  C5        -1.7650   16.4390   53.2910 C.2   380  ANP380      0.2526
     26  C6        -1.8380   15.0160   53.7430 C.2   380  ANP380      0.4393
     27  N6        -0.9890   14.5410   54.6550 N.pl3 380  ANP380      0.2180
     28  N1        -2.7960   14.1200   53.2000 N.2   380  ANP380      0.0021
     29  C2        -3.7110   14.5530   52.2360 C.3   380  ANP380      0.5254
     30  N3        -3.7400   15.8600   51.7460 N.2   380  ANP380     -0.0055
     31  C4        -2.7660   16.7480   52.3040 C.2   380  ANP380      0.3518
@<TRIPOS>BOND
     1    20    19    1
     2    16    15    1
     3    16    21    1
     4    15    14    1
     5    15    17    1
     6    21    19    1
     7    21    22    1
     8    19    17    1
     9    14    13    1
    10    18    17    1
    11    30    29    1
    12    30    31    2
    13    22    31    1
    14    22    23    1
    15    29    28    1
    16    31    25    1
    17    23    24    1
    18    13     9    1
    19    11     9    2
    20    28    26    2
    21    25    24    2
    22    25    26    1
    23     6     5    2
    24    26    27    1
    25     9    12    1
    26     9    10    1
    27    12     5    1
    28     5     7    1
    29     5     8    1
    30     8     1    1
    31     2     1    2
    32     1     3    1
    33     1     4    1
