@<TRIPOS>MOLECULE
1nhi_ANP_A_1.pdb
 31 33 0 0 0
SMALL
GASTEIGER

@<TRIPOS>ATOM
      1  PG        -3.2580   25.7510   56.8010 P.3   380  ANP380      0.4884
      2  O1G       -2.2440   26.6020   56.1650 O.2   380  ANP380     -0.2331
      3  O2G       -2.7040   24.7660   57.5450 O.3   380  ANP380     -0.1240
      4  O3G       -4.2020   26.4720   57.7330 O.3   380  ANP380     -0.1240
      5  PB        -4.0970   23.7150   54.7570 P.3   380  ANP380      0.4669
      6  O1B       -5.1220   23.6990   53.7260 O.2   380  ANP380     -0.2351
      7  O2B       -4.0790   22.4900   55.5020 O.3   380  ANP380     -0.1253
      8  N3B       -4.2990   25.0850   55.6610 N.3   380  ANP380     -0.0163
      9  PA        -1.3530   23.2010   53.9710 P.3   380  ANP380      0.2220
     10  O1A       -1.0110   22.7040   55.2200 O.3   380  ANP380     -0.4370
     11  O2A       -0.3830   24.0090   53.1730 O.2   380  ANP380     -0.5170
     12  O3A       -2.7160   24.0130   54.0380 O.3   380  ANP380     -0.2360
     13  O5'       -1.7340   21.9740   53.0570 O.3   380  ANP380     -0.3111
     14  C5'       -2.1480   22.0380   51.7300 C.3   380  ANP380      0.1813
     15  C4'       -3.2920   21.1960   51.1850 C.3   380  ANP380      0.1821
     16  O4'       -2.4220   20.0370   51.0040 O.3   380  ANP380     -0.3135
     17  C3'       -4.4230   20.7630   52.1320 C.3   380  ANP380      0.2184
     18  O3'       -5.4770   21.6710   51.9650 O.3   380  ANP380     -0.2174
     19  C2'       -4.6590   19.3260   51.7120 C.3   380  ANP380      0.2570
     20  O2'       -5.6210   19.3620   50.6800 O.3   380  ANP380     -0.2130
     21  C1'       -3.2280   18.8820   51.3110 C.3   380  ANP380      0.3186
     22  N9        -2.4110   18.0960   52.3240 N.pl3 380  ANP380     -0.1439
     23  C8        -1.3660   18.4130   53.1840 C.3   380  ANP380      0.3377
     24  N7        -0.8770   17.4620   53.9280 N.2   380  ANP380     -0.2095
     25  C5        -1.6390   16.4140   53.5510 C.2   380  ANP380      0.2526
     26  C6        -1.7230   14.9590   53.9140 C.2   380  ANP380      0.4393
     27  N6        -0.8980   14.4410   54.8140 N.pl3 380  ANP380      0.2180
     28  N1        -2.6820   14.0860   53.3020 N.2   380  ANP380      0.0021
     29  C2        -3.5800   14.5810   52.3390 C.3   380  ANP380      0.5254
     30  N3        -3.5800   15.9240   51.9350 N.2   380  ANP380     -0.0055
     31  C4        -2.6110   16.7750   52.5570 C.2   380  ANP380      0.3518
@<TRIPOS>BOND
     1    20    19    1
     2    16    15    1
     3    16    21    1
     4    15    14    1
     5    15    17    1
     6    21    19    1
     7    21    22    1
     8    19    17    1
     9    14    13    1
    10    30    29    1
    11    30    31    2
    12    18    17    1
    13    22    31    1
    14    22    23    1
    15    29    28    1
    16    31    25    1
    17    13     9    1
    18    11     9    2
    19    23    24    1
    20    28    26    2
    21    25    26    1
    22    25    24    2
    23     6     5    2
    24    26    27    1
    25     9    12    1
    26     9    10    1
    27    12     5    1
    28     5     7    1
    29     5     8    1
    30     8     1    1
    31     2     1    2
    32     1     3    1
    33     1     4    1
