@<TRIPOS>MOLECULE
1nhj_ANP_A_1.pdb
 31 33 0 0 0
SMALL
GASTEIGER

@<TRIPOS>ATOM
      1  PG        -3.3210   26.3440   56.9500 P.3   380  ANP380      0.4884
      2  O1G       -2.2820   26.9940   56.1820 O.2   380  ANP380     -0.2331
      3  O2G       -2.7820   25.3520   57.7550 O.3   380  ANP380     -0.1240
      4  O3G       -4.1590   27.1910   57.7860 O.3   380  ANP380     -0.1240
      5  PB        -4.1730   24.4090   54.8370 P.3   380  ANP380      0.4669
      6  O1B       -5.1070   24.5810   53.7660 O.2   380  ANP380     -0.2351
      7  O2B       -4.2070   23.1060   55.4380 O.3   380  ANP380     -0.1253
      8  N3B       -4.3740   25.6840   55.8610 N.3   380  ANP380     -0.0163
      9  PA        -1.3780   23.8450   53.9080 P.3   380  ANP380      0.2220
     10  O1A       -1.0190   23.1850   55.1280 O.3   380  ANP380     -0.4370
     11  O2A       -0.4160   24.6750   53.1620 O.2   380  ANP380     -0.5170
     12  O3A       -2.7570   24.6600   54.1440 O.3   380  ANP380     -0.2360
     13  O5'       -1.5770   22.6510   52.8320 O.3   380  ANP380     -0.3111
     14  C5'       -2.8140   22.6170   52.2050 C.3   380  ANP380      0.1813
     15  C4'       -3.4400   21.6600   51.2300 C.3   380  ANP380      0.1821
     16  O4'       -2.6180   20.4970   51.0400 O.3   380  ANP380     -0.3135
     17  C3'       -4.5880   21.2550   52.1190 C.3   380  ANP380      0.2184
     18  O3'       -5.6570   22.1700   51.9190 O.3   380  ANP380     -0.2174
     19  C2'       -4.8230   19.8020   51.7930 C.3   380  ANP380      0.2570
     20  O2'       -5.7920   19.7540   50.7930 O.3   380  ANP380     -0.2130
     21  C1'       -3.4180   19.3560   51.3690 C.3   380  ANP380      0.3186
     22  N9        -2.6040   18.5740   52.3390 N.pl3 380  ANP380     -0.1439
     23  C8        -1.5980   18.9390   53.2130 C.3   380  ANP380      0.3377
     24  N7        -1.0670   18.0030   53.9540 N.2   380  ANP380     -0.2095
     25  C5        -1.7570   16.8960   53.5570 C.2   380  ANP380      0.2526
     26  C6        -1.7390   15.4760   53.9140 C.2   380  ANP380      0.4393
     27  N6        -0.9010   14.9840   54.8350 N.pl3 380  ANP380      0.2180
     28  N1        -2.6160   14.5850   53.2920 N.2   380  ANP380      0.0021
     29  C2        -3.5120   15.0300   52.3350 C.3   380  ANP380      0.5254
     30  N3        -3.6120   16.3270   51.9250 N.2   380  ANP380     -0.0055
     31  C4        -2.7350   17.2080   52.5460 C.2   380  ANP380      0.3518
@<TRIPOS>BOND
     1    20    19    1
     2    16    15    1
     3    16    21    1
     4    15    17    1
     5    15    14    1
     6    21    19    1
     7    21    22    1
     8    19    17    1
     9    18    17    1
    10    30    29    1
    11    30    31    2
    12    14    13    1
    13    29    28    1
    14    22    31    1
    15    22    23    1
    16    31    25    1
    17    13     9    1
    18    11     9    2
    19    23    24    1
    20    28    26    2
    21    25    26    1
    22    25    24    2
    23     6     5    2
    24     9    12    1
    25     9    10    1
    26    26    27    1
    27    12     5    1
    28     5     7    1
    29     5     8    1
    30     8     1    1
    31     2     1    2
    32     1     3    1
    33     1     4    1
