@<TRIPOS>MOLECULE
1nhk_CMP_L_1.pdb
 23 25 0 0 0
SMALL
GASTEIGER

@<TRIPOS>ATOM
      1  P         31.2030   54.4540   12.8640 P.3   146  CMP146      0.2955
      2  P         31.2420   54.4130   12.8630 P.3   146  CMP146      0.2954
      3  O1P       30.8420   53.0240   12.6920 O.3   146  CMP146     -0.1680
      4  O2P       31.4550   55.2540   11.6420 O.3   146  CMP146     -0.1680
      5  O5'       32.6010   54.4040   13.7390 O.3   146  CMP146     -0.3089
      6  C5'       32.6020   54.1060   15.1480 C.3   146  CMP146      0.1812
      7  C4'       31.2230   54.2500   15.7530 C.3   146  CMP146      0.1793
      8  O4'       31.2020   54.3960   17.1550 O.3   146  CMP146     -0.3136
      9  C3'       30.5240   55.4970   15.2380 C.3   146  CMP146      0.1883
     10  O3'       30.1850   55.3130   13.8450 O.3   146  CMP146     -0.3086
     11  C2'       29.3500   55.6330   16.2110 C.3   146  CMP146      0.2541
     12  O2'       28.3130   54.7430   15.8350 O.3   146  CMP146     -0.2131
     13  C1'       29.9570   55.0290   17.4870 C.3   146  CMP146      0.3185
     14  N9        30.1090   55.9760   18.6080 N.pl3 146  CMP146     -0.1439
     15  C8        29.5260   55.9200   19.8420 C.3   146  CMP146      0.3377
     16  N7        29.8010   56.9360   20.5970 N.2   146  CMP146     -0.2095
     17  C5        30.6170   57.7270   19.8060 C.2   146  CMP146      0.2526
     18  C6        31.1510   59.0060   19.9880 C.2   146  CMP146      0.4393
     19  N6        30.7850   59.7800   20.9900 N.pl3 146  CMP146      0.2180
     20  N1        31.9560   59.5020   19.0390 N.2   146  CMP146      0.0021
     21  C2        32.0930   58.8010   17.9190 C.3   146  CMP146      0.5254
     22  N3        31.5350   57.6480   17.5640 N.2   146  CMP146     -0.0055
     23  C4        30.8010   57.1560   18.5840 C.2   146  CMP146      0.3518
@<TRIPOS>BOND
     1     4     1    1
     2     3     2    1
     3     2     5    1
     4     1    10    1
     5     5     6    1
     6    10     9    1
     7     6     7    1
     8     9     7    1
     9     9    11    1
    10     7     8    1
    11    12    11    1
    12    11    13    1
    13     8    13    1
    14    13    14    1
    15    22    21    1
    16    22    23    2
    17    21    20    1
    18    23    14    1
    19    23    17    1
    20    14    15    1
    21    20    18    2
    22    17    18    1
    23    17    16    2
    24    15    16    1
    25    18    19    1
