@<TRIPOS>MOLECULE
1nht_GDP_A_1.pdb
 40 42 0 0 0
SMALL
GASTEIGER

@<TRIPOS>ATOM
      1  PB        -4.1250   47.1100   45.4970 P.3   432  GDP432      0.5373
      2  O1B       -5.3080   48.0180   45.6310 O.3   432  GDP432     -0.1143
      3  O2B       -4.1540   46.0070   46.5200 O.3   432  GDP432     -0.1143
      4  O3B       -4.0920   46.5030   44.1360 O.2   432  GDP432     -0.2221
      5  O3A       -2.8400   47.9280   45.7340 O.3   432  GDP432     -0.2261
      6  PA        -2.6430   49.2510   44.9710 P.3   432  GDP432      0.2224
      7  O1A       -2.7690   48.9810   43.5590 O.2   432  GDP432     -0.5170
      8  O2A       -3.6320   50.2290   45.4010 O.3   432  GDP432     -0.4370
      9  O5'       -1.2150   49.7860   45.2550 O.3   432  GDP432     -0.3245
     10  C5'       -0.1630   48.8820   45.4030 C.3   432  GDP432      0.0836
     11  C4'        0.9190   49.8680   44.8530 C.3   432  GDP432      0.1131
     12  O4'        2.2520   49.3880   45.0580 O.3   432  GDP432     -0.3474
     13  C3'        0.8470   50.1400   43.3510 C.3   432  GDP432      0.1133
     14  O3'        1.7310   51.2020   43.1300 O.3   432  GDP432     -0.3864
     15  C2'        1.6290   48.9130   42.8860 C.3   432  GDP432      0.1266
     16  O2'        2.1190   48.9160   41.5450 O.3   432  GDP432     -0.3849
     17  C1'        2.8020   48.9110   43.8810 C.3   432  GDP432      0.1617
     18  N9         3.3330   47.7150   44.3370 N.pl3 432  GDP432     -0.2241
     19  C8         2.7540   46.5390   44.4320 C.2   432  GDP432      0.1451
     20  N7         3.5530   45.5700   44.9320 N.2   432  GDP432     -0.3865
     21  C5         4.7380   46.2370   45.1780 C.2   432  GDP432      0.2296
     22  C6         5.8640   45.7300   45.6910 C.2   432  GDP432      0.2859
     23  O6         6.0040   44.5700   46.0710 O.2   432  GDP432     -0.2668
     24  N1         6.8770   46.6570   45.7840 N.am  432  GDP432     -0.2418
     25  C2         6.6880   47.9680   45.4310 C.2   432  GDP432      0.2395
     26  N2         7.7200   48.7800   45.6570 N.pl3 432  GDP432     -0.3206
     27  N3         5.5580   48.4840   44.9230 N.2   432  GDP432     -0.3551
     28  C4         4.6330   47.5440   44.8170 C.2   432  GDP432      0.2272
     29  H5'        0.0200   48.6770   46.4590 H     432  GDP432      0.0591
     30 H5''       -0.2210   47.9630   44.8230 H     432  GDP432      0.0591
     31  H4'        0.8010   50.8040   45.3990 H     432  GDP432      0.0647
     32  H3'       -0.1530   50.2800   42.9490 H     432  GDP432      0.0647
     33 HO3'        1.8610   51.6770   43.9610 H     432  GDP432      0.2100
     34  H2'        0.9850   48.0490   43.0290 H     432  GDP432      0.0663
     35 HO2'        2.5500   48.0680   41.4010 H     432  GDP432      0.2101
     36  H1'        3.5870   49.5790   43.5220 H     432  GDP432      0.0841
     37  H8         1.7400   46.3370   44.0910 H     432  GDP432      0.1149
     38  HN1        7.7880   46.3760   46.1280 H     432  GDP432      0.1589
     39 HN21        7.6050   49.5910   46.1990 H     432  GDP432      0.1459
     40 HN22        8.6240   48.5510   45.3510 H     432  GDP432      0.1459
@<TRIPOS>BOND
     1    35    16    1
     2    16    15    1
     3    15    34    1
     4    15    13    1
     5    15    17    1
     6    32    13    1
     7    14    13    1
     8    14    33    1
     9    13    11    1
    10    36    17    1
    11     7     6    2
    12    17    18    1
    13    17    12    1
    14    37    19    1
    15     4     1    2
    16    18    19    1
    17    18    28    1
    18    19    20    2
    19    28    27    2
    20    28    21    1
    21    30    10    1
    22    11    12    1
    23    11    31    1
    24    11    10    1
    25    27    25    2
    26    20    21    2
    27     6     9    1
    28     6     8    1
    29     6     5    1
    30    21    22    1
    31     9    10    1
    32    40    26    1
    33    10    29    1
    34    25    26    1
    35    25    24    1
    36     1     2    1
    37     1     5    1
    38     1     3    1
    39    26    39    1
    40    22    24   am
    41    22    23    2
    42    24    38    1
