@<TRIPOS>MOLECULE
1nht_PGS_A_1.pdb
 37 39 0 0 0
SMALL
GASTEIGER

@<TRIPOS>ATOM
      1  PA       -16.1620   53.8630   49.8770 P.3   440  PGS440      0.5320
      2  O1A      -16.0950   54.4640   48.5160 O.2   440  PGS440     -0.2224
      3  O2A      -17.4910   54.0910   50.4470 O.3   440  PGS440     -0.1145
      4  O3A      -15.8480   52.4150   49.8300 O.3   440  PGS440     -0.1145
      5  O5'      -15.0660   54.5870   50.7900 O.3   440  PGS440     -0.2809
      6  C5'      -15.0380   54.3520   52.2550 C.3   440  PGS440      0.0880
      7  C4'      -13.7100   54.4050   52.8740 C.3   440  PGS440      0.1153
      8  O4'      -13.0960   53.2240   52.4530 O.3   440  PGS440     -0.3290
      9  C3'      -12.7200   55.5190   52.5770 C.3   440  PGS440      0.1156
     10  O3'      -11.7190   55.4470   53.6220 O.3   440  PGS440     -0.3863
     11  C2'      -11.9880   55.0050   51.3310 C.3   440  PGS440      0.1480
     12  O2'      -10.5790   55.2130   51.1370 O.3   440  PGS440     -0.3825
     13  C1'      -11.8630   53.5650   51.7820 C.3   440  PGS440      0.2295
     14  N9       -11.5780   52.9620   50.5750 N.pl3 440  PGS440     -0.1349
     15  C8       -12.4800   52.3580   49.7040 C.2   440  PGS440      0.2299
     16  N7       -11.9500   51.5100   48.9110 N.2   440  PGS440     -0.3669
     17  C5       -10.6200   51.5360   49.2360 C.2   440  PGS440      0.2189
     18  C6        -9.6360   50.7880   48.6750 C.3   440  PGS440      0.1773
     19  S6        -9.7900   49.5880   47.3490 S.3   440  PGS440     -0.0038
     20  P         -8.2320   48.6720   47.1060 P.3   440  PGS440      0.4469
     21  O1P       -8.8530   47.4430   46.5500 O.3   440  PGS440     -0.1297
     22  O2P       -7.3550   48.3340   48.2250 O.3   440  PGS440     -0.1297
     23  O3P       -7.4480   49.4130   46.0700 O.2   440  PGS440     -0.2411
     24  N1        -8.4230   51.0080   49.2670 N.3   440  PGS440     -0.2381
     25  C2        -8.2680   51.9620   50.2370 C.3   440  PGS440      0.3399
     26  N3        -9.2410   52.7120   50.7730 N.2   440  PGS440     -0.0433
     27  C4       -10.3840   52.4120   50.2390 C.2   440  PGS440      0.3550
     28 H5'1      -15.5220   53.4140   52.5280 H     440  PGS440      0.0592
     29 H5'2      -15.6230   55.1590   52.6940 H     440  PGS440      0.0592
     30  H4'      -13.8550   54.3630   53.9570 H     440  PGS440      0.0647
     31  H3'      -13.1260   56.5250   52.5180 H     440  PGS440      0.0648
     32 HO3'      -12.1220   55.0130   54.3860 H     440  PGS440      0.2100
     33  H2'      -12.6090   55.1310   50.4420 H     440  PGS440      0.0687
     34 HO2'      -10.1370   54.3640   51.0180 H     440  PGS440      0.2102
     35  H1'      -11.0320   53.4650   52.4840 H     440  PGS440      0.1122
     36  H8       -13.5530   52.5290   49.7420 H     440  PGS440      0.1440
     37  HN1       -7.6090   50.4870   48.9720 H     440  PGS440      0.1284
@<TRIPOS>BOND
     1    23    20    2
     2    21    20    1
     3    20    19    1
     4    20    22    1
     5    19    18    1
     6     2     1    2
     7    18    17    1
     8    18    24    1
     9    16    17    2
    10    16    15    2
    11    37    24    1
    12    17    27    1
    13    24    25    1
    14    15    36    1
    15    15    14    1
    16     4     1    1
    17     1     3    1
    18     1     5    1
    19    25    26    1
    20    27    14    1
    21    27    26    2
    22    33    11    1
    23    14    13    1
    24     5     6    1
    25    34    12    1
    26    12    11    1
    27    11    13    1
    28    11     9    1
    29    13     8    1
    30    13    35    1
    31     6    28    1
    32     6    29    1
    33     6     7    1
    34     8     7    1
    35    31     9    1
    36     9     7    1
    37     9    10    1
    38     7    30    1
    39    10    32    1
