@<TRIPOS>MOLECULE
1nhu_153_A_1.pdb
 33 35 0 0 0
SMALL
GASTEIGER

@<TRIPOS>ATOM
      1  N1         7.3180   33.2600   77.8600 N.am  5001  1535001    -0.2633
      2  C2         7.1460   32.8210   76.3930 C.3   5001  1535001     0.1838
      3  C3         5.6810   32.9860   75.8330 C.2   5001  1535001     0.3828
      4  O4         5.4030   32.5250   74.6950 O.co2 5001  1535001    -0.2438
      5  O5         4.8390   33.5880   76.5270 O.co2 5001  1535001    -0.2438
      6  C6         7.2500   34.6300   78.2460 C.2   5001  1535001     0.2505
      7  O7         6.8810   34.9810   79.3550 O.2   5001  1535001    -0.2699
      8  C8         7.6660   35.7540   77.3020 C.ar  5001  1535001     0.0642
      9  C9         6.6330   36.4720   76.6380 C.ar  5001  1535001     0.0062
     10  C10        6.9640   37.5310   75.7610 C.ar  5001  1535001     0.0116
     11  C11        8.3290   37.8700   75.5480 C.ar  5001  1535001     0.0585
     12  C12        9.3600   37.1560   76.2120 C.ar  5001  1535001     0.0229
     13  C13        9.0400   36.1000   77.0890 C.ar  5001  1535001     0.0629
     14 CL14        8.7340   39.1510   74.4800 Cl    5001  1535001    -0.0822
     15 CL15       10.3320   35.2670   77.8840 Cl    5001  1535001    -0.0821
     16  C16        7.6790   31.3640   76.1200 C.3   5001  1535001     0.0578
     17  C17        9.1880   31.1640   76.0270 C.ar  5001  1535001    -0.0199
     18  C18        9.7150   29.8360   75.8460 C.ar  5001  1535001    -0.0042
     19  C19       11.1140   29.6040   75.7620 C.ar  5001  1535001    -0.0003
     20  C20       12.0130   30.7040   75.8610 C.ar  5001  1535001    -0.0000
     21  C21       11.5100   32.0260   76.0400 C.ar  5001  1535001    -0.0003
     22  C22       10.1100   32.2520   76.1210 C.ar  5001  1535001    -0.0042
     23  C23        7.5490   32.1750   78.9240 C.3   5001  1535001     0.1209
     24  C24        8.9060   32.2070   79.6980 C.ar  5001  1535001    -0.0024
     25  C25        9.3060   33.3470   80.4750 C.ar  5001  1535001    -0.0026
     26  C26       10.5410   33.3880   81.1820 C.ar  5001  1535001    -0.0003
     27  C27       11.4390   32.3020   81.1550 C.ar  5001  1535001     0.0038
     28  C28       11.0680   31.1560   80.4000 C.ar  5001  1535001     0.0712
     29  C29        9.8160   31.1020   79.6760 C.ar  5001  1535001     0.0012
     30  C30       11.9980   29.9280   80.3290 C.3   5001  1535001     0.4186
     31  F31       12.9640   30.1320   79.4200 F     5001  1535001    -0.1659
     32  F32       11.3230   28.8130   79.9770 F     5001  1535001    -0.1659
     33  F33       12.5800   29.6930   81.5150 F     5001  1535001    -0.1659
@<TRIPOS>BOND
     1    14    11    1
     2     4     3   ar
     3    11    10   ar
     4    11    12   ar
     5    10     9   ar
     6    19    18   ar
     7    19    20   ar
     8     3     2    1
     9     3     5   ar
    10    18    17   ar
    11    20    21   ar
    12    17    16    1
    13    17    22   ar
    14    21    22   ar
    15    16     2    1
    16    12    13   ar
    17     2     1    1
    18     9     8   ar
    19    13     8   ar
    20    13    15    1
    21     8     6    1
    22     1     6   am
    23     1    23    1
    24     6     7    2
    25    23    24    1
    26    31    30    1
    27    29    24   ar
    28    29    28   ar
    29    24    25   ar
    30    32    30    1
    31    30    28    1
    32    30    33    1
    33    28    27   ar
    34    25    26   ar
    35    27    26   ar
