@<TRIPOS>MOLECULE
1nhv_154_A_1.pdb
 37 41 0 0 0
SMALL
GASTEIGER

@<TRIPOS>ATOM
      1  N1         6.5680   34.6840   75.2740 N.am  5001  1545001    -0.2628
      2  C2         6.5680   34.1080   73.8690 C.3   5001  1545001     0.1839
      3  C3         5.1370   34.1580   73.3280 C.2   5001  1545001     0.3828
      4  O4         4.9100   33.7840   72.1540 O.co2 5001  1545001    -0.2438
      5  O5         4.2650   34.5920   74.1100 O.co2 5001  1545001    -0.2438
      6  C6         6.5730   36.0950   75.4920 C.2   5001  1545001     0.2505
      7  O7         6.1380   36.5960   76.5120 O.2   5001  1545001    -0.2699
      8  C8         7.1520   37.0740   74.4740 C.ar  5001  1545001     0.0642
      9  C9         6.2340   37.7810   73.6470 C.ar  5001  1545001     0.0062
     10  C10        6.7020   38.7110   72.6900 C.ar  5001  1545001     0.0116
     11  C11        8.1010   38.9410   72.5530 C.ar  5001  1545001     0.0585
     12  C12        9.0240   38.2410   73.3690 C.ar  5001  1545001     0.0229
     13  C13        8.5540   37.3070   74.3280 C.ar  5001  1545001     0.0629
     14 CL14        8.6820   40.0780   71.3990 Cl    5001  1545001    -0.0822
     15 CL15        9.7000   36.4940   75.2910 Cl    5001  1545001    -0.0821
     16  C16        7.1980   32.6590   73.7530 C.3   5001  1545001     0.0578
     17  C17        8.7380   32.5110   73.7890 C.ar  5001  1545001    -0.0199
     18  C18        9.3270   31.2430   74.1180 C.ar  5001  1545001    -0.0042
     19  C19       10.7480   31.0690   74.1650 C.ar  5001  1545001    -0.0003
     20  C20       11.6160   32.1580   73.8760 C.ar  5001  1545001    -0.0000
     21  C21       11.0610   33.4230   73.5470 C.ar  5001  1545001    -0.0003
     22  C22        9.6380   33.5990   73.4990 C.ar  5001  1545001    -0.0042
     23  C23        6.4790   33.6730   76.4170 C.3   5001  1545001     0.1273
     24  C24        7.5400   33.7610   77.5460 C.ar  5001  1545001     0.0274
     25  C25        8.1520   34.8940   78.0430 C.ar  5001  1545001     0.0045
     26  C26        9.0830   34.6550   79.0670 C.ar  5001  1545001     0.0098
     27  C27        9.1980   33.3380   79.3800 C.ar  5001  1545001     0.0637
     28  S28        8.1450   32.3680   78.3950 S.2   5001  1545001    -0.0865
     29  C29       10.0820   32.8600   80.4440 C.ar  5001  1545001     0.1512
     30  C30        9.8830   31.7740   81.2790 C.ar  5001  1545001     0.0410
     31  C31       11.0410   31.7380   82.1690 C.ar  5001  1545001     0.0376
     32  C32       11.4480   30.8490   83.2330 C.ar  5001  1545001     0.0031
     33  C33       12.6870   31.1150   83.8900 C.ar  5001  1545001     0.0002
     34  C34       13.5260   32.2280   83.4820 C.ar  5001  1545001     0.0031
     35  C35       13.1250   33.1090   82.4300 C.ar  5001  1545001     0.0375
     36  C36       11.8750   32.8260   81.7620 C.ar  5001  1545001     0.1453
     37  O37       11.2780   33.5180   80.7310 O.2   5001  1545001    -0.4530
@<TRIPOS>BOND
     1    14    11    1
     2     4     3   ar
     3    11    10   ar
     4    11    12   ar
     5    10     9   ar
     6     3     2    1
     7     3     5   ar
     8    12    13   ar
     9    22    21   ar
    10    22    17   ar
    11    21    20   ar
    12     9     8   ar
    13    16    17    1
    14    16     2    1
    15    17    18   ar
    16     2     1    1
    17    20    19   ar
    18    18    19   ar
    19    13     8   ar
    20    13    15    1
    21     8     6    1
    22     1     6   am
    23     1    23    1
    24     6     7    2
    25    23    24    1
    26    24    25   ar
    27    24    28   ar
    28    25    26   ar
    29    28    27   ar
    30    26    27   ar
    31    27    29    1
    32    29    37   ar
    33    29    30   ar
    34    37    36   ar
    35    30    31   ar
    36    36    31   ar
    37    36    35   ar
    38    31    32   ar
    39    35    34   ar
    40    32    33   ar
    41    34    33   ar
