@<TRIPOS>MOLECULE
1nhw_TCC_A_1.pdb
 16 17 0 0 0
SMALL
GASTEIGER

@<TRIPOS>ATOM
      1  C12       54.5330   92.0550   33.1910 C.ar  600  TCC600      0.0128
      2  C11       54.7280   90.6930   33.5940 C.ar  600  TCC600      0.0586
      3 CL2        56.0600   89.7790   32.9200 Cl    600  TCC600     -0.0822
      4  C10       53.8250   90.0800   34.5610 C.ar  600  TCC600      0.0241
      5  C9        52.7290   90.8460   35.1150 C.ar  600  TCC600      0.0737
      6 CL1        51.6670   90.0500   36.2880 Cl    600  TCC600     -0.0809
      7  C8        52.5160   92.2390   34.7170 C.ar  600  TCC600      0.0812
      8  N1        51.3610   92.9420   35.3550 N.pl3 600  TCC600     -0.2084
      9  C4        51.0110   94.3500   35.0750 C.ar  600  TCC600      0.1093
     10  C5        51.6630   95.4480   35.7830 C.ar  600  TCC600      0.0198
     11  C6        51.3060   96.8270   35.4960 C.ar  600  TCC600      0.0015
     12  C1        50.2960   97.1250   34.5060 C.ar  600  TCC600      0.0034
     13  C2        49.6440   96.0450   33.8010 C.ar  600  TCC600      0.0434
     14  C3        50.0000   94.6590   34.0830 C.ar  600  TCC600      0.2108
     15  O1        49.3470   93.6610   33.3810 O.3   600  TCC600     -0.2852
     16  C7        53.4450   92.8320   33.7360 C.ar  600  TCC600      0.0182
@<TRIPOS>BOND
     1     3     2    1
     2     1     2   ar
     3     1    16   ar
     4    15    14    1
     5     2     4   ar
     6    16     7   ar
     7    13    14   ar
     8    13    12   ar
     9    14     9   ar
    10    12    11   ar
    11     4     5   ar
    12     7     5   ar
    13     7     8    1
    14     9     8    1
    15     9    10   ar
    16     5     6    1
    17    11    10   ar
