@<TRIPOS>MOLECULE
1nhw_NAD_A_1.pdb
 44 48 0 0 0
SMALL
GASTEIGER

@<TRIPOS>ATOM
      1  PA        51.2600   89.5160   40.8100 P.3   450  NAD450      0.2189
      2  O1A       50.7940   89.4040   42.2370 O.3   450  NAD450     -0.4371
      3  O2A       52.7610   89.5910   40.5500 O.2   450  NAD450     -0.5170
      4  O5B       50.5770   88.2000   40.0590 O.3   450  NAD450     -0.3112
      5  C5B       51.0630   87.4080   38.9360 C.3   450  NAD450      0.1813
      6  C4B       51.4120   86.0120   39.3800 C.3   450  NAD450      0.1821
      7  O4B       51.6630   85.0640   38.2820 O.3   450  NAD450     -0.3135
      8  C3B       52.6800   85.9650   40.2610 C.3   450  NAD450      0.2184
      9  O3B       52.2220   85.7930   41.6280 O.3   450  NAD450     -0.2174
     10  C2B       53.5120   84.7820   39.7340 C.3   450  NAD450      0.2570
     11  O2B       54.0250   84.0290   40.8130 O.3   450  NAD450     -0.2130
     12  C1B       52.5340   84.0270   38.7800 C.3   450  NAD450      0.3186
     13  N9A       53.2160   83.3620   37.6150 N.pl3 450  NAD450     -0.1439
     14  C8A       54.1600   83.5600   36.6140 C.3   450  NAD450      0.3377
     15  N7A       54.3770   82.5330   35.8000 N.2   450  NAD450     -0.2095
     16  C5A       53.5110   81.5560   36.2810 C.2   450  NAD450      0.2526
     17  C6A       53.2630   80.2330   35.8790 C.2   450  NAD450      0.4393
     18  N6A       53.8900   79.6420   34.8710 N.pl3 450  NAD450      0.2180
     19  N1A       52.3390   79.5170   36.5680 N.2   450  NAD450      0.0021
     20  C2A       51.6520   80.1070   37.5700 C.3   450  NAD450      0.5254
     21  N3A       51.8440   81.3220   38.1080 N.2   450  NAD450     -0.0055
     22  C4A       52.7840   82.0390   37.3930 C.2   450  NAD450      0.3518
     23  O3        50.9080   90.7400   39.9600 O.3   450  NAD450     -0.2703
     24  PN        49.6360   91.4510   39.6130 P.3   450  NAD450      0.2189
     25  O1N       48.7280   91.6780   40.7870 O.3   450  NAD450     -0.4371
     26  O2N       50.0770   92.6250   38.8000 O.2   450  NAD450     -0.5170
     27  O5D       49.0630   90.5260   38.4270 O.3   450  NAD450     -0.3112
     28  C5D       47.8610   89.7480   38.5030 C.3   450  NAD450      0.1813
     29  C4D       47.0220   89.9750   37.2250 C.3   450  NAD450      0.1799
     30  O4D       46.4680   91.3350   37.2050 O.3   450  NAD450     -0.3327
     31  C3D       47.8690   89.7910   35.9650 C.3   450  NAD450      0.2158
     32  O3D       47.1870   88.8870   35.1590 O.3   450  NAD450     -0.2175
     33  C2D       47.9220   91.1710   35.3940 C.3   450  NAD450      0.2309
     34  O2D       48.0270   91.1360   33.9990 O.3   450  NAD450     -0.2158
     35  C1D       46.6190   91.7830   35.8460 C.3   450  NAD450      0.2263
     36  N1N       46.5620   93.2620   35.7920 N.pl3 450  NAD450     -0.2787
     37  C2N       47.4160   93.9810   36.6680 C.3   450  NAD450      0.1244
     38  C3N       47.5890   95.3550   36.7830 C.2   450  NAD450      0.0544
     39  C7N       48.4780   96.0790   37.7360 C.2   450  NAD450      0.2818
     40  O7N       48.7390   97.3930   37.6710 O.2   450  NAD450     -0.2670
     41  N7N       49.1220   95.5060   38.7470 N.am  450  NAD450     -0.0839
     42  C4N       46.6650   95.9850   35.9470 C.2   450  NAD450      0.0033
     43  C5N       45.6900   95.3750   35.0720 C.2   450  NAD450      0.0157
     44  C6N       45.6650   93.9300   34.9960 C.2   450  NAD450      0.0633
@<TRIPOS>BOND
     1    34    33    1
     2    18    17    1
     3    44    43    2
     4    44    36    1
     5    43    42    1
     6    32    31    1
     7    33    35    1
     8    33    31    1
     9    36    35    1
    10    36    37    1
    11    15    16    2
    12    15    14    1
    13    35    30    1
    14    17    16    1
    15    17    19    2
    16    42    38    2
    17    31    29    1
    18    16    22    1
    19    19    20    1
    20    14    13    1
    21    37    38    1
    22    38    39    1
    23    30    29    1
    24    29    28    1
    25    22    13    1
    26    22    21    2
    27    20    21    1
    28    13    12    1
    29    40    39    2
    30    39    41   am
    31     7    12    1
    32     7     6    1
    33    27    28    1
    34    27    24    1
    35    12    10    1
    36    26    24    2
    37     5     6    1
    38     5     4    1
    39     6     8    1
    40    24    23    1
    41    24    25    1
    42    10     8    1
    43    10    11    1
    44    23     1    1
    45     4     1    1
    46     8     9    1
    47     3     1    2
    48     1     2    1
