@<TRIPOS>MOLECULE
1nhx_PEP_A_1.pdb
 10 9 0 0 0
SMALL
GASTEIGER

@<TRIPOS>ATOM
      1  C1        46.2590   25.1100   38.4430 C.2   703  PEP703      0.4216
      2  O1        47.0720   26.0070   38.7250 O.co2 703  PEP703     -0.2371
      3  O2'       46.2310   24.0420   39.2220 O.co2 703  PEP703     -0.2371
      4  C2        45.4030   25.2840   37.2250 C.2   703  PEP703      0.2283
      5  C3        44.3160   24.6230   36.8180 C.2   703  PEP703      0.0477
      6  O2        46.0370   26.3320   36.5770 O.2   703  PEP703     -0.3930
      7  P         45.3930   27.1960   35.2270 P.3   703  PEP703      0.5889
      8  O1P       45.3840   26.1550   33.8740 O.2   703  PEP703     -0.2114
      9  O2P       43.7540   27.6270   35.5580 O.3   703  PEP703     -0.1039
     10  O3P       46.2510   28.4410   34.9920 O.3   703  PEP703     -0.1039
@<TRIPOS>BOND
     1     8     7    2
     2    10     7    1
     3     7     9    1
     4     7     6    1
     5     6     4    1
     6     5     4    2
     7     4     1    1
     8     1     2   ar
     9     1     3   ar
