@<TRIPOS>MOLECULE
1nhx_FTB_A_1.pdb
 34 37 0 0 0
SMALL
GASTEIGER

@<TRIPOS>ATOM
      1  O33       35.8010   51.4460   34.0580 O.2   704  FTB704     -0.2730
      2  C32       36.0990   51.3690   35.2450 C.2   704  FTB704      0.2461
      3  C34       35.5200   52.3910   36.1800 C.3   704  FTB704      0.0968
      4  N31       36.9390   50.3870   35.7390 N.am  704  FTB704     -0.1792
      5  C28       37.6020   49.3190   35.0080 C.ar  704  FTB704      0.0733
      6  C29       38.5010   48.4660   35.6750 C.ar  704  FTB704      0.0163
      7  C30       39.1520   47.4290   34.9770 C.ar  704  FTB704     -0.0018
      8  C27       37.3760   49.1210   33.6300 C.ar  704  FTB704      0.0163
      9  C26       38.0280   48.0880   32.9320 C.ar  704  FTB704     -0.0018
     10  C25       38.9090   47.2310   33.6060 C.ar  704  FTB704     -0.0051
     11  C24       39.6080   46.1290   32.8350 C.3   704  FTB704      0.1511
     12  C1        38.8310   44.8400   32.8870 C.1   704  FTB704      0.1200
     13  N2        39.1550   43.9000   33.8030 N.2   704  FTB704     -0.3226
     14  C3        38.2640   42.9240   33.5450 C.ar  704  FTB704      0.2462
     15  N6        38.2170   41.7490   34.2440 N.ar  704  FTB704     -0.2534
     16  C12       39.1590   41.4440   35.3460 C.3   704  FTB704      0.1131
     17  C13       40.2020   40.3990   34.8780 C.3   704  FTB704      0.0247
     18  C14       41.1370   39.9680   36.0180 C.3   704  FTB704      0.0020
     19  C15       41.9520   38.7370   35.6300 C.3   704  FTB704      0.0001
     20  C4        37.4460   43.2730   32.5150 C.ar  704  FTB704      0.2464
     21  N5        37.7890   44.5060   32.0810 N.2   704  FTB704     -0.3341
     22  C9        36.4470   42.4000   32.0870 C.ar  704  FTB704      0.2993
     23  O10       35.6740   42.6810   31.1660 O.2   704  FTB704     -0.2638
     24  N8        36.3800   41.1860   32.7780 N.ar  704  FTB704     -0.2422
     25  C7        37.2450   40.8590   33.8370 C.ar  704  FTB704      0.3360
     26  O11       37.1310   39.7930   34.4150 O.2   704  FTB704     -0.2461
     27  C16       35.6750   40.0310   32.1730 C.3   704  FTB704      0.1426
     28  C17       34.2810   40.0170   32.7520 C.ar  704  FTB704      0.0281
     29  C18       34.0250   40.3500   34.1000 C.ar  704  FTB704     -0.0002
     30  C19       32.7130   40.3340   34.6040 C.ar  704  FTB704     -0.0001
     31  C20       31.6510   39.9680   33.7640 C.ar  704  FTB704      0.0023
     32  C21       31.8990   39.6340   32.4210 C.ar  704  FTB704      0.0294
     33  C22       33.2120   39.6650   31.9230 C.ar  704  FTB704      0.1380
     34  F         33.4370   39.3320   30.6350 F     704  FTB704     -0.2044
@<TRIPOS>BOND
     1    34    33    1
     2    23    22    2
     3    33    32   ar
     4    33    28   ar
     5    21    20    2
     6    21    12    2
     7    22    20   ar
     8    22    24   ar
     9    27    28    1
    10    27    24    1
    11    32    31   ar
    12    20    14   ar
    13    28    29   ar
    14    24    25   ar
    15    11    12    1
    16    11    10    1
    17    12    13    2
    18     9    10   ar
    19     9     8   ar
    20    14    13    2
    21    14    15   ar
    22    10     7   ar
    23     8     5   ar
    24    31    30   ar
    25    25    15   ar
    26    25    26    2
    27     1     2    2
    28    29    30   ar
    29    15    16    1
    30    17    16    1
    31    17    18    1
    32     7     6   ar
    33     5     6   ar
    34     5     4    1
    35     2     4   am
    36     2     3    1
    37    19    18    1
