@<TRIPOS>MOLECULE
1nhz_486_A_1.pdb
 32 36 0 0 0
SMALL
GASTEIGER

@<TRIPOS>ATOM
      1  O30       -4.5830   18.2170    3.5200 O.2   800  486800     -0.2913
      2  C2        -3.9930   17.1990    3.7130 C.2   800  486800      0.1731
      3  C1        -4.7010   15.8380    4.0870 C.3   800  486800      0.0738
      4  C3        -2.5020   17.0820    3.5340 C.2   800  486800      0.0329
      5  C4        -1.9970   15.8560    3.2290 C.2   800  486800     -0.0239
      6  C7        -0.4390   15.7460    3.1050 C.3   800  486800      0.0264
      7  C5        -2.9360   14.7010    3.1750 C.2   800  486800     -0.0332
      8  C6        -4.4750   15.0660    2.8400 C.3   800  486800      0.0335
      9  C10       -2.4120   13.4380    3.4880 C.2   800  486800     -0.0450
     10  C14       -3.2390   12.0070    3.5310 C.3   800  486800      0.0403
     11  C18       -3.1910   11.4060    2.0710 C.ar  800  486800     -0.0187
     12  C22       -2.3340   12.0250    1.0580 C.ar  800  486800     -0.0027
     13  C23       -2.1730   11.5110   -0.2110 C.ar  800  486800      0.0142
     14  C24       -2.8350   10.2880   -0.5950 C.ar  800  486800      0.0479
     15  N27       -2.7790    9.7150   -1.9260 N.pl3 800  486800     -0.3041
     16  C29       -3.5420    8.4900   -2.1770 C.3   800  486800      0.1122
     17  C28       -2.3710   10.5100   -3.1140 C.3   800  486800      0.1122
     18  C25       -3.7120    9.6570    0.4180 C.ar  800  486800      0.0142
     19  C26       -3.8620   10.1890    1.7210 C.ar  800  486800     -0.0027
     20  C13       -2.6460   11.0540    4.5960 C.3   800  486800      0.0117
     21  C12       -1.1360   11.0380    5.0070 C.3   800  486800      0.0374
     22  C19       -0.4170   10.1100    3.8580 C.3   800  486800      0.0035
     23  C17       -0.8530   10.3480    6.3800 C.3   800  486800      0.1788
     24  C31       -1.5870   10.8820    7.5980 C.1   800  486800     -0.0622
     25  C30       -2.4850   11.0420    8.3910 C.1   800  486800     -0.0877
     26  C32       -3.1640   11.4480    9.6560 C.3   800  486800      0.0900
     27  O3        -0.9200    8.8980    6.3080 O.3   800  486800     -0.2125
     28  C16        0.6230   10.8610    6.4670 C.3   800  486800      0.0430
     29  C15        0.6840   12.2590    5.7760 C.3   800  486800      0.0040
     30  C11       -0.7620   12.5550    5.1970 C.3   800  486800      0.0071
     31  C9        -0.8190   13.3590    3.8950 C.3   800  486800      0.0187
     32  C8        -0.0450   14.7230    4.1340 C.3   800  486800      0.0087
@<TRIPOS>BOND
     1    17    15    1
     2    16    15    1
     3    15    14    1
     4    14    13   ar
     5    14    18   ar
     6    13    12   ar
     7    18    19   ar
     8    12    11   ar
     9    19    11   ar
    10    11    10    1
    11     8     7    1
    12     8     3    1
    13     6     5    1
    14     6    32    1
    15     7     5    1
    16     7     9    2
    17     5     4    2
    18     9    10    1
    19     9    31    1
    20     1     2    2
    21    10    20    1
    22     4     2    1
    23     2     3    1
    24    22    21    1
    25    31    32    1
    26    31    30    1
    27    20    21    1
    28    21    30    1
    29    21    23    1
    30    30    29    1
    31    29    28    1
    32    27    23    1
    33    23    28    1
    34    23    24    1
    35    24    25    3
    36    25    26    1
