@<TRIPOS>MOLECULE
1ni1_2C5_B_1.pdb
 33 36 0 0 0
SMALL
GASTEIGER

@<TRIPOS>ATOM
      1  O2        50.3780   48.9040   -1.2380 O.3    10  2C510      -0.3383
      2  C38       50.8460   47.6040   -0.8410 C.3    10  2C510       0.1773
      3  C40       52.1080   47.7610    0.0520 C.ar   10  2C510       0.0103
      4  C43       52.0700   47.4920    1.4600 C.ar   10  2C510      -0.0009
      5  C44       53.2300   47.6620    2.2760 C.ar   10  2C510       0.0100
      6  C45       54.4340   48.1010    1.6830 C.ar   10  2C510       0.0684
      7  C46       54.4870   48.3620    0.3070 C.ar   10  2C510       0.0100
      8  C47       53.3440   48.1980   -0.4920 C.ar   10  2C510      -0.0009
      9  C52       54.6030   52.0260    1.7970 C.ar   10  2C510       0.0114
     10  C53       54.7530   51.7970    0.4120 C.ar   10  2C510       0.0577
     11 CL1        56.3190   51.4400   -0.2150 Cl     10  2C510      -0.0822
     12  C65       55.6090   48.3000    2.4660 C.1    10  2C510       0.1004
     13  C7        53.6440   51.8490   -0.4710 C.ar   10  2C510       0.0115
     14  N1        56.5540   48.5140    3.0970 N.1    10  2C510      -0.1908
     15  C2        53.3150   52.3150    2.2960 C.ar   10  2C510       0.0009
     16  C3        52.3520   52.1410    0.0300 C.ar   10  2C510       0.0028
     17  C4        52.2020   52.3700    1.4150 C.ar   10  2C510       0.0001
     18  C1        50.1050   49.9440   -0.2770 C.3    10  2C510       0.2013
     19  N3        51.7230   45.4050   -3.9430 N.ar   10  2C510      -0.2226
     20  C10       52.0480   46.0740   -2.6820 C.ar   10  2C510       0.1161
     21  C12       50.9830   46.7490   -2.1600 C.ar   10  2C510       0.0892
     22  N4        49.9210   46.4700   -3.1740 N.ar   10  2C510      -0.3081
     23  C5        50.4440   45.6930   -4.1330 C.ar   10  2C510       0.1784
     24  C15       48.5250   46.9280   -3.1520 C.3    10  2C510       0.1318
     25  N2        49.1190   51.4100   -1.8960 N.2    10  2C510      -0.3953
     26  C11       50.1570   51.2340   -1.0370 C.2    10  2C510       0.1392
     27  C13       51.1780   52.2130   -0.9020 C.2    10  2C510       0.0251
     28  C14       51.0640   53.3740   -1.7000 C.2    10  2C510      -0.0011
     29  C17       49.9880   53.5410   -2.6060 C.3    10  2C510       0.1763
     30  C6        49.0090   52.5210   -2.6670 C.2    10  2C510       0.1834
     31  C9        49.9060   54.7340   -3.4130 C.1    10  2C510       0.0848
     32  N5        49.8260   55.6580   -4.0990 N.1    10  2C510      -0.1951
     33 CL2        47.6380   52.6460   -3.7290 Cl     10  2C510      -0.0511
@<TRIPOS>BOND
     1    23    19   ar
     2    23    22   ar
     3    32    31    3
     4    19    20   ar
     5    33    30    1
     6    31    29    1
     7    22    24    1
     8    22    21   ar
     9    20    21   ar
    10    30    29    1
    11    30    25    2
    12    29    28    1
    13    21     2    1
    14    25    26    2
    15    28    27    2
    16     1     2    1
    17     1    18    1
    18    26    27    1
    19    26    18    1
    20    27    16    1
    21     2     3    1
    22     8     3   ar
    23     8     7   ar
    24    13    16   ar
    25    13    10   ar
    26    11    10    1
    27    16    17   ar
    28     3     4   ar
    29     7     6   ar
    30    10     9   ar
    31    17    15   ar
    32     4     5   ar
    33     6     5   ar
    34     6    12    1
    35     9    15   ar
    36    12    14    3
