@<TRIPOS>MOLECULE
1ni1_HFP_B_1.pdb
 20 19 0 0 0
SMALL
GASTEIGER

@<TRIPOS>ATOM
      1  P         51.6470   41.4180   -0.3330 P.3   501  HFP501      0.1516
      2  O1P       50.2350   41.0780   -0.5850 O.3   501  HFP501     -0.3553
      3  O2P       52.5820   40.1580   -0.3850 O.3   501  HFP501     -0.3553
      4  O3P       52.1760   42.4410   -1.3600 O.2   501  HFP501     -0.4573
      5  C1        51.7890   42.1900    1.3750 C.3   501  HFP501      0.2242
      6  O1        50.5430   42.8320    1.7830 O.3   501  HFP501     -0.2104
      7  C2        52.8900   43.2430    1.3630 C.2   501  HFP501      0.0051
      8  C3        53.8900   43.3360    2.2790 C.2   501  HFP501     -0.0450
      9  C4        53.9870   42.3600    3.4400 C.3   501  HFP501      0.0261
     10  C5        54.9500   44.4260    2.1550 C.3   501  HFP501      0.0264
     11  C6        55.6660   44.3920    0.7660 C.3   501  HFP501      0.0297
     12  C7        56.9640   45.2020    0.7740 C.2   501  HFP501     -0.0342
     13  C8        57.3880   45.9210   -0.2970 C.2   501  HFP501     -0.0478
     14  C9        56.5670   45.9550   -1.5750 C.3   501  HFP501      0.0260
     15  C10       58.7040   46.7130   -0.2880 C.3   501  HFP501      0.0263
     16  C11       58.7460   47.8620    0.6830 C.3   501  HFP501      0.0297
     17  C12       60.1080   48.5360    0.5520 C.2   501  HFP501     -0.0342
     18  C13       60.5230   49.6120    1.2840 C.2   501  HFP501     -0.0478
     19  C14       59.6660   50.2630    2.3460 C.3   501  HFP501      0.0260
     20  C15       61.9080   50.1980    1.0600 C.3   501  HFP501      0.0260
@<TRIPOS>BOND
     1    14    13    1
     2     4     1    2
     3     2     1    1
     4     3     1    1
     5     1     5    1
     6    13    15    1
     7    13    12    2
     8    15    16    1
     9    17    16    1
    10    17    18    2
    11    11    12    1
    12    11    10    1
    13    20    18    1
    14    18    19    1
    15     7     5    1
    16     7     8    2
    17     5     6    1
    18    10     8    1
    19     8     9    1
