@<TRIPOS>MOLECULE
1ni4_TPP_A_1.pdb
 26 27 0 0 0
SMALL
GASTEIGER

@<TRIPOS>ATOM
      1  N1'       10.0110   -8.9510   70.9190 N.2   2330  TPP2330    -0.1861
      2  C2'        8.7420   -8.5900   71.2050 C.1   2330  TPP2330     0.0663
      3  CM2        8.5670   -7.4150   72.1700 C.3   2330  TPP2330     0.1291
      4  N3'        7.6630   -9.2100   70.6850 N.2   2330  TPP2330    -0.3368
      5  C4'        7.9120  -10.2480   69.8340 C.2   2330  TPP2330     0.2292
      6  N4'        6.7900  -10.8410   69.3380 N.pl3 2330  TPP2330    -0.0925
      7  C5'        9.2360  -10.7020   69.4720 C.2   2330  TPP2330     0.0654
      8  C6'       10.2740   -9.9760   70.0780 C.2   2330  TPP2330     0.1115
      9  C7'        9.4850  -11.8730   68.5180 C.3   2330  TPP2330     0.1237
     10  N3         9.0040  -13.1400   69.0800 N.pl3 2330  TPP2330    -0.2970
     11  C2         7.7650  -13.6650   68.7610 C.3   2330  TPP2330     0.1543
     12  S1         7.5020  -15.1670   69.6200 S.3   2330  TPP2330    -0.0951
     13  C5         9.0650  -15.0370   70.3710 C.2   2330  TPP2330     0.0164
     14  C4         9.7920  -13.9450   70.0320 C.2   2330  TPP2330     0.0279
     15  CM4       11.1990  -13.5550   70.5250 C.3   2330  TPP2330     0.0473
     16  C6         9.3810  -16.1790   71.3130 C.3   2330  TPP2330     0.0661
     17  C7         8.5900  -16.0960   72.6490 C.3   2330  TPP2330     0.1544
     18  O7         8.8450  -17.3200   73.3450 O.3   2330  TPP2330    -0.3134
     19  PA         7.9780  -17.7850   74.5070 P.3   2330  TPP2330     0.2230
     20  O1A        7.5440  -16.6090   75.3530 O.3   2330  TPP2330    -0.4370
     21  O2A        8.8000  -18.7100   75.3190 O.2   2330  TPP2330    -0.5169
     22  O3A        6.7100  -18.4930   74.0120 O.3   2330  TPP2330    -0.2261
     23  PB         6.3810  -19.7530   73.1030 P.3   2330  TPP2330     0.5373
     24  O1B        7.4660  -20.7680   73.4010 O.3   2330  TPP2330    -0.1143
     25  O2B        5.0150  -20.1440   73.6020 O.3   2330  TPP2330    -0.1143
     26  O3B        6.3870  -19.3870   71.6700 O.2   2330  TPP2330    -0.2221
@<TRIPOS>BOND
     1     9    10    1
     2     9     7    1
     3    11    10    1
     4    11    12    1
     5    10    14    1
     6     6     5    1
     7     7     5    1
     8     7     8    2
     9    12    13    1
    10     5     4    2
    11    14    13    2
    12    14    15    1
    13     8     1    1
    14    13    16    1
    15     4     2    2
    16     1     2    2
    17     2     3    1
    18    16    17    1
    19    26    23    2
    20    17    18    1
    21    23    24    1
    22    23    25    1
    23    23    22    1
    24    18    19    1
    25    22    19    1
    26    19    21    2
    27    19    20    1
