@<TRIPOS>MOLECULE
1ni6_TRE_C_1.pdb
 23 24 0 0 0
SMALL
GASTEIGER

@<TRIPOS>ATOM
      1  C1        45.6470   50.7470   74.4790 C.3   9300  TRE9300     0.2713
      2  C2        46.0300   49.4030   73.7880 C.3   9300  TRE9300     0.2406
      3  C3        45.7080   48.2300   74.7360 C.3   9300  TRE9300     0.2198
      4  C4        46.6110   48.4320   75.9700 C.3   9300  TRE9300     0.2144
      5  C5        46.2500   49.7850   76.6730 C.3   9300  TRE9300     0.1835
      6  C6        47.0830   50.1040   77.8830 C.3   9300  TRE9300     0.2142
      7  O1        44.2670   50.7480   74.7710 O.3   9300  TRE9300    -0.3016
      8  O2        45.2770   49.3190   72.6120 O.3   9300  TRE9300    -0.2149
      9  O3        46.0530   47.0370   74.1050 O.3   9300  TRE9300    -0.2174
     10  O4        46.4110   47.4350   76.9070 O.3   9300  TRE9300    -0.2176
     11  O5        46.4110   50.9040   75.7440 O.3   9300  TRE9300    -0.3256
     12  O6        46.2310   50.6510   78.8710 O.3   9300  TRE9300    -0.2176
     13  C1P       43.7180   51.9640   75.2810 C.3   9300  TRE9300     0.2713
     14  C2P       42.2260   51.6350   75.5990 C.3   9300  TRE9300     0.2406
     15  C3P       41.6040   50.9120   74.3430 C.3   9300  TRE9300     0.2198
     16  C4P       41.6410   51.9420   73.1940 C.3   9300  TRE9300     0.2144
     17  C5P       43.1500   52.3690   72.8800 C.3   9300  TRE9300     0.1835
     18  C6P       43.2370   53.4110   71.7520 C.3   9300  TRE9300     0.2142
     19  O2P       42.2180   50.7550   76.6620 O.3   9300  TRE9300    -0.2149
     20  O3P       40.2710   50.5960   74.5980 O.3   9300  TRE9300    -0.2174
     21  O4P       41.1000   51.3830   72.0170 O.3   9300  TRE9300    -0.2176
     22  O5P       43.7170   52.9150   74.1320 O.3   9300  TRE9300    -0.3256
     23  O6P       42.2050   54.3720   71.8650 O.3   9300  TRE9300    -0.2176
@<TRIPOS>BOND
     1    18    23    1
     2    18    17    1
     3    21    16    1
     4     8     2    1
     5    17    16    1
     6    17    22    1
     7    16    15    1
     8     2     1    1
     9     2     3    1
    10     9     3    1
    11    22    13    1
    12    15    20    1
    13    15    14    1
    14     1     7    1
    15     1    11    1
    16     3     4    1
    17     7    13    1
    18    13    14    1
    19    14    19    1
    20    11     5    1
    21     4     5    1
    22     4    10    1
    23     5     6    1
    24     6    12    1
