@<TRIPOS>MOLECULE
1nih_HNI_A_1.pdb
 43 50 0 0 0
SMALL
GASTEIGER

@<TRIPOS>ATOM
      1 NI          6.7520   -3.7200    0.1240 Ni    201  HNI201      0.0000
      2  CHA        6.7550   -5.2140   -2.7950 C.2   201  HNI201      0.0000
      3  CHB        5.4180   -6.5150    1.6200 C.2   201  HNI201      0.0000
      4  CHC        6.8620   -2.2180    3.2210 C.2   201  HNI201      0.0000
      5  CHD        7.3280   -0.7060   -1.3140 C.2   201  HNI201      0.0000
      6  NA         6.2270   -5.4210   -0.3660 N.2   201  HNI201      0.0000
      7  C1A        6.2960   -5.9270   -1.6820 C.2   201  HNI201      0.0000
      8  C2A        5.7920   -7.2900   -1.8200 C.2   201  HNI201      0.0000
      9  C3A        5.4170   -7.6250   -0.5660 C.2   201  HNI201      0.0000
     10  C4A        5.6720   -6.4860    0.2920 C.2   201  HNI201      0.0000
     11  CMA        4.8640   -8.9670   -0.1030 C.3   201  HNI201      0.0000
     12  CAA        5.4870   -8.0570   -3.1220 C.3   201  HNI201      0.0000
     13  CBA        6.6390   -8.5890   -3.9720 C.3   201  HNI201      0.0000
     14  CGA        6.3340   -9.7280   -4.9340 C.2   201  HNI201      0.0000
     15  O1A        5.9020   -9.4380   -6.0500 O.co2 201  HNI201      0.0000
     16  O2A        6.5220  -10.8990   -4.5970 O.co2 201  HNI201      0.0000
     17  NB         6.2680   -4.2790    1.9560 N.ar  201  HNI201      0.0000
     18  C1B        5.7590   -5.4520    2.3980 C.ar  201  HNI201      0.0000
     19  C2B        5.6250   -5.4970    3.8260 C.ar  201  HNI201      0.0000
     20  C3B        6.0370   -4.2660    4.2730 C.ar  201  HNI201      0.0000
     21  C4B        6.3830   -3.5350    3.0980 C.ar  201  HNI201      0.0000
     22  CMB        5.1300   -6.7390    4.5520 C.3   201  HNI201      0.0000
     23  CAB        5.9980   -3.4820    5.5610 C.2   201  HNI201      0.0000
     24  CBB        6.0140   -3.9260    6.8590 C.2   201  HNI201      0.0000
     25  NC         7.0660   -1.8790    0.8200 N.2   201  HNI201      0.0000
     26  C1C        7.1110   -1.4230    2.1090 C.2   201  HNI201      0.0000
     27  C2C        7.4820   -0.0220    2.1620 C.2   201  HNI201      0.0000
     28  C3C        7.6060    0.3840    0.8760 C.2   201  HNI201      0.0000
     29  C4C        7.2930   -0.7610    0.0620 C.2   201  HNI201      0.0000
     30  CMC        7.7090    0.6820    3.4780 C.3   201  HNI201      0.0000
     31  CAC        7.8260    1.7240    0.2560 C.2   201  HNI201      0.0000
     32  CBC        7.4430    2.8900    0.8720 C.2   201  HNI201      0.0000
     33  ND         7.0250   -3.1100   -1.6560 N.ar  201  HNI201      0.0000
     34  C1D        7.2610   -1.8180   -2.1200 C.ar  201  HNI201      0.0000
     35  C2D        7.4590   -1.7920   -3.5470 C.ar  201  HNI201      0.0000
     36  C3D        7.3190   -3.0470   -3.9660 C.ar  201  HNI201      0.0000
     37  C4D        7.0450   -3.8600   -2.8050 C.ar  201  HNI201      0.0000
     38  CMD        7.8220   -0.6060   -4.4120 C.3   201  HNI201      0.0000
     39  CAD        7.1910   -3.4630   -5.4030 C.3   201  HNI201      0.0000
     40  CBD        5.7270   -3.5780   -5.7450 C.3   201  HNI201      0.0000
     41  CGD        5.5600   -3.9850   -7.1790 C.2   201  HNI201      0.0000
     42  O1D        4.6930   -4.8160   -7.4610 O.co2 201  HNI201      0.0000
     43  O2D        6.3080   -3.4520   -7.9870 O.co2 201  HNI201      0.0000
@<TRIPOS>BOND
     1    43    41   ar
     2    42    41   ar
     3    41    40    1
     4    15    14   ar
     5    40    39    1
     6    39    36    1
     7    14    16   ar
     8    14    13    1
     9    38    35    1
    10    13    12    1
    11    36    35   ar
    12    36    37   ar
    13    35    34   ar
    14    12     8    1
    15    37     2    2
    16    37    33   ar
    17     2     7    1
    18    34    33   ar
    19    34     5    2
    20     8     7    1
    21     8     9    2
    22     7     6    2
    23    33     1    1
    24     5    29    1
    25     9    11    1
    26     9    10    1
    27     6     1    1
    28     6    10    1
    29    29    25    2
    30    29    28    1
    31     1    25    1
    32     1    17    1
    33    31    32    2
    34    31    28    1
    35    10     3    2
    36    25    26    1
    37    28    27    2
    38     3    18    1
    39    17    18   ar
    40    17    21   ar
    41    26    27    1
    42    26     4    2
    43    27    30    1
    44    18    19   ar
    45    21     4    1
    46    21    20   ar
    47    19    20   ar
    48    19    22    1
    49    20    23    1
    50    23    24    2
