@<TRIPOS>MOLECULE
1nih_HEM_B_1.pdb
 43 50 0 0 0
SMALL
GASTEIGER

@<TRIPOS>ATOM
      1 FE          4.6860   19.0320   28.1130 Fe    201  HEM201      0.0000
      2  CHA        4.2490   20.3290   31.2860 C.2   201  HEM201      0.0000
      3  CHB        2.2810   21.3010   26.9140 C.2   201  HEM201      0.0000
      4  CHC        4.6470   17.5280   25.0450 C.2   201  HEM201      0.0000
      5  CHD        6.8630   16.6540   29.4060 C.2   201  HEM201      0.0000
      6  NA         3.5410   20.4130   28.9120 N.ar  201  HEM201      0.0000
      7  C1A        3.4890   20.8360   30.2590 C.ar  201  HEM201      0.0000
      8  C2A        2.5280   21.8800   30.5040 C.ar  201  HEM201      0.0000
      9  C3A        1.9750   22.1570   29.2780 C.ar  201  HEM201      0.0000
     10  C4A        2.5860   21.2760   28.2840 C.ar  201  HEM201      0.0000
     11  CMA        1.1690   23.3610   28.8640 C.3   201  HEM201      0.0000
     12  CAA        2.5930   22.6560   31.8110 C.3   201  HEM201      0.0000
     13  CBA        3.5780   23.8070   31.7150 C.3   201  HEM201      0.0000
     14  CGA        3.2610   24.7960   32.8210 C.2   201  HEM201      0.0000
     15  O1A        3.0390   24.2810   33.9200 O.co2 201  HEM201      0.0000
     16  O2A        3.2350   26.0220   32.5900 O.co2 201  HEM201      0.0000
     17  NB         3.6690   19.3990   26.3000 N.2   201  HEM201      0.0000
     18  C1B        2.7430   20.3930   25.9760 C.2   201  HEM201      0.0000
     19  C2B        2.3940   20.3390   24.5690 C.2   201  HEM201      0.0000
     20  C3B        3.0750   19.2540   24.0460 C.2   201  HEM201      0.0000
     21  C4B        3.8280   18.6680   25.1340 C.2   201  HEM201      0.0000
     22  CMB        1.4170   21.3010   23.9550 C.3   201  HEM201      0.0000
     23  CAB        3.0530   18.5890   22.6970 C.3   201  HEM201      0.0000
     24  CBB        2.0620   18.8530   21.7500 C.3   201  HEM201      0.0000
     25  NC         5.5170   17.5200   27.4590 N.ar  201  HEM201      0.0000
     26  C1C        5.3810   17.0020   26.1400 C.ar  201  HEM201      0.0000
     27  C2C        6.0490   15.7390   26.0760 C.ar  201  HEM201      0.0000
     28  C3C        6.6590   15.4940   27.2510 C.ar  201  HEM201      0.0000
     29  C4C        6.3870   16.5930   28.0930 C.ar  201  HEM201      0.0000
     30  CMC        6.0180   14.8740   24.8290 C.3   201  HEM201      0.0000
     31  CAC        7.5800   14.3620   27.6210 C.2   201  HEM201      0.0000
     32  CBC        7.1380   13.0710   27.5720 C.2   201  HEM201      0.0000
     33  ND         5.3690   18.6170   29.8490 N.2   201  HEM201      0.0000
     34  C1D        6.2960   17.6030   30.2350 C.2   201  HEM201      0.0000
     35  C2D        6.5270   17.6030   31.6350 C.2   201  HEM201      0.0000
     36  C3D        5.8500   18.6210   32.1570 C.2   201  HEM201      0.0000
     37  C4D        5.1370   19.2800   31.0790 C.2   201  HEM201      0.0000
     38  CMD        7.3920   16.6090   32.3670 C.3   201  HEM201      0.0000
     39  CAD        5.9000   19.0050   33.6280 C.3   201  HEM201      0.0000
     40  CBD        4.6480   18.8190   34.5110 C.3   201  HEM201      0.0000
     41  CGD        4.6120   19.8420   35.6610 C.2   201  HEM201      0.0000
     42  O1D        3.8260   19.5720   36.5800 O.co2 201  HEM201      0.0000
     43  O2D        5.3320   20.8690   35.6570 O.co2 201  HEM201      0.0000
@<TRIPOS>BOND
     1    24    23    1
     2    23    20    1
     3    22    19    1
     4    20    19    2
     5    20    21    1
     6    19    18    1
     7    30    27    1
     8     4    21    2
     9     4    26    1
    10    21    17    1
    11    18    17    2
    12    18     3    1
    13    27    26   ar
    14    27    28   ar
    15    26    25   ar
    16    17     1    1
    17     3    10    2
    18    28    31    1
    19    28    29   ar
    20    25    29   ar
    21    25     1    1
    22    32    31    2
    23    29     5    1
    24     1     6    1
    25     1    33    1
    26    10     6   ar
    27    10     9   ar
    28    11     9    1
    29     6     7   ar
    30     9     8   ar
    31     5    34    2
    32    33    34    1
    33    33    37    2
    34    34    35    1
    35     7     8   ar
    36     7     2    2
    37     8    12    1
    38    37     2    1
    39    37    36    1
    40    35    36    2
    41    35    38    1
    42    13    12    1
    43    13    14    1
    44    36    39    1
    45    16    14   ar
    46    14    15   ar
    47    39    40    1
    48    40    41    1
    49    43    41   ar
    50    41    42   ar
