@<TRIPOS>MOLECULE
1nih_IHP_B_1.pdb
 36 36 0 0 0
SMALL
GASTEIGER

@<TRIPOS>ATOM
      1  C1        10.6470   29.2130    6.4310 C.3   203  IHP203      0.1863
      2  C2         9.8080   30.4290    6.8070 C.3   203  IHP203      0.1863
      3  C3         9.3510   30.4720    8.2510 C.3   203  IHP203      0.1863
      4  C4         8.5420   29.2580    8.5750 C.3   203  IHP203      0.1863
      5  C5         9.1200   27.8950    8.1230 C.3   203  IHP203      0.1863
      6  C6         9.7900   27.9220    6.7150 C.3   203  IHP203      0.1863
      7  O11       11.8910   29.1600    7.1470 O.3   203  IHP203     -0.2675
      8  P1        13.0070   28.0350    6.8260 P.3   203  IHP203      0.5327
      9  O21       13.2520   28.0430    5.3400 O.2   203  IHP203     -0.2224
     10  O31       14.2050   28.5150    7.6400 O.3   203  IHP203     -0.1145
     11  O41       12.4860   26.7260    7.3150 O.3   203  IHP203     -0.1145
     12  O12       10.4740   31.6080    6.4540 O.3   203  IHP203     -0.2675
     13  P2        11.2050   31.6340    4.9930 P.3   203  IHP203      0.5327
     14  O22       10.3690   30.8200    4.0190 O.2   203  IHP203     -0.2224
     15  O32       12.6040   31.0470    5.1420 O.3   203  IHP203     -0.1145
     16  O42       11.2190   33.0920    4.6790 O.3   203  IHP203     -0.1145
     17  O13       10.4750   30.5900    9.1670 O.3   203  IHP203     -0.2675
     18  P3        10.4460   31.6110   10.4370 P.3   203  IHP203      0.5327
     19  O23       10.7680   32.9900    9.9260 O.2   203  IHP203     -0.2224
     20  O33       11.5430   31.0430   11.3210 O.3   203  IHP203     -0.1145
     21  O43        9.0830   31.5320   11.0780 O.3   203  IHP203     -0.1145
     22  O14        7.2620   29.3610    7.8600 O.3   203  IHP203     -0.2675
     23  P4         5.8560   29.6650    8.6610 P.3   203  IHP203      0.5327
     24  O24        5.9000   28.9370    9.9750 O.3   203  IHP203     -0.1145
     25  O34        4.8340   29.1370    7.6700 O.2   203  IHP203     -0.2224
     26  O44        5.7580   31.1790    8.8100 O.3   203  IHP203     -0.1145
     27  O15       10.0820   27.4110    9.0230 O.3   203  IHP203     -0.2675
     28  P5         9.8330   26.0260    9.8400 P.3   203  IHP203      0.5327
     29  O25        9.1490   26.4390   11.1220 O.3   203  IHP203     -0.1145
     30  O35       11.2710   25.5790    9.9980 O.3   203  IHP203     -0.1145
     31  O45        8.9760   25.0590    9.0930 O.2   203  IHP203     -0.2224
     32  O16        8.7140   27.9130    5.7680 O.3   203  IHP203     -0.2675
     33  P6         8.6730   26.7860    4.6060 P.3   203  IHP203      0.5327
     34  O26        8.9310   25.4520    5.2230 O.3   203  IHP203     -0.1145
     35  O36        7.2680   26.9820    4.0670 O.3   203  IHP203     -0.1145
     36  O46        9.7350   27.1600    3.5620 O.2   203  IHP203     -0.2224
@<TRIPOS>BOND
     1    36    33    2
     2    14    13    2
     3    35    33    1
     4    33    34    1
     5    33    32    1
     6    16    13    1
     7    13    15    1
     8    13    12    1
     9     9     8    2
    10    32     6    1
    11     1     6    1
    12     1     2    1
    13     1     7    1
    14    12     2    1
    15     6     5    1
    16     2     3    1
    17     8     7    1
    18     8    11    1
    19     8    10    1
    20    25    23    2
    21    22     4    1
    22    22    23    1
    23     5     4    1
    24     5    27    1
    25     3     4    1
    26     3    17    1
    27    23    26    1
    28    23    24    1
    29    27    28    1
    30    31    28    2
    31    17    18    1
    32    28    30    1
    33    28    29    1
    34    19    18    2
    35    18    21    1
    36    18    20    1
