@<TRIPOS>MOLECULE
1nio_NAG_A_1.pdb
 14 14 0 0 0
SMALL
GASTEIGER

@<TRIPOS>ATOM
      1  C1       -51.7100   22.7610   37.4360 C.3   249  NAG249      0.1665
      2  C2       -52.4990   22.3090   38.6710 C.3   249  NAG249      0.1576
      3  C3       -53.9010   21.8660   38.2470 C.3   249  NAG249      0.2069
      4  C4       -54.5890   22.9550   37.4090 C.3   249  NAG249      0.2134
      5  C5       -53.6840   23.3330   36.2460 C.3   249  NAG249      0.1809
      6  C6       -54.2440   24.4530   35.3960 C.3   249  NAG249      0.2141
      7  C7       -51.3470   21.3570   40.5510 C.2   249  NAG249      0.2420
      8  C8       -50.9050   20.1080   41.2990 C.3   249  NAG249      0.0964
      9  N2       -51.8240   21.2030   39.3240 N.am  249  NAG249     -0.2019
     10  O3       -54.6690   21.5820   39.4010 O.3   249  NAG249     -0.2184
     11  O4       -55.8250   22.4810   36.9040 O.3   249  NAG249     -0.2176
     12  O5       -52.4200   23.7890   36.7530 O.3   249  NAG249     -0.3489
     13  O6       -54.4480   25.6160   36.1840 O.3   249  NAG249     -0.2176
     14  O7       -51.2530   22.4600   41.0890 O.2   249  NAG249     -0.2733
@<TRIPOS>BOND
     1     6    13    1
     2     6     5    1
     3     5    12    1
     4     5     4    1
     5    12     1    1
     6    11     4    1
     7     4     3    1
     8     1     2    1
     9     3     2    1
    10     3    10    1
    11     2     9    1
    12     9     7   am
    13     7    14    2
    14     7     8    1
