@<TRIPOS>MOLECULE
1nip_ADP_B_1.pdb
 27 29 0 0 0
SMALL
GASTEIGER

@<TRIPOS>ATOM
      1  PB         8.1130  -17.8590    6.7010 P.3   292  ADP292      0.5373
      2  O1B        6.8380  -17.9590    7.4600 O.3   292  ADP292     -0.1143
      3  O2B        7.8480  -17.1190    5.4520 O.2   292  ADP292     -0.2221
      4  O3B        8.6880  -19.1960    6.4160 O.3   292  ADP292     -0.1143
      5  PA        10.1110  -17.1270    8.9310 P.3   292  ADP292      0.2231
      6  O1A       10.9510  -18.2140    8.3300 O.2   292  ADP292     -0.5169
      7  O2A        9.7070  -17.2560   10.3540 O.3   292  ADP292     -0.4370
      8  O3A        9.2520  -17.0230    7.5380 O.3   292  ADP292     -0.2261
      9  O5'       10.9460  -15.7540    8.8620 O.3   292  ADP292     -0.3111
     10  C5'       10.7070  -14.8120    9.8970 C.3   292  ADP292      0.1813
     11  C4'       11.8400  -14.6720   10.8960 C.3   292  ADP292      0.1821
     12  O4'       13.1060  -14.6180   10.1860 O.3   292  ADP292     -0.3135
     13  C3'       11.7650  -13.3720   11.6940 C.3   292  ADP292      0.2184
     14  O3'       12.2830  -13.5380   13.0140 O.3   292  ADP292     -0.2174
     15  C2'       12.5810  -12.4040   10.8330 C.3   292  ADP292      0.2570
     16  O2'       13.1990  -11.3730   11.5630 O.3   292  ADP292     -0.2130
     17  C1'       13.6610  -13.3090   10.2610 C.3   292  ADP292      0.3186
     18  N9        14.1050  -12.8780    8.9300 N.pl3 292  ADP292     -0.1439
     19  C8        13.3490  -13.5840    8.0370 C.3   292  ADP292      0.3377
     20  N7        12.9960  -12.8990    6.9700 N.2   292  ADP292     -0.2095
     21  C5        13.4610  -11.6180    7.2330 C.2   292  ADP292      0.2526
     22  C6        13.3380  -10.4050    6.5250 C.2   292  ADP292      0.4393
     23  N6        12.6850  -10.2870    5.3680 N.pl3 292  ADP292      0.2180
     24  N1        13.9210   -9.3110    7.0710 N.2   292  ADP292      0.0021
     25  C2        14.6030   -9.4390    8.2110 C.3   292  ADP292      0.5254
     26  N3        14.6940  -10.5000    9.0180 N.2   292  ADP292     -0.0055
     27  C4        14.1360  -11.5810    8.4380 C.2   292  ADP292      0.3518
@<TRIPOS>BOND
     1    23    22    1
     2     3     1    2
     3     4     1    1
     4    22    24    2
     5    22    21    1
     6     1     2    1
     7     1     8    1
     8    20    21    2
     9    20    19    1
    10    24    25    1
    11    21    27    1
    12     8     5    1
    13    19    18    1
    14    25    26    1
    15     6     5    2
    16    27    18    1
    17    27    26    2
    18     9     5    1
    19     9    10    1
    20    18    17    1
    21     5     7    1
    22    10    11    1
    23    12    17    1
    24    12    11    1
    25    17    15    1
    26    15    16    1
    27    15    13    1
    28    11    13    1
    29    13    14    1
