@<TRIPOS>MOLECULE
1nir_DHE_A_1.pdb
 49 56 0 0 0
SMALL
GASTEIGER

@<TRIPOS>ATOM
      1 FE         27.7560   22.3840    5.9340 Fe    602  DHE602      0.0000
      2  CHA       24.4090   22.5550    6.6690 C.2   602  DHE602      0.0000
      3  CHB       28.3070   20.4320    8.6560 C.2   602  DHE602      0.0000
      4  CHC       30.8320   21.7110    4.7330 C.2   602  DHE602      0.0000
      5  CHD       27.4460   25.0280    3.7930 C.2   602  DHE602      0.0000
      6  NA        26.5290   21.5360    7.3710 N.2   602  DHE602      0.0000
      7  C1A       25.1560   21.7360    7.5080 C.2   602  DHE602      0.0000
      8  C2A       24.7040   20.9970    8.6360 C.2   602  DHE602      0.0000
      9  C3A       25.8120   20.4250    9.2340 C.2   602  DHE602      0.0000
     10  C4A       26.9700   20.7710    8.4380 C.2   602  DHE602      0.0000
     11  CMA       25.8710   19.5900   10.4880 C.3   602  DHE602      0.0000
     12  CAA       23.2510   20.8840    9.0720 C.2   602  DHE602      0.0000
     13  CBA       22.7720   21.9650    9.9580 C.2   602  DHE602      0.0000
     14  CGA       21.3100   22.0400   10.2340 C.2   602  DHE602      0.0000
     15  O1A       20.4970   21.7670    9.3150 O.co2 602  DHE602      0.0000
     16  O2A       20.9210   22.3740   11.3790 O.co2 602  DHE602      0.0000
     17  NB        29.3500   21.2460    6.5670 N.pl3 602  DHE602      0.0000
     18  C1B       29.3600   20.6000    7.7810 C.2   602  DHE602      0.0000
     19  C2B       30.7350   20.0510    8.0050 C.2   602  DHE602      0.0000
     20  OMB       31.2100   19.6580    9.0430 O.2   602  DHE602      0.0000
     21  C3B       31.4280   20.0780    6.6510 C.2   602  DHE602      0.0000
     22  CGB       31.2560   18.5950    6.0360 C.3   602  DHE602      0.0000
     23  CAB       32.8700   20.4130    6.7360 C.3   602  DHE602      0.0000
     24  CBB       33.1950   21.7860    7.1330 C.2   602  DHE602      0.0000
     25  O1B       34.3150   22.2550    6.8130 O.co2 602  DHE602      0.0000
     26  O2B       32.3540   22.4380    7.7820 O.co2 602  DHE602      0.0000
     27  C4B       30.5240   21.0630    5.9180 C.2   602  DHE602      0.0000
     28  NC        28.9250   23.2200    4.4240 N.2   602  DHE602      0.0000
     29  C1C       30.1770   22.7580    4.1320 C.2   602  DHE602      0.0000
     30  C2C       30.7800   23.6040    3.0740 C.2   602  DHE602      0.0000
     31  OMC       31.7960   23.3990    2.4680 O.2   602  DHE602      0.0000
     32  C3C       29.8690   24.8140    2.9150 C.2   602  DHE602      0.0000
     33  CGC       29.4300   24.8880    1.3680 C.3   602  DHE602      0.0000
     34  CAC       30.5400   26.0840    3.3040 C.3   602  DHE602      0.0000
     35  CBC       31.1960   26.1130    4.6250 C.2   602  DHE602      0.0000
     36  O1C       31.3090   27.2150    5.2070 O.co2 602  DHE602      0.0000
     37  O2C       31.6250   25.0540    5.1250 O.co2 602  DHE602      0.0000
     38  C4C       28.6620   24.3650    3.7480 C.2   602  DHE602      0.0000
     39  ND        26.1720   23.5890    5.3160 N.ar  602  DHE602      0.0000
     40  C1D       26.2580   24.6170    4.4130 C.ar  602  DHE602      0.0000
     41  C2D       24.9530   25.1530    4.2360 C.ar  602  DHE602      0.0000
     42  C3D       24.0720   24.3580    4.9370 C.ar  602  DHE602      0.0000
     43  C4D       24.8490   23.4430    5.7060 C.ar  602  DHE602      0.0000
     44  CMD       24.6300   26.3600    3.4020 C.3   602  DHE602      0.0000
     45  CAD       22.6060   24.4000    4.8960 C.2   602  DHE602      0.0000
     46  CBD       21.8900   24.5800    3.8390 C.2   602  DHE602      0.0000
     47  CGD       20.4290   24.4840    3.7330 C.2   602  DHE602      0.0000
     48  O1D       19.8730   24.8900    2.6850 O.co2 602  DHE602      0.0000
     49  O2D       19.7950   23.9980    4.6920 O.co2 602  DHE602      0.0000
@<TRIPOS>BOND
     1    33    32    1
     2    31    30    1
     3    48    47   ar
     4    32    30    2
     5    32    34    1
     6    32    38    1
     7    30    29    1
     8    34    35    1
     9    44    41    1
    10    47    46    1
    11    47    49   ar
    12    38     5    1
    13    38    28    2
    14     5    40    2
    15    46    45    2
    16    29    28    1
    17    29     4    2
    18    41    40   ar
    19    41    42   ar
    20    40    39   ar
    21    28     1    1
    22    35    37   ar
    23    35    36   ar
    24     4    27    1
    25    45    42    1
    26    42    43   ar
    27    39    43   ar
    28    39     1    1
    29    43     2    2
    30    27    17    1
    31    27    21    2
    32     1    17    1
    33     1     6    1
    34    22    21    1
    35    17    18    1
    36    21    23    1
    37    21    19    1
    38     2     7    1
    39    23    24    1
    40    25    24   ar
    41    24    26   ar
    42     6     7    2
    43     6    10    1
    44     7     8    1
    45    18    19    2
    46    18     3    1
    47    19    20    1
    48    10     3    2
    49    10     9    1
    50     8    12    1
    51     8     9    2
    52    12    13    2
    53     9    11    1
    54    15    14   ar
    55    13    14    1
    56    14    16   ar
