@<TRIPOS>MOLECULE
1nir_HEC_A_1.pdb
 43 50 0 0 0
SMALL
GASTEIGER

@<TRIPOS>ATOM
      1 FE         42.9830    9.8560    7.0110 Fe    601  HEC601      0.0000
      2  CHA       42.6900    6.5020    7.1640 C.2   601  HEC601      0.0000
      3  CHB       46.0100    9.7520    8.5420 C.2   601  HEC601      0.0000
      4  CHC       43.3970   13.1950    6.4030 C.2   601  HEC601      0.0000
      5  CHD       39.7180   10.0990    5.8540 C.2   601  HEC601      0.0000
      6  NA        44.1390    8.4400    7.6530 N.2   601  HEC601      0.0000
      7  C1A       43.8840    7.0780    7.6340 C.2   601  HEC601      0.0000
      8  C2A       45.0360    6.3410    8.1630 C.2   601  HEC601      0.0000
      9  C3A       45.9890    7.2550    8.4720 C.2   601  HEC601      0.0000
     10  C4A       45.4190    8.5470    8.1990 C.2   601  HEC601      0.0000
     11  CMA       47.3630    6.9750    9.0860 C.3   601  HEC601      0.0000
     12  CAA       45.2050    4.8200    8.2430 C.3   601  HEC601      0.0000
     13  CBA       44.4340    4.1450    9.3710 C.3   601  HEC601      0.0000
     14  CGA       44.8450    2.7050    9.5570 C.2   601  HEC601      0.0000
     15  O1A       44.3020    1.8350    8.8540 O.co2 601  HEC601      0.0000
     16  O2A       45.7220    2.4360   10.3980 O.co2 601  HEC601      0.0000
     17  NB        44.3220   11.1920    7.4730 N.ar  601  HEC601      0.0000
     18  C1B       45.4800   11.0050    8.2060 C.ar  601  HEC601      0.0000
     19  C2B       46.2600   12.1880    8.2630 C.ar  601  HEC601      0.0000
     20  C3B       45.5910   13.1100    7.5440 C.ar  601  HEC601      0.0000
     21  C4B       44.3870   12.5050    7.0810 C.ar  601  HEC601      0.0000
     22  CMB       47.5350   12.3760    9.1010 C.3   601  HEC601      0.0000
     23  CAB       45.8730   14.6040    7.4270 C.3   601  HEC601      0.0000
     24  CBB       47.2370   15.0500    6.9120 C.3   601  HEC601      0.0000
     25  NC        41.8250   11.3050    6.3210 N.2   601  HEC601      0.0000
     26  C1C       42.1700   12.6360    6.0930 C.2   601  HEC601      0.0000
     27  C2C       41.0600   13.4060    5.5740 C.2   601  HEC601      0.0000
     28  C3C       40.0500   12.5370    5.4250 C.2   601  HEC601      0.0000
     29  C4C       40.5030   11.2410    5.8870 C.2   601  HEC601      0.0000
     30  CMC       41.0470   14.9100    5.2410 C.3   601  HEC601      0.0000
     31  CAC       38.6450   12.8690    5.0030 C.3   601  HEC601      0.0000
     32  CBC       38.4020   13.6430    3.7150 C.3   601  HEC601      0.0000
     33  ND        41.5200    8.5840    6.5750 N.ar  601  HEC601      0.0000
     34  C1D       40.1950    8.8330    6.1520 C.ar  601  HEC601      0.0000
     35  C2D       39.4250    7.6130    6.0050 C.ar  601  HEC601      0.0000
     36  C3D       40.2830    6.6130    6.3440 C.ar  601  HEC601      0.0000
     37  C4D       41.5650    7.2070    6.6950 C.ar  601  HEC601      0.0000
     38  CMD       37.9820    7.4630    5.5260 C.3   601  HEC601      0.0000
     39  CAD       40.0440    5.1120    6.2420 C.3   601  HEC601      0.0000
     40  CBD       40.4030    4.7070    4.8170 C.3   601  HEC601      0.0000
     41  CGD       40.6400    3.2150    4.6440 C.2   601  HEC601      0.0000
     42  O1D       41.0780    2.8160    3.5480 O.co2 601  HEC601      0.0000
     43  O2D       40.4020    2.4410    5.5920 O.co2 601  HEC601      0.0000
@<TRIPOS>BOND
     1    42    41   ar
     2    32    31    1
     3    41    40    1
     4    41    43   ar
     5    40    39    1
     6    31    28    1
     7    30    27    1
     8    28    27    2
     9    28    29    1
    10    38    35    1
    11    27    26    1
    12     5    29    1
    13     5    34    2
    14    29    25    2
    15    35    34   ar
    16    35    36   ar
    17    26    25    1
    18    26     4    2
    19    34    33   ar
    20    39    36    1
    21    25     1    1
    22    36    37   ar
    23     4    21    1
    24    33    37   ar
    25    33     1    1
    26    37     2    2
    27    24    23    1
    28     1    17    1
    29     1     6    1
    30    21    17   ar
    31    21    20   ar
    32     2     7    1
    33    23    20    1
    34    17    18   ar
    35    20    19   ar
    36     7     6    2
    37     7     8    1
    38     6    10    1
    39     8    12    1
    40     8     9    2
    41    10     9    1
    42    10     3    2
    43    18    19   ar
    44    18     3    1
    45    12    13    1
    46    19    22    1
    47     9    11    1
    48    15    14   ar
    49    13    14    1
    50    14    16   ar
