@<TRIPOS>MOLECULE
1nis_NTC_A_1.pdb
 18 17 0 0 0
SMALL
GASTEIGER

@<TRIPOS>ATOM
      1  N1        34.1830   33.7900   72.7110 N.pl3 755  NTC755      0.0258
      2  O1        34.2540   33.9340   73.9020 O.2   755  NTC755     -0.1316
      3  O2        33.1920   33.8840   72.0310 O.2   755  NTC755     -0.1316
      4  C2        35.6070   33.6420   72.2420 C.3   755  NTC755      0.1390
      5  C3        36.1730   33.9980   70.8610 C.3   755  NTC755      0.2007
      6  O7        36.4590   32.7180   70.2350 O.3   755  NTC755     -0.3753
      7  C4        37.2860   34.9320   71.4870 C.3   755  NTC755      0.0905
      8  C5        37.9510   34.7340   72.8290 C.2   755  NTC755      0.3594
      9  O3        38.9880   34.1120   72.8560 O.co2 755  NTC755     -0.2463
     10  O4        37.4290   35.1940   73.8150 O.co2 755  NTC755     -0.2463
     11  C6        35.1990   34.8300   69.9540 C.2   755  NTC755      0.3895
     12  O5        34.4130   34.2040   69.1740 O.co2 755  NTC755     -0.2430
     13  O6        35.2130   36.1050   70.0470 O.co2 755  NTC755     -0.2430
     14  H21       35.7330   32.6720   72.3890 H     755  NTC755      0.0593
     15  H22       36.0660   34.1980   72.9190 H     755  NTC755      0.0593
     16  HO7       37.0400   32.6470   69.6890 H     755  NTC755      0.2110
     17  H41       36.9070   35.8380   71.6100 H     755  NTC755      0.0414
     18  H42       38.0780   34.9220   70.8950 H     755  NTC755      0.0414
@<TRIPOS>BOND
     1    12    11   ar
     2    16     6    1
     3    11    13   ar
     4    11     5    1
     5     6     5    1
     6     5     7    1
     7     5     4    1
     8    18     7    1
     9     7    17    1
    10     7     8    1
    11     3     1    2
    12     4    14    1
    13     4     1    1
    14     4    15    1
    15     1     2    2
    16     8     9   ar
    17     8    10   ar
