@<TRIPOS>MOLECULE
1niu_DCS_A_1.pdb
 22 23 0 0 0
SMALL
GASTEIGER

@<TRIPOS>ATOM
      1  N1        23.8060   10.4590   69.1240 N.ar  800  DCS800     -0.2452
      2  C2        24.9310   11.1130   69.4450 C.ar  800  DCS800      0.0978
      3  C2A       26.1970   10.3520   69.8320 C.3   800  DCS800      0.0555
      4  C3        24.9360   12.4940   69.3940 C.ar  800  DCS800      0.2065
      5  O3        26.0820   13.1540   69.6800 O.3   800  DCS800     -0.2856
      6  C4        23.7970   13.2000   69.0790 C.ar  800  DCS800      0.0394
      7  C4A       23.7950   14.6770   69.0460 C.3   800  DCS800      0.1425
      8  C5        22.5710   12.4800   68.7470 C.ar  800  DCS800      0.0278
      9  C6        22.6380   11.0870   68.7870 C.ar  800  DCS800      0.0965
     10  C5A       21.2340   13.1460   68.3510 C.3   800  DCS800      0.1816
     11  O4P       21.2900   13.8960   67.1160 O.3   800  DCS800     -0.2653
     12  P         19.9840   14.5830   66.5590 P.3   800  DCS800      0.5329
     13  O1P       19.4410   15.8060   67.6950 O.3   800  DCS800     -0.1145
     14  O2P       20.3380   15.3630   64.9670 O.2   800  DCS800     -0.2224
     15  O3P       18.6970   13.3570   66.4020 O.3   800  DCS800     -0.1145
     16  N         25.1150   15.3210   69.0440 N.pl3 800  DCS800     -0.2188
     17  CA        25.3090   16.5450   68.4200 C.2   800  DCS800      0.1923
     18  C         26.5850   17.0490   68.1930 C.1   800  DCS800      0.2075
     19  O         27.7160   16.4470   68.5630 O.2   800  DCS800     -0.2176
     20  ND        26.5170   18.1600   67.5830 N.2   800  DCS800      0.0013
     21  OG        25.1930   18.4540   67.3540 O.2   800  DCS800     -0.3387
     22  CB        24.4150   17.4610   67.8840 C.2   800  DCS800      0.2410
@<TRIPOS>BOND
     1    14    12    2
     2    15    12    1
     3    12    11    1
     4    12    13    1
     5    11    10    1
     6    21    20    1
     7    21    22    1
     8    20    18    2
     9    22    17    2
    10    18    17    1
    11    18    19    2
    12    10     8    1
    13    17    16    1
    14     8     9   ar
    15     8     6   ar
    16     9     1   ar
    17    16     7    1
    18     7     6    1
    19     6     4   ar
    20     1     2   ar
    21     4     2   ar
    22     4     5    1
    23     2     3    1
