@<TRIPOS>MOLECULE
1niv_MDM_A_1.pdb
 13 13 0 0 0
SMALL
GASTEIGER

@<TRIPOS>ATOM
      1  C1'      139.6080   55.0070  136.3900 C.3   110  MDM110      0.2695
      2  C2'      139.4730   53.9480  135.2830 C.3   110  MDM110      0.2406
      3  C3'      138.3580   54.3450  134.3150 C.3   110  MDM110      0.2198
      4  C4'      137.0670   54.5440  135.0950 C.3   110  MDM110      0.2144
      5  C5'      137.2900   55.6310  136.1490 C.3   110  MDM110      0.1835
      6  C6'      136.0590   55.9180  136.9950 C.3   110  MDM110      0.2142
      7  C7'      140.5030   57.2270  136.7760 C.3   110  MDM110      0.1769
      8  O1'      140.0470   56.2140  135.8520 O.3   110  MDM110     -0.3259
      9  O2'      139.1700   52.6920  135.8710 O.3   110  MDM110     -0.2149
     10  O3'      138.1730   53.3420  133.3310 O.3   110  MDM110     -0.2174
     11  O4'      136.0210   54.9150  134.2080 O.3   110  MDM110     -0.2176
     12  O5'      138.3460   55.2270  137.0530 O.3   110  MDM110     -0.3256
     13  O6'      136.4150   56.3540  138.3000 O.3   110  MDM110     -0.2176
@<TRIPOS>BOND
     1    10     3    1
     2    11     4    1
     3     3     4    1
     4     3     2    1
     5     4     5    1
     6     2     9    1
     7     2     1    1
     8     8     1    1
     9     8     7    1
    10     5     6    1
    11     5    12    1
    12     1    12    1
    13     6    13    1
