@<TRIPOS>MOLECULE
1nj1_5CA_A_1.pdb
 29 31 0 0 0
SMALL
GASTEIGER

@<TRIPOS>ATOM
      1  N        -35.9760  -79.8260  -41.0890 N.3   512  5CA512     -0.1220
      2  CA       -34.5200  -79.9190  -41.0260 C.3   512  5CA512      0.1825
      3  CB       -33.8810  -78.5490  -40.9800 C.3   512  5CA512      0.0971
      4  SG       -34.8610  -77.4050  -40.0070 S.3   512  5CA512     -0.0800
      5  C        -34.1460  -80.6510  -39.7710 C.2   512  5CA512      0.2807
      6  O        -34.9160  -81.1100  -38.9640 O.2   512  5CA512     -0.2701
      7  N3S      -32.9120  -81.2250  -39.8930 N.am  512  5CA512     -0.0576
      8  S        -32.2610  -82.2960  -38.8900 S.3   512  5CA512      0.0852
      9  O1S      -33.1810  -83.4350  -38.7140 O.3   512  5CA512     -0.0508
     10  O2S      -30.9160  -82.5760  -39.4920 O.3   512  5CA512     -0.0508
     11  O5'      -32.0400  -81.5710  -37.4770 O.3   512  5CA512     -0.2230
     12  C5'      -31.4750  -80.2500  -37.3870 C.3   512  5CA512      0.2064
     13  C4'      -30.3270  -80.1980  -36.4020 C.3   512  5CA512      0.1842
     14  O4'      -30.7980  -80.4420  -35.0510 O.3   512  5CA512     -0.3135
     15  C3'      -29.2370  -81.2230  -36.6300 C.3   512  5CA512      0.2185
     16  O3'      -28.2750  -80.6930  -37.5440 O.3   512  5CA512     -0.2174
     17  C2'      -28.6750  -81.4880  -35.2420 C.3   512  5CA512      0.2570
     18  O2'      -27.5650  -80.6710  -34.9240 O.3   512  5CA512     -0.2130
     19  C1'      -29.8410  -81.1920  -34.3160 C.3   512  5CA512      0.3186
     20  N9       -30.5320  -82.3740  -33.7320 N.pl3 512  5CA512     -0.1439
     21  C8       -31.1910  -83.4110  -34.3680 C.3   512  5CA512      0.3377
     22  N7       -31.7090  -84.3000  -33.5380 N.2   512  5CA512     -0.2095
     23  C5       -31.3760  -83.8280  -32.2790 C.2   512  5CA512      0.2526
     24  C6       -31.6320  -84.3100  -30.9510 C.2   512  5CA512      0.4393
     25  N6       -32.3150  -85.4240  -30.6890 N.pl3 512  5CA512      0.2180
     26  N1       -31.1510  -83.5890  -29.8880 N.2   512  5CA512      0.0021
     27  C2       -30.4530  -82.4460  -30.1300 C.3   512  5CA512      0.5254
     28  N3       -30.1550  -81.8980  -31.3360 N.2   512  5CA512     -0.0055
     29  C4       -30.6460  -82.6400  -32.3750 C.2   512  5CA512      0.3518
@<TRIPOS>BOND
     1     1     2    1
     2     2     3    1
     3     2     5    1
     4     3     4    1
     5     7     5   am
     6     7     8    1
     7     5     6    2
     8    10     8    1
     9     8     9    1
    10     8    11    1
    11    16    15    1
    12    11    12    1
    13    12    13    1
    14    15    13    1
    15    15    17    1
    16    13    14    1
    17    17    18    1
    18    17    19    1
    19    14    19    1
    20    21    20    1
    21    21    22    1
    22    19    20    1
    23    20    29    1
    24    22    23    2
    25    29    23    1
    26    29    28    2
    27    23    24    1
    28    28    27    1
    29    24    25    1
    30    24    26    2
    31    27    26    1
