@<TRIPOS>MOLECULE
1nj5_P5A_A_1.pdb
 30 33 0 0 0
SMALL
GASTEIGER

@<TRIPOS>ATOM
      1  CB       -33.8120  -78.6330  -41.0350 C.3   510  P5A510      0.0283
      2  CG       -34.6990  -77.7560  -40.1660 C.3   510  P5A510      0.0208
      3  C        -34.2250  -80.8960  -39.9730 C.2   510  P5A510      0.2782
      4  O        -35.0350  -81.1790  -39.0820 O.2   510  P5A510     -0.2701
      5  N        -36.0370  -79.5520  -40.9990 N.3   510  P5A510     -0.2102
      6  CD       -36.1590  -78.1620  -40.5100 C.3   510  P5A510      0.0893
      7  CA       -34.6190  -79.9300  -41.1030 C.3   510  P5A510      0.1521
      8  N3S      -32.9820  -81.3910  -40.0110 N.am  510  P5A510     -0.0577
      9  S        -32.3650  -82.3860  -38.9380 S.3   510  P5A510      0.0852
     10  O1S      -33.2810  -83.5300  -38.7480 O.3   510  P5A510     -0.0508
     11  O2S      -30.9780  -82.6450  -39.4540 O.3   510  P5A510     -0.0508
     12  O5'      -32.2310  -81.5750  -37.5700 O.3   510  P5A510     -0.2230
     13  C5'      -31.4920  -80.3370  -37.5110 C.3   510  P5A510      0.2064
     14  C4'      -30.3650  -80.3880  -36.4960 C.3   510  P5A510      0.1842
     15  O4'      -30.9010  -80.6470  -35.1770 O.3   510  P5A510     -0.3135
     16  C1'      -29.9890  -81.4020  -34.4060 C.3   510  P5A510      0.3186
     17  N9       -30.6730  -82.5670  -33.8150 N.pl3 510  P5A510     -0.1439
     18  C4       -30.7710  -82.8100  -32.4510 C.2   510  P5A510      0.3518
     19  N3       -30.2670  -82.0510  -31.4230 N.2   510  P5A510     -0.0055
     20  C2       -30.5510  -82.5820  -30.2240 C.3   510  P5A510      0.5254
     21  N1       -31.2470  -83.7160  -29.9550 N.2   510  P5A510      0.0021
     22  C6       -31.7410  -84.4570  -30.9940 C.2   510  P5A510      0.4393
     23  N6       -32.4220  -85.5610  -30.7000 N.pl3 510  P5A510      0.2180
     24  C5       -31.5060  -83.9940  -32.3310 C.2   510  P5A510      0.2526
     25  N7       -31.8500  -84.4870  -33.5800 N.2   510  P5A510     -0.2095
     26  C8       -31.3400  -83.6100  -34.4210 C.3   510  P5A510      0.3377
     27  C2'      -28.7710  -81.6700  -35.2950 C.3   510  P5A510      0.2570
     28  O2'      -27.7780  -80.7320  -34.9190 O.3   510  P5A510     -0.2130
     29  C3'      -29.3420  -81.4940  -36.6970 C.3   510  P5A510      0.2185
     30  O3'      -28.3540  -81.0540  -37.6250 O.3   510  P5A510     -0.2174
@<TRIPOS>BOND
     1     7     1    1
     2     7     5    1
     3     7     3    1
     4     1     2    1
     5     5     6    1
     6     6     2    1
     7     8     3   am
     8     8     9    1
     9     3     4    2
    10    11     9    1
    11     9    10    1
    12     9    12    1
    13    30    29    1
    14    12    13    1
    15    13    14    1
    16    29    14    1
    17    29    27    1
    18    14    15    1
    19    27    28    1
    20    27    16    1
    21    15    16    1
    22    26    17    1
    23    26    25    1
    24    16    17    1
    25    17    18    1
    26    25    24    2
    27    18    24    1
    28    18    19    2
    29    24    22    1
    30    19    20    1
    31    22    23    1
    32    22    21    2
    33    20    21    1
