@<TRIPOS>MOLECULE
1nj6_A5A_A_1.pdb
 28 30 0 0 0
SMALL
GASTEIGER

@<TRIPOS>ATOM
      1  N        -35.9160  -79.5430  -41.2860 N.3   508  A5A508     -0.1230
      2  CA       -34.4650  -79.6220  -41.1800 C.3   508  A5A508      0.1710
      3  CB       -33.8460  -78.2260  -41.0440 C.3   508  A5A508      0.0305
      4  C        -34.1290  -80.3930  -39.9390 C.2   508  A5A508      0.2798
      5  O        -34.9200  -80.8690  -39.1620 O.2   508  A5A508     -0.2701
      6  N3S      -32.9080  -81.0040  -40.0500 N.am  508  A5A508     -0.0577
      7  S        -32.3200  -82.1120  -39.0350 S.3   508  A5A508      0.0852
      8  O1S      -33.3000  -83.1970  -38.8330 O.3   508  A5A508     -0.0508
      9  O2S      -30.9830  -82.4670  -39.6220 O.3   508  A5A508     -0.0508
     10  O5'      -32.0410  -81.3720  -37.6480 O.3   508  A5A508     -0.2230
     11  C5'      -31.2650  -80.1660  -37.6230 C.3   508  A5A508      0.2064
     12  C4'      -30.2210  -80.1820  -36.5270 C.3   508  A5A508      0.1842
     13  O4'      -30.8290  -80.4290  -35.2270 O.3   508  A5A508     -0.3135
     14  C3'      -29.1420  -81.2420  -36.6440 C.3   508  A5A508      0.2185
     15  O3'      -28.1230  -80.8140  -37.5490 O.3   508  A5A508     -0.2174
     16  C2'      -28.6640  -81.4140  -35.2060 C.3   508  A5A508      0.2570
     17  O2'      -27.6120  -80.5320  -34.8320 O.3   508  A5A508     -0.2130
     18  C1'      -29.9200  -81.1440  -34.3930 C.3   508  A5A508      0.3186
     19  N9       -30.6080  -82.3420  -33.8550 N.pl3 508  A5A508     -0.1439
     20  C8       -31.2690  -83.3540  -34.5290 C.3   508  A5A508      0.3377
     21  N7       -31.7870  -84.2760  -33.7350 N.2   508  A5A508     -0.2095
     22  C5       -31.4510  -83.8520  -32.4570 C.2   508  A5A508      0.2526
     23  C6       -31.7040  -84.3850  -31.1470 C.2   508  A5A508      0.4393
     24  N6       -32.3900  -85.5130  -30.9310 N.pl3 508  A5A508      0.2180
     25  N1       -31.2180  -83.7000  -30.0550 N.2   508  A5A508      0.0021
     26  C2       -30.5190  -82.5460  -30.2550 C.3   508  A5A508      0.5254
     27  N3       -30.2210  -81.9510  -31.4370 N.2   508  A5A508     -0.0055
     28  C4       -30.7180  -82.6570  -32.5080 C.2   508  A5A508      0.3518
@<TRIPOS>BOND
     1     1     2    1
     2     2     3    1
     3     2     4    1
     4     6     4   am
     5     6     7    1
     6     4     5    2
     7     9     7    1
     8     7     8    1
     9     7    10    1
    10    10    11    1
    11    11    12    1
    12    15    14    1
    13    14    12    1
    14    14    16    1
    15    12    13    1
    16    13    18    1
    17    16    17    1
    18    16    18    1
    19    20    19    1
    20    20    21    1
    21    18    19    1
    22    19    28    1
    23    21    22    2
    24    28    22    1
    25    28    27    2
    26    22    23    1
    27    27    26    1
    28    23    24    1
    29    23    25    2
    30    26    25    1
