@<TRIPOS>MOLECULE
1nja_DCM_A_1.pdb
 20 21 0 0 0
SMALL
GASTEIGER

@<TRIPOS>ATOM
      1  N1        15.1840   46.7700  -52.4170 N.am  317  DCM317     -0.1802
      2  C2        14.3930   45.8310  -51.8040 C.1   317  DCM317      0.2756
      3  N3        13.6130   46.2850  -50.7560 N.2   317  DCM317     -0.3024
      4  C4        13.6360   47.5830  -50.3560 C.2   317  DCM317      0.2346
      5  C5        14.4610   48.5200  -51.0050 C.2   317  DCM317      0.0687
      6  C6        15.2310   48.0420  -52.0540 C.2   317  DCM317      0.0835
      7  O2        14.3930   44.6540  -52.1480 O.2   317  DCM317     -0.1925
      8  N4        12.9040   48.0020  -49.3460 N.pl3 317  DCM317     -0.0921
      9  C1'       16.0180   46.4250  -53.5420 C.3   317  DCM317      0.2090
     10  C2'       15.2480   46.3280  -54.8550 C.3   317  DCM317      0.0874
     11  C3'       16.4140   46.3740  -55.8260 C.3   317  DCM317      0.1857
     12  C4'       17.3030   47.5340  -55.3580 C.3   317  DCM317      0.1774
     13  O4'       17.1420   47.3690  -53.8730 O.3   317  DCM317     -0.3339
     14  O3'       17.1580   45.1450  -55.6540 O.3   317  DCM317     -0.2203
     15  C5'       16.7270   48.8740  -55.8280 C.3   317  DCM317      0.1858
     16  O5'       16.9780   48.9670  -57.2610 O.3   317  DCM317     -0.2675
     17  P         15.9390   49.3110  -58.3770 P.3   317  DCM317      0.5327
     18  O1P       16.4890   49.0510  -59.7300 O.2   317  DCM317     -0.2224
     19  O2P       14.8250   48.3920  -58.1470 O.3   317  DCM317     -0.1145
     20  O3P       15.5140   50.7430  -58.3510 O.3   317  DCM317     -0.1145
@<TRIPOS>BOND
     1    18    17    2
     2    17    20    1
     3    17    19    1
     4    17    16    1
     5    16    15    1
     6    15    12    1
     7    11    14    1
     8    11    12    1
     9    11    10    1
    10    12    13    1
    11    10     9    1
    12    13     9    1
    13     9     1    1
    14     1     6    1
    15     1     2   am
    16     7     2    2
    17     6     5    2
    18     2     3    2
    19     5     4    1
    20     3     4    2
    21     4     8    1
