@<TRIPOS>MOLECULE
1njb_UMP_A_1.pdb
 20 21 0 0 0
SMALL
GASTEIGER

@<TRIPOS>ATOM
      1  N1        14.8350   48.6670  -53.7220 N.am  317  UMP317     -0.1790
      2  C2        14.0010   47.6040  -53.2930 C.1   317  UMP317      0.2844
      3  N3        13.1350   47.8370  -52.2100 N.2   317  UMP317     -0.2452
      4  C4        13.0410   49.0460  -51.5290 C.1   317  UMP317      0.2182
      5  C5        13.9550   50.0780  -52.0280 C.2   317  UMP317      0.1242
      6  C6        14.8230   49.8340  -53.1130 C.2   317  UMP317      0.0928
      7  O2        13.9930   46.4800  -53.7910 O.2   317  UMP317     -0.1918
      8  O4        12.2150   49.1940  -50.6280 O.2   317  UMP317     -0.2085
      9  C1'       15.7010   48.5970  -54.9600 C.3   317  UMP317      0.2090
     10  C2'       15.2140   47.8970  -56.2300 C.3   317  UMP317      0.0874
     11  C3'       16.3680   48.1350  -57.1920 C.3   317  UMP317      0.1857
     12  C4'       16.7520   49.6130  -57.0540 C.3   317  UMP317      0.1774
     13  O3'       17.4610   47.3730  -56.7310 O.3   317  UMP317     -0.2203
     14  O4'       16.4770   49.7800  -55.5790 O.3   317  UMP317     -0.3339
     15  C5'       15.7890   50.4960  -57.8560 C.3   317  UMP317      0.1858
     16  O5'       15.9170   50.2850  -59.3180 O.3   317  UMP317     -0.2675
     17  P         15.9820   51.5650  -60.2870 P.3   317  UMP317      0.5327
     18  OP1       16.2200   51.1250  -61.7030 O.2   317  UMP317     -0.2224
     19  OP2       14.7690   52.3560  -60.0650 O.3   317  UMP317     -0.1145
     20  OP3       17.0260   52.4010  -59.7760 O.3   317  UMP317     -0.1145
@<TRIPOS>BOND
     1    18    17    2
     2    17    19    1
     3    17    20    1
     4    17    16    1
     5    16    15    1
     6    15    12    1
     7    11    12    1
     8    11    13    1
     9    11    10    1
    10    12    14    1
    11    10     9    1
    12    14     9    1
    13     9     1    1
    14     7     2    2
    15     1     2   am
    16     1     6    1
    17     2     3    2
    18     6     5    2
    19     3     4    2
    20     5     4    1
    21     4     8    2
