@<TRIPOS>MOLECULE
1njc_DCM_A_1.pdb
 20 21 0 0 0
SMALL
GASTEIGER

@<TRIPOS>ATOM
      1  N1        14.9020   46.4380  -51.7190 N.am  317  DCM317     -0.1802
      2  C2        14.1850   45.3580  -51.2250 C.1   317  DCM317      0.2756
      3  N3        13.7110   45.4090  -49.9240 N.2   317  DCM317     -0.3024
      4  C4        13.9520   46.4790  -49.1260 C.2   317  DCM317      0.2346
      5  C5        14.6640   47.6150  -49.6750 C.2   317  DCM317      0.0687
      6  C6        15.1110   47.5240  -51.0020 C.2   317  DCM317      0.0835
      7  O2        13.9430   44.3460  -51.8670 O.2   317  DCM317     -0.1925
      8  N4        13.6750   46.4080  -47.8210 N.pl3 317  DCM317     -0.0921
      9  C1'       15.7210   46.3370  -52.9350 C.3   317  DCM317      0.2090
     10  C2'       15.0440   46.1050  -54.2880 C.3   317  DCM317      0.0874
     11  C3'       16.2320   46.2250  -55.2340 C.3   317  DCM317      0.1857
     12  C4'       16.9860   47.4800  -54.8130 C.3   317  DCM317      0.1774
     13  O4'       16.6240   47.4730  -53.3390 O.3   317  DCM317     -0.3339
     14  O3'       17.1240   45.1520  -54.9100 O.3   317  DCM317     -0.2203
     15  C5'       16.4080   48.7120  -55.5100 C.3   317  DCM317      0.1858
     16  O5'       16.8400   48.7060  -56.9070 O.3   317  DCM317     -0.2675
     17  P         15.9630   49.4190  -58.0000 P.3   317  DCM317      0.5327
     18  O1P       16.6410   49.6050  -59.3080 O.2   317  DCM317     -0.2224
     19  O2P       14.9040   48.4060  -58.0760 O.3   317  DCM317     -0.1145
     20  O3P       15.4330   50.7220  -57.5860 O.3   317  DCM317     -0.1145
@<TRIPOS>BOND
     1    18    17    2
     2    19    17    1
     3    17    20    1
     4    17    16    1
     5    16    15    1
     6    15    12    1
     7    11    14    1
     8    11    12    1
     9    11    10    1
    10    12    13    1
    11    10     9    1
    12    13     9    1
    13     9     1    1
    14     7     2    2
    15     1     2   am
    16     1     6    1
    17     2     3    2
    18     6     5    2
    19     3     4    2
    20     5     4    1
    21     4     8    1
