@<TRIPOS>MOLECULE
1njd_UMP_A_1.pdb
 20 21 0 0 0
SMALL
GASTEIGER

@<TRIPOS>ATOM
      1  N1        14.3370   48.9220  -53.7510 N.am  317  UMP317     -0.1790
      2  C2        13.7210   47.7480  -53.2950 C.1   317  UMP317      0.2844
      3  N3        13.1870   47.7900  -52.0450 N.2   317  UMP317     -0.2452
      4  C4        13.1950   48.8840  -51.2070 C.1   317  UMP317      0.2182
      5  C5        13.8270   50.0850  -51.7730 C.2   317  UMP317      0.1242
      6  C6        14.3800   50.0490  -53.0580 C.2   317  UMP317      0.0928
      7  O2        13.5560   46.7160  -53.9220 O.2   317  UMP317     -0.1918
      8  O4        12.7370   48.7600  -50.0710 O.2   317  UMP317     -0.2085
      9  C1'       15.2860   48.8570  -54.8720 C.3   317  UMP317      0.2090
     10  C2'       14.9090   48.3410  -56.2530 C.3   317  UMP317      0.0874
     11  C3'       16.2430   48.4610  -56.9730 C.3   317  UMP317      0.1857
     12  C4'       16.8010   49.8430  -56.6170 C.3   317  UMP317      0.1774
     13  O3'       17.0720   47.4190  -56.4130 O.3   317  UMP317     -0.2203
     14  O4'       16.2780   49.9550  -55.1960 O.3   317  UMP317     -0.3339
     15  C5'       16.1420   50.9350  -57.4670 C.3   317  UMP317      0.1858
     16  O5'       16.5150   50.8640  -58.8880 O.3   317  UMP317     -0.2675
     17  P         15.7870   51.8270  -59.9230 P.3   317  UMP317      0.5327
     18  OP1       14.7100   51.0060  -60.4670 O.3   317  UMP317     -0.1145
     19  OP2       15.1840   53.0580  -59.4170 O.3   317  UMP317     -0.1145
     20  OP3       16.7390   52.1750  -60.9980 O.2   317  UMP317     -0.2224
@<TRIPOS>BOND
     1    20    17    2
     2    18    17    1
     3    17    19    1
     4    17    16    1
     5    16    15    1
     6    15    12    1
     7    11    12    1
     8    11    13    1
     9    11    10    1
    10    12    14    1
    11    10     9    1
    12    14     9    1
    13     9     1    1
    14     7     2    2
    15     1     2   am
    16     1     6    1
    17     2     3    2
    18     6     5    2
    19     3     4    2
    20     5     4    1
    21     4     8    2
