@<TRIPOS>MOLECULE
1nje_DCM_A_1.pdb
 20 21 0 0 0
SMALL
GASTEIGER

@<TRIPOS>ATOM
      1  N1        14.9720   48.6210  -53.6410 N.am  317  DCM317     -0.1802
      2  C2        13.9580   47.6620  -53.3390 C.1   317  DCM317      0.2756
      3  N3        13.4530   47.6980  -52.0380 N.2   317  DCM317     -0.3024
      4  C4        13.8990   48.5830  -51.1030 C.2   317  DCM317      0.2346
      5  C5        14.9300   49.5440  -51.4400 C.2   317  DCM317      0.0687
      6  C6        15.4140   49.5060  -52.7440 C.2   317  DCM317      0.0835
      7  O2        13.4740   46.8020  -54.0790 O.2   317  DCM317     -0.1925
      8  N4        13.3350   48.5740  -49.8930 N.pl3 317  DCM317     -0.0921
      9  C1'       15.7710   48.7160  -54.8950 C.3   317  DCM317      0.2090
     10  C2'       15.2940   48.0030  -56.1650 C.3   317  DCM317      0.0874
     11  C3'       16.2370   48.5670  -57.2150 C.3   317  DCM317      0.1857
     12  C4'       16.2670   50.0920  -56.9730 C.3   317  DCM317      0.1774
     13  O4'       16.0570   50.0850  -55.4720 O.3   317  DCM317     -0.3339
     14  O3'       17.5420   47.9390  -56.9360 O.3   317  DCM317     -0.2203
     15  C5'       15.0230   50.7860  -57.5420 C.3   317  DCM317      0.1858
     16  O5'       14.9310   50.8660  -58.9920 O.3   317  DCM317     -0.2675
     17  P         15.6650   52.0000  -59.8200 P.3   317  DCM317      0.5327
     18  O1P       17.0980   51.7610  -59.7950 O.3   317  DCM317     -0.1145
     19  O2P       15.2470   51.8460  -61.2140 O.2   317  DCM317     -0.2224
     20  O3P       15.2910   53.2800  -59.2480 O.3   317  DCM317     -0.1145
@<TRIPOS>BOND
     1    19    17    2
     2    17    18    1
     3    17    20    1
     4    17    16    1
     5    16    15    1
     6    15    12    1
     7    11    12    1
     8    11    14    1
     9    11    10    1
    10    12    13    1
    11    10     9    1
    12    13     9    1
    13     9     1    1
    14     7     2    2
    15     1     2   am
    16     1     6    1
    17     2     3    2
    18     6     5    2
    19     3     4    2
    20     5     4    1
    21     4     8    1
