@<TRIPOS>MOLECULE
1njf_AGS_A_1.pdb
 31 33 0 0 0
SMALL
GASTEIGER

@<TRIPOS>ATOM
      1  PG         1.0390   21.9600   38.7370 P.3   402  AGS402      0.4340
      2  S1G        1.7880   20.4990   38.2240 S.3   402  AGS402      0.0416
      3  O2G       -0.3240   22.1490   38.1560 O.2   402  AGS402     -0.2423
      4  O3G        1.9400   23.1630   38.3100 O.3   402  AGS402     -0.1305
      5  PB         1.7840   21.6820   41.6690 P.3   402  AGS402      0.2262
      6  O1B        3.1270   22.2640   41.3270 O.2   402  AGS402     -0.5168
      7  O2B        1.7010   20.2760   42.2050 O.3   402  AGS402     -0.4369
      8  O3B        0.8480   21.8650   40.3860 O.3   402  AGS402     -0.2405
      9  PA         1.5460   24.0440   43.3900 P.3   402  AGS402      0.2189
     10  O1A        2.5630   23.6910   44.4450 O.3   402  AGS402     -0.4371
     11  O2A        2.0240   25.0130   42.3310 O.2   402  AGS402     -0.5170
     12  O3A        1.0870   22.6620   42.7070 O.3   402  AGS402     -0.2701
     13  O5'        0.1500   24.4710   44.0970 O.3   402  AGS402     -0.3112
     14  C5'       -0.5860   25.5850   43.5060 C.3   402  AGS402      0.1813
     15  C4'       -1.4120   26.3110   44.5700 C.3   402  AGS402      0.1821
     16  O4'       -2.2640   25.2860   45.2020 O.3   402  AGS402     -0.3135
     17  C3'       -0.5780   26.8970   45.7420 C.3   402  AGS402      0.2184
     18  O3'       -0.2200   28.2590   45.5640 O.3   402  AGS402     -0.2174
     19  C2'       -1.4330   26.6200   46.9800 C.3   402  AGS402      0.2570
     20  O2'       -2.2570   27.6920   47.3820 O.3   402  AGS402     -0.2130
     21  C1'       -2.2480   25.4200   46.6390 C.3   402  AGS402      0.3186
     22  N9        -1.6890   24.1220   47.2120 N.pl3 402  AGS402     -0.1439
     23  C8        -1.3380   23.0640   46.3910 C.3   402  AGS402      0.3377
     24  N7        -0.8690   21.9920   47.0020 N.2   402  AGS402     -0.2095
     25  C5        -0.8990   22.3370   48.3250 C.2   402  AGS402      0.2526
     26  C6        -0.5260   21.6320   49.5220 C.2   402  AGS402      0.4393
     27  N6        -0.0390   20.3710   49.5190 N.pl3 402  AGS402      0.2180
     28  N1        -0.6870   22.2910   50.7240 N.2   402  AGS402      0.0021
     29  C2        -1.1840   23.5730   50.7410 C.3   402  AGS402      0.5254
     30  N3        -1.5670   24.3320   49.6710 N.2   402  AGS402     -0.0055
     31  C4        -1.4010   23.6630   48.4830 C.2   402  AGS402      0.3518
@<TRIPOS>BOND
     1     3     1    2
     2     2     1    1
     3     4     1    1
     4     1     8    1
     5     8     5    1
     6     6     5    2
     7     5     7    1
     8     5    12    1
     9    11     9    2
    10    12     9    1
    11     9    13    1
    12     9    10    1
    13    14    13    1
    14    14    15    1
    15    15    16    1
    16    15    17    1
    17    16    21    1
    18    18    17    1
    19    17    19    1
    20    23    24    1
    21    23    22    1
    22    21    19    1
    23    21    22    1
    24    19    20    1
    25    24    25    2
    26    22    31    1
    27    25    31    1
    28    25    26    1
    29    31    30    2
    30    27    26    1
    31    26    28    2
    32    30    29    1
    33    28    29    1
