@<TRIPOS>MOLECULE
1njf_ADP_C_1.pdb
 27 29 0 0 0
SMALL
GASTEIGER

@<TRIPOS>ATOM
      1  PB        36.1750   50.0100   18.5370 P.3   302  ADP302      0.5373
      2  O1B       35.0250   50.5180   19.3060 O.3   302  ADP302     -0.1143
      3  O2B       36.1170   48.5770   18.0270 O.2   302  ADP302     -0.2221
      4  O3B       37.4550   50.2190   19.4250 O.3   302  ADP302     -0.1143
      5  PA        36.2980   52.5110   17.1140 P.3   302  ADP302      0.2231
      6  O1A       35.2550   52.6640   16.0700 O.2   302  ADP302     -0.5169
      7  O2A       35.9650   53.2770   18.3610 O.3   302  ADP302     -0.4370
      8  O3A       36.3920   50.9320   17.3470 O.3   302  ADP302     -0.2261
      9  O5'       37.7870   52.7930   16.5050 O.3   302  ADP302     -0.3111
     10  C5'       38.4630   54.0560   16.8710 C.3   302  ADP302      0.1813
     11  C4'       39.1150   54.7760   15.6610 C.3   302  ADP302      0.1821
     12  O4'       39.8020   53.7380   14.8550 O.3   302  ADP302     -0.3135
     13  C3'       38.1090   55.4000   14.6710 C.3   302  ADP302      0.2184
     14  O3'       37.7030   56.7030   14.9760 O.3   302  ADP302     -0.2174
     15  C2'       38.8040   55.2260   13.3290 C.3   302  ADP302      0.2570
     16  O2'       39.6400   56.3000   12.9100 O.3   302  ADP302     -0.2130
     17  C1'       39.5850   53.9900   13.4530 C.3   302  ADP302      0.3186
     18  N9        38.8800   52.7610   12.8650 N.pl3 302  ADP302     -0.1439
     19  C8        38.5930   51.6480   13.6290 C.3   302  ADP302      0.3377
     20  N7        37.9980   50.6570   13.0210 N.2   302  ADP302     -0.2095
     21  C5        37.8510   51.1040   11.7590 C.2   302  ADP302      0.2526
     22  C6        37.2790   50.5190   10.5470 C.2   302  ADP302      0.4393
     23  N6        36.7190   49.2890   10.4880 N.pl3 302  ADP302      0.2180
     24  N1        37.3000   51.2830    9.3950 N.2   302  ADP302      0.0021
     25  C2        37.8610   52.5510    9.3970 C.3   302  ADP302      0.5254
     26  N3        38.4280   53.1920   10.4660 N.2   302  ADP302     -0.0055
     27  C4        38.4080   52.4210   11.6220 C.2   302  ADP302      0.3518
@<TRIPOS>BOND
     1    24    25    1
     2    24    22    2
     3    25    26    1
     4    26    27    2
     5    23    22    1
     6    22    21    1
     7    27    21    1
     8    27    18    1
     9    21    20    2
    10    18    17    1
    11    18    19    1
    12    16    15    1
    13    20    19    1
    14    15    17    1
    15    15    13    1
    16    17    12    1
    17    13    14    1
    18    13    11    1
    19    12    11    1
    20    11    10    1
    21     6     5    2
    22     9    10    1
    23     9     5    1
    24     5     8    1
    25     5     7    1
    26     8     1    1
    27     3     1    2
    28     1     2    1
    29     1     4    1
