@<TRIPOS>MOLECULE
1njj_ORX_A_1.pdb
 24 24 0 0 0
SMALL
GASTEIGER

@<TRIPOS>ATOM
      1  OA        51.1690   78.2420  107.9050 O.co2 602  ORX602     -0.2441
      2  CA        52.1110   79.0060  107.2930 C.2   602  ORX602      0.3803
      3  OXT       52.9900   78.4190  106.4250 O.co2 602  ORX602     -0.2441
      4  CAA       52.1760   80.5330  107.5870 C.3   602  ORX602      0.1761
      5  NA        52.2540   81.3850  106.2740 N.3   602  ORX602     -0.2034
      6  C4A       53.5330   81.1550  105.4650 C.3   602  ORX602      0.1186
      7  C4        53.4300   81.6590  103.9720 C.ar  602  ORX602      0.0353
      8  C5        54.5380   82.2360  103.2400 C.ar  602  ORX602      0.0275
      9  C6        54.5510   82.7110  101.9370 C.ar  602  ORX602      0.0965
     10  N1        53.4120   82.6400  101.1810 N.ar  602  ORX602     -0.2452
     11  C2        52.2390   82.0990  101.7160 C.ar  602  ORX602      0.0978
     12  C3        52.2630   81.6150  103.1280 C.ar  602  ORX602      0.2062
     13  O3        51.0570   81.1070  103.5130 O.3   602  ORX602     -0.2856
     14  C2A       51.1650   82.1610  100.6440 C.3   602  ORX602      0.0555
     15  C5A       55.8750   82.3950  103.8700 C.3   602  ORX602      0.1816
     16  OP4       56.3670   81.2920  104.5030 O.3   602  ORX602     -0.2653
     17  P         57.8250   81.2910  105.0890 P.3   602  ORX602      0.5329
     18  OP1       58.1220   80.0530  105.7540 O.3   602  ORX602     -0.1145
     19  OP2       57.9100   82.6130  105.8460 O.3   602  ORX602     -0.1145
     20  OP3       58.7000   81.3020  103.8570 O.2   602  ORX602     -0.2224
     21  CBA       53.3220   80.7740  108.6090 C.3   602  ORX602      0.0305
     22  CGA       52.9510   80.5900  110.0760 C.3   602  ORX602      0.0225
     23  CDA       53.2220   81.8580  110.8870 C.3   602  ORX602      0.1094
     24  NE        52.8870   81.6150  112.3060 N.3   602  ORX602     -0.1314
@<TRIPOS>BOND
     1    14    11    1
     2    10    11   ar
     3    10     9   ar
     4    11    12   ar
     5     9     8   ar
     6    12    13    1
     7    12     7   ar
     8     8    15    1
     9     8     7   ar
    10    20    17    2
    11    15    16    1
    12     7     6    1
    13    16    17    1
    14    17    18    1
    15    17    19    1
    16     6     5    1
    17     5     4    1
    18     3     2   ar
    19     2     4    1
    20     2     1   ar
    21     4    21    1
    22    21    22    1
    23    22    23    1
    24    23    24    1
