@<TRIPOS>MOLECULE
1njj_GET_A_1.pdb
 34 36 0 0 0
SMALL
GASTEIGER

@<TRIPOS>ATOM
      1  C11       76.6540   85.3650  121.5890 C.3   601  GET601      0.2561
      2  O11       77.3340   84.0990  121.4000 O.3   601  GET601     -0.3277
      3  C21       76.3600   85.9900  120.2060 C.3   601  GET601      0.1807
      4  N21       77.6220   86.1750  119.4660 N.3   601  GET601     -0.1248
      5  C31       75.6440   87.3360  120.3650 C.3   601  GET601      0.2070
      6  O31       74.3610   87.1160  120.9630 O.3   601  GET601     -0.2186
      7  C41       76.4420   88.3170  121.2370 C.3   601  GET601      0.2132
      8  O41       77.5060   88.8350  120.4610 O.3   601  GET601     -0.2176
      9  C51       77.0310   87.6670  122.5360 C.3   601  GET601      0.1807
     10  O51       77.4600   86.2540  122.4280 O.3   601  GET601     -0.3265
     11  C61       76.0270   87.8530  123.7010 C.3   601  GET601      0.1817
     12  O61       76.4320   87.0270  124.8460 O.3   601  GET601     -0.2204
     13  C71       75.9890   89.3340  124.1430 C.3   601  GET601      0.0382
     14  C12       75.7750   80.0440  120.8100 C.3   601  GET601      0.1231
     15  N12       74.6740   79.0710  120.9310 N.3   601  GET601     -0.1302
     16  C22       76.1510   80.5580  122.2340 C.3   601  GET601      0.0432
     17  C32       77.0880   81.7900  122.1970 C.3   601  GET601      0.1231
     18  N32       77.3590   82.2350  123.5720 N.3   601  GET601     -0.1302
     19  C42       76.4500   82.9440  121.3810 C.3   601  GET601      0.1680
     20  C52       76.1880   82.4780  119.9110 C.3   601  GET601      0.2088
     21  O52       75.4840   83.4840  119.1890 O.3   601  GET601     -0.2178
     22  C62       75.3420   81.1800  119.8140 C.3   601  GET601      0.1680
     23  O62       75.4570   80.7000  118.4680 O.3   601  GET601     -0.3269
     24  C13       74.1600   80.5820  117.8770 C.3   601  GET601      0.2683
     25  C23       73.8880   79.1610  117.3140 C.3   601  GET601      0.2262
     26  O23       75.0330   78.7390  116.5670 O.3   601  GET601     -0.2161
     27  C33       72.6320   79.0880  116.3720 C.3   601  GET601      0.1384
     28  N33       71.5990   78.2740  117.0700 N.3   601  GET601     -0.2126
     29  C93       71.8590   76.8330  116.8420 C.3   601  GET601      0.1076
     30  C43       71.9670   80.4490  115.8590 C.3   601  GET601      0.1710
     31  O43       70.6630   80.5350  116.3930 O.3   601  GET601     -0.2215
     32  C83       71.8540   80.3780  114.3230 C.3   601  GET601      0.0371
     33  C53       72.7420   81.7670  116.2350 C.3   601  GET601      0.1765
     34  O53       74.0710   81.5320  116.7900 O.3   601  GET601     -0.3259
@<TRIPOS>BOND
     1    32    30    1
     2    30    33    1
     3    30    27    1
     4    30    31    1
     5    33    34    1
     6    27    28    1
     7    27    25    1
     8    26    25    1
     9    34    24    1
    10    29    28    1
    11    25    24    1
    12    24    23    1
    13    23    22    1
    14    21    20    1
    15     4     3    1
    16    22    20    1
    17    22    14    1
    18    20    19    1
    19     3     5    1
    20     3     1    1
    21     5     6    1
    22     5     7    1
    23     8     7    1
    24    14    15    1
    25    14    16    1
    26     7     9    1
    27    19     2    1
    28    19    17    1
    29     2     1    1
    30     1    10    1
    31    17    16    1
    32    17    18    1
    33    10     9    1
    34     9    11    1
    35    11    13    1
    36    11    12    1
