@<TRIPOS>MOLECULE
1njr_XYL_A_1.pdb
 10 9 0 0 0
SMALL
GASTEIGER

@<TRIPOS>ATOM
      1  C1        49.4850    1.5000   16.8020 C.3   285  XYL285      0.2175
      2  C2        48.3970    0.6580   17.4430 C.3   285  XYL285      0.2175
      3  C3        48.7650    0.3440   18.9090 C.3   285  XYL285      0.2175
      4  C4        47.9070   -0.7940   19.4940 C.3   285  XYL285      0.2175
      5  C5        48.3980   -1.3360   20.8390 C.3   285  XYL285      0.2175
      6  O1        49.1230    1.7210   15.5870 O.3   285  XYL285     -0.2175
      7  O2        47.2220    1.3770   17.4360 O.3   285  XYL285     -0.2175
      8  O3        48.6410    1.5000   19.7410 O.3   285  XYL285     -0.2175
      9  O4        46.5520   -0.4120   19.6950 O.3   285  XYL285     -0.2175
     10  O5        49.7280   -1.7900   20.9050 O.3   285  XYL285     -0.2175
@<TRIPOS>BOND
     1     6     1    1
     2     1     2    1
     3     7     2    1
     4     2     3    1
     5     3     4    1
     6     3     8    1
     7     4     9    1
     8     4     5    1
     9     5    10    1
