@<TRIPOS>MOLECULE
1njs_KEU_A_1.pdb
 38 39 0 0 0
SMALL
GASTEIGER

@<TRIPOS>ATOM
      1  O4        72.8400   19.0450   38.0060 O.co2 510  KEU510     -0.2457
      2  C21       74.1420   19.1610   37.8330 C.2   510  KEU510      0.3649
      3  O5        74.9970   18.3170   38.1130 O.co2 510  KEU510     -0.2457
      4  C20       74.4610   20.4780   37.2500 C.3   510  KEU510      0.1164
      5  C19       75.9560   20.7030   37.0350 C.3   510  KEU510      0.0451
      6  C17       76.2790   22.0330   36.4470 C.3   510  KEU510      0.1986
      7  N         75.5580   22.0070   35.1200 N.am  510  KEU510     -0.1918
      8  C         74.6150   22.9670   34.7900 C.2   510  KEU510      0.2652
      9  O         74.3110   23.8530   35.5570 O.2   510  KEU510     -0.2684
     10  C14       74.0250   22.9100   33.4760 C.ar  510  KEU510      0.0550
     11  C13       73.0940   24.0280   33.1320 C.ar  510  KEU510      0.0042
     12  C12       72.5060   24.0940   31.8190 C.ar  510  KEU510     -0.0039
     13  C11       72.8640   22.9760   30.8200 C.ar  510  KEU510     -0.0149
     14  C16       73.7620   21.8770   31.2140 C.ar  510  KEU510     -0.0039
     15  C15       74.3460   21.8270   32.5030 C.ar  510  KEU510      0.0042
     16  C10       72.3640   22.9160   29.2740 C.3   510  KEU510      0.1155
     17  C1        73.4310   22.2360   28.3980 C.3   510  KEU510      0.0123
     18  C2        74.4790   23.5450   28.1090 C.3   510  KEU510      0.0022
     19  C3        75.2560   23.5310   26.7410 C.3   510  KEU510      0.0265
     20  C4        76.5150   24.2100   27.1830 C.3   510  KEU510      0.1894
     21  C9        76.4070   25.5120   26.8780 C.1   510  KEU510      0.1990
     22  O1        75.4060   26.2830   26.2700 O.2   510  KEU510     -0.2129
     23  N3        77.5190   26.6430   27.1670 N.2   510  KEU510     -0.2539
     24  C8        78.6530   26.2130   27.7690 C.1   510  KEU510      0.2525
     25  N2        79.6460   27.0650   28.0610 N.pl3 510  KEU510     -0.0226
     26  N1        78.7960   24.9900   28.0380 N.2   510  KEU510     -0.3102
     27  C7        77.8090   23.9140   27.8210 C.2   510  KEU510      0.2263
     28  N8        78.1340   22.6330   28.2050 N.pl3 510  KEU510     -0.0958
     29  C5        70.9590   22.3460   28.8430 C.3   510  KEU510      0.4393
     30  OA2       70.4950   22.7470   27.8530 O.2   510  KEU510     -0.2657
     31  OA1       70.0730   23.1390   29.9110 O.2   510  KEU510     -0.2657
     32  C6        70.5640   20.9330   29.3290 C.3   510  KEU510      0.4774
     33  F2        70.6650   20.6050   30.6730 F     510  KEU510     -0.1634
     34  F1        71.5150   20.2140   28.7430 F     510  KEU510     -0.1634
     35  F         69.3330   20.6340   28.8810 F     510  KEU510     -0.1634
     36  C18       77.8240   22.3670   36.2490 C.2   510  KEU510      0.3842
     37  O3        78.4540   22.7900   37.2050 O.co2 510  KEU510     -0.2437
     38  O2        78.4420   22.1830   35.0300 O.co2 510  KEU510     -0.2437
@<TRIPOS>BOND
     1    22    21    2
     2    19    20    1
     3    19    18    1
     4    21    23    2
     5    21    20    1
     6    23    24    2
     7    20    27    1
     8    24    26    2
     9    24    25    1
    10    27    26    2
    11    27    28    1
    12    30    29    1
    13    18    17    1
    14    17    16    1
    15    34    32    1
    16    29    16    1
    17    29    32    1
    18    29    31    1
    19    35    32    1
    20    16    13    1
    21    32    33    1
    22    13    14   ar
    23    13    12   ar
    24    14    15   ar
    25    12    11   ar
    26    15    10   ar
    27    11    10   ar
    28    10     8    1
    29     8     7   am
    30     8     9    2
    31    38    36   ar
    32     7     6    1
    33    36     6    1
    34    36    37   ar
    35     6     5    1
    36     5     4    1
    37     4     2    1
    38     2     1   ar
    39     2     3   ar
