@<TRIPOS>MOLECULE
1njt_III_E_1.pdb
 39 38 0 0 0
SMALL
GASTEIGER

@<TRIPOS>ATOM
      1  C         50.9190   71.9880   19.1320 C.2   260  ACE260      0.2423
      2  O         51.5140   70.9900   19.5470 O.2   260  ACE260     -0.2733
      3  CH3       51.2530   73.3940   19.6890 C.3   260  ACE260      0.0964
      4  N         49.9740   71.9280   18.2000 N.am  261  VAL261     -0.1978
      5  CA        49.5760   70.6600   17.6020 C.3   261  VAL261      0.1726
      6  C         49.3470   70.7950   16.1000 C.2   261  VAL261      0.2616
      7  O         48.8880   71.8320   15.6190 O.2   261  VAL261     -0.2715
      8  CB        48.2860   70.1280   18.2570 C.3   261  VAL261      0.0290
      9  CG1       47.8600   68.8310   17.5970 C.3   261  VAL261      0.0023
     10  CG2       48.5250   69.9020   19.7440 C.3   261  VAL261      0.0023
     11  N         49.6870   69.7470   15.3600 N.am  262  ASP262     -0.1958
     12  CA        49.4880   69.7500   13.9170 C.3   262  ASP262      0.1828
     13  CB        50.8290   69.5930   13.1890 C.3   262  ASP262      0.1205
     14  CG1       51.5620   70.9630   13.1760 C.2   262  ASP262      0.3659
     15  CG2       51.7110   68.5430   13.9140 C.3   262  ASP262      0.0135
     16  CG3       50.5890   69.1480   11.7230 C.3   262  ASP262      0.0135
     17  OD1       51.7770   71.6180   12.1520 O.co2 262  ASP262     -0.2456
     18  OD2       51.9500   71.5770   14.1750 O.co2 262  ASP262     -0.2456
     19  C         48.5240   68.6220   13.5510 C.2   262  ASP262      0.2622
     20  O         48.7010   67.4660   13.9620 O.2   262  ASP262     -0.2715
     21  N         47.4910   68.9780   12.7960 N.am  263  ASN263     -0.1958
     22  CA        46.4850   68.0170   12.3750 C.3   263  ASN263      0.1818
     23  CB        45.0890   68.5620   12.6740 C.3   263  ASN263      0.1163
     24  CG        44.8400   68.7470   14.1680 C.2   263  ASN263      0.2280
     25  OD1       45.5280   68.1480   14.9980 O.2   263  ASN263     -0.2748
     26  ND2       43.8460   69.5710   14.5150 N.am  263  ASN263     -0.2760
     27  CE1       43.0640   70.2920   13.5420 C.3   263  ASN263      0.1149
     28  CE2       43.4970   69.7540   15.9020 C.3   263  ASN263      0.1149
     29  C         46.6060   67.7000   10.8890 C.2   263  ASN263      0.2618
     30  O         46.6000   68.6050   10.0520 O.2   263  ASN263     -0.2715
     31  N         46.7160   66.4120   10.5650 N.am  264  ALA264     -0.2028
     32  CA        46.8340   65.9830    9.1730 C.3   264  ALA264      0.1343
     33  C         45.5320   65.3090    8.6740 C.3   264  ALA264      0.2656
     34  O         45.8470   64.4900    7.5970 O.3   264  ALA264     -0.2121
     35  CB        47.9920   65.0300    9.0210 C.3   264  ALA264      0.0264
     36  C1        44.5000   66.3860    8.2210 C.3   265  CFT265      0.4269
     37  FB1       45.0190   67.3160    7.4550 F     265  CFT265     -0.1673
     38  FB2       43.4870   65.8560    7.5650 F     265  CFT265     -0.1673
     39  FB3       44.0040   67.0090    9.2450 F     265  CFT265     -0.1673
@<TRIPOS>BOND
     1    37    36    1
     2    38    36    1
     3    34    33    1
     4    36    33    1
     5    36    39    1
     6    33    32    1
     7    35    32    1
     8    32    31    1
     9    30    29    2
    10    31    29   am
    11    29    22    1
    12    16    13    1
    13    17    14   ar
    14    22    23    1
    15    22    21    1
    16    23    24    1
    17    21    19   am
    18    14    13    1
    19    14    18   ar
    20    13    15    1
    21    13    12    1
    22    27    26    1
    23    19    12    1
    24    19    20    2
    25    12    11    1
    26    24    26   am
    27    24    25    2
    28    26    28    1
    29    11     6   am
    30     7     6    2
    31     6     5    1
    32     9     8    1
    33     5     4    1
    34     5     8    1
    35     4     1   am
    36     8    10    1
    37     1     2    2
    38     1     3    1
