@<TRIPOS>MOLECULE
1njy_TTP_A_1.pdb
 13 12 0 0 0
SMALL
GASTEIGER

@<TRIPOS>ATOM
      1  PA        13.9530   50.3860   40.2640 P.3    20  TTP20       0.5373
      2  O1A       15.3050   50.9350   40.5060 O.3    20  TTP20      -0.1143
      3  O2A       12.9290   51.3120   39.6920 O.3    20  TTP20      -0.1143
      4  O3A       13.3700   49.8150   41.6430 O.3    20  TTP20      -0.2257
      5  PB        11.9930   50.0220   42.4720 P.3    20  TTP20       0.2317
      6  O1B       12.0810   49.1940   43.6790 O.3    20  TTP20      -0.4368
      7  O2B       10.8010   49.8230   41.6030 O.2    20  TTP20      -0.5167
      8  O3B       11.9900   51.5640   43.0170 O.3    20  TTP20      -0.2257
      9  PG        13.0640   52.4870   43.8230 P.3    20  TTP20       0.5373
     10  O1G       14.2690   52.6490   42.9780 O.2    20  TTP20      -0.2221
     11  O2G       12.4030   53.6930   44.3830 O.3    20  TTP20      -0.1143
     12  O3G       13.4050   51.4880   45.0240 O.3    20  TTP20      -0.1143
     13  O5'       14.0870   49.0700   39.3810 O.2    20  TTP20      -0.2221
@<TRIPOS>BOND
     1    13     1    2
     2     3     1    1
     3     1     2    1
     4     1     4    1
     5     7     5    2
     6     4     5    1
     7     5     8    1
     8     5     6    1
     9    10     9    2
    10     8     9    1
    11     9    11    1
    12     9    12    1
