@<TRIPOS>MOLECULE
1nke_DCP_A_1.pdb
 28 29 0 0 0
SMALL
GASTEIGER

@<TRIPOS>ATOM
      1  N1        -7.7340   35.4620   23.2480 N.am    2  DCP2       -0.1802
      2  C2        -7.2360   34.6350   22.2140 C.1     2  DCP2        0.2756
      3  N3        -8.1410   33.9220   21.4040 N.2     2  DCP2       -0.3024
      4  C4        -9.5330   34.0300   21.6210 C.2     2  DCP2        0.2346
      5  C5       -10.0280   34.8490   22.6430 C.2     2  DCP2        0.0687
      6  C6        -9.1350   35.5630   23.4530 C.2     2  DCP2        0.0835
      7  O2        -6.0270   34.5330   22.0260 O.2     2  DCP2       -0.1925
      8  N4       -10.3760   33.3420   20.8550 N.pl3   2  DCP2       -0.0921
      9  C1'       -6.7790   36.2040   24.1300 C.3     2  DCP2        0.2090
     10  C2'       -6.3010   37.4720   23.4080 C.3     2  DCP2        0.0874
     11  C3'       -7.3710   38.4660   23.7540 C.3     2  DCP2        0.1857
     12  C4'       -7.6500   38.1530   25.2090 C.3     2  DCP2        0.1773
     13  O4'       -7.5120   36.6990   25.3180 O.3     2  DCP2       -0.3339
     14  O3'       -6.8480   39.7920   23.6400 O.3     2  DCP2       -0.2203
     15  C5'       -9.0070   38.6710   25.6920 C.3     2  DCP2        0.1812
     16  O5'      -10.0790   38.0470   24.9760 O.3     2  DCP2       -0.3112
     17  PA       -11.6010   38.5240   25.2050 P.3     2  DCP2        0.2189
     18  O1A      -12.5080   37.3880   24.9200 O.2     2  DCP2       -0.5170
     19  O2A      -11.7190   39.1970   26.5230 O.3     2  DCP2       -0.4371
     20  O3A      -11.7970   39.6410   24.0360 O.3     2  DCP2       -0.2700
     21  PB       -11.3370   41.2020   24.2020 P.3     2  DCP2        0.2277
     22  O1B      -10.4290   41.2660   23.0270 O.2     2  DCP2       -0.5168
     23  O2B      -10.8950   41.1620   25.6060 O.3     2  DCP2       -0.4368
     24  O3B      -12.8440   41.7370   23.8920 O.3     2  DCP2       -0.2258
     25  PG       -13.8750   42.0980   25.0920 P.3     2  DCP2        0.5373
     26  O1G      -15.2620   41.8640   24.6260 O.2     2  DCP2       -0.2221
     27  O2G      -13.4320   41.4370   26.3460 O.3     2  DCP2       -0.1143
     28  O3G      -13.6590   43.6850   25.2790 O.3     2  DCP2       -0.1143
@<TRIPOS>BOND
     1     8     4    1
     2     3     4    2
     3     3     2    2
     4     4     5    1
     5     7     2    2
     6     2     1   am
     7     5     6    2
     8    22    21    2
     9     1     6    1
    10     1     9    1
    11    10    11    1
    12    10     9    1
    13    14    11    1
    14    11    12    1
    15    24    21    1
    16    24    25    1
    17    20    21    1
    18    20    17    1
    19     9    13    1
    20    21    23    1
    21    26    25    2
    22    18    17    2
    23    16    17    1
    24    16    15    1
    25    25    28    1
    26    25    27    1
    27    17    19    1
    28    12    13    1
    29    12    15    1
