@<TRIPOS>MOLECULE
1nkh_UDP_B_1.pdb
 25 26 0 0 0
SMALL
GASTEIGER

@<TRIPOS>ATOM
      1  N1       -11.5890   17.6720  -17.0580 N.am  809  UDP809     -0.1766
      2  C2       -11.2750   17.0840  -15.8300 C.1   809  UDP809      0.2845
      3  N3       -11.0660   15.7080  -15.8730 N.2   809  UDP809     -0.2452
      4  C4       -11.1510   14.8780  -17.0190 C.1   809  UDP809      0.2182
      5  C5       -11.4730   15.5640  -18.2280 C.2   809  UDP809      0.1242
      6  C6       -11.6750   16.8660  -18.2240 C.2   809  UDP809      0.0929
      7  O2       -11.2110   17.8020  -14.8500 O.2   809  UDP809     -0.1918
      8  O4       -10.9570   13.6740  -16.9390 O.2   809  UDP809     -0.2085
      9  C1'      -11.8270   19.1790  -17.0370 C.3   809  UDP809      0.2401
     10  C2'      -10.6590   20.1270  -16.8770 C.3   809  UDP809      0.2319
     11  O2'      -11.0200   21.3790  -16.2480 O.3   809  UDP809     -0.2157
     12  C3'      -10.2710   20.2820  -18.2860 C.3   809  UDP809      0.2158
     13  C4'      -11.6130   20.4920  -18.9760 C.3   809  UDP809      0.1799
     14  O4'      -12.3740   19.4570  -18.3080 O.3   809  UDP809     -0.3320
     15  O3'       -9.3850   21.3740  -18.5300 O.3   809  UDP809     -0.2175
     16  C5'      -11.4610   20.3150  -20.4400 C.3   809  UDP809      0.1813
     17  O5'      -10.9580   19.0570  -20.8640 O.3   809  UDP809     -0.3111
     18  PA        -9.6240   18.9370  -21.7030 P.3   809  UDP809      0.2231
     19  O1A       -8.4830   19.3550  -20.8560 O.3   809  UDP809     -0.4370
     20  O2A       -9.4380   17.6570  -22.4030 O.2   809  UDP809     -0.5169
     21  O3A       -9.8990   20.1160  -22.8350 O.3   809  UDP809     -0.2261
     22  PB        -9.0600   20.4790  -24.1180 P.3   809  UDP809      0.5373
     23  O1B       -9.5130   22.0100  -24.2820 O.3   809  UDP809     -0.1143
     24  O2B       -7.6310   20.4100  -23.7030 O.3   809  UDP809     -0.1143
     25  O3B       -9.1970   19.4280  -25.1460 O.2   809  UDP809     -0.2221
@<TRIPOS>BOND
     1    25    22    2
     2    23    22    1
     3    22    24    1
     4    22    21    1
     5    21    18    1
     6    20    18    2
     7    18    17    1
     8    18    19    1
     9    17    16    1
    10    16    13    1
    11    13    14    1
    12    13    12    1
    13    15    12    1
    14    14     9    1
    15    12    10    1
    16     5     6    2
    17     5     4    1
    18     6     1    1
    19     1     9    1
    20     1     2   am
    21     9    10    1
    22     4     8    2
    23     4     3    2
    24    10    11    1
    25     3     2    2
    26     2     7    2
