@<TRIPOS>MOLECULE
1nkk_III_E_1.pdb
 39 38 0 0 0
SMALL
GASTEIGER

@<TRIPOS>ATOM
      1  C          2.6870   35.4570   19.4070 C.2   260  ACE260      0.2423
      2  O          1.8950   36.3710   19.6730 O.2   260  ACE260     -0.2733
      3  CH3        2.4350   34.0750   20.0620 C.3   260  ACE260      0.0964
      4  N          3.7270   35.5980   18.5850 N.am  261  VAL261     -0.1978
      5  CA         4.0490   36.8670   17.9310 C.3   261  VAL261      0.1726
      6  C          4.2350   36.7090   16.4160 C.2   261  VAL261      0.2616
      7  O          4.6050   35.6360   15.9400 O.2   261  VAL261     -0.2715
      8  CB         5.3380   37.4680   18.5470 C.3   261  VAL261      0.0290
      9  CG1        5.7630   38.7180   17.7940 C.3   261  VAL261      0.0023
     10  CG2        5.0960   37.7930   20.0130 C.3   261  VAL261      0.0023
     11  N          3.9540   37.7710   15.6620 N.am  262  ASP262     -0.1958
     12  CA         4.1280   37.7400   14.2080 C.3   262  ASP262      0.1828
     13  CB         2.7930   37.9200   13.4690 C.3   262  ASP262      0.1205
     14  CG1        1.8400   36.7020   13.6420 C.2   262  ASP262      0.3659
     15  CG2        2.0890   39.2020   13.9910 C.3   262  ASP262      0.0135
     16  CG3        3.0790   38.0820   11.9440 C.3   262  ASP262      0.0135
     17  OD1        2.1550   35.5300   13.4030 O.co2 262  ASP262     -0.2456
     18  OD2        0.6550   36.7730   13.9910 O.co2 262  ASP262     -0.2456
     19  C          5.1030   38.8520   13.8040 C.2   262  ASP262      0.2622
     20  O          4.9880   39.9950   14.2610 O.2   262  ASP262     -0.2715
     21  N          6.0660   38.5050   12.9520 N.am  263  ASN263     -0.1958
     22  CA         7.0740   39.4640   12.5060 C.3   263  ASN263      0.1818
     23  CB         8.4860   38.9470   12.8320 C.3   263  ASN263      0.1163
     24  CG         8.7520   38.8430   14.3320 C.2   263  ASN263      0.2280
     25  OD1        7.9960   39.3820   15.1470 O.2   263  ASN263     -0.2748
     26  ND2        9.8410   38.1510   14.7010 N.am  263  ASN263     -0.2760
     27  CE1       10.7530   37.4840   13.7730 C.3   263  ASN263      0.1149
     28  CE2       10.2050   38.0250   16.0940 C.3   263  ASN263      0.1149
     29  C          7.0060   39.8000   11.0160 C.2   263  ASN263      0.2618
     30  O          7.0490   38.9070   10.1610 O.2   263  ASN263     -0.2715
     31  N          6.9270   41.0980   10.7200 N.am  264  ALA264     -0.2028
     32  CA         6.8590   41.5970    9.3450 C.3   264  ALA264      0.1343
     33  C          8.2050   42.2790    8.9100 C.3   264  ALA264      0.2656
     34  O          7.9170   43.1950    7.9130 O.3   264  ALA264     -0.2121
     35  CB         5.7020   42.5900    9.2140 C.3   264  ALA264      0.0264
     36  C1         9.2350   41.2420    8.3810 C.3   265  CFT265      0.4269
     37  FB1        8.7370   40.6730    7.3150 F     265  CFT265     -0.1673
     38  FB2       10.3650   41.7870    7.9910 F     265  CFT265     -0.1673
     39  FB3        9.5430   40.2920    9.2300 F     265  CFT265     -0.1673
@<TRIPOS>BOND
     1    37    36    1
     2    34    33    1
     3    38    36    1
     4    36    33    1
     5    36    39    1
     6    33    32    1
     7    35    32    1
     8    32    31    1
     9    30    29    2
    10    31    29   am
    11    29    22    1
    12    16    13    1
    13    22    23    1
    14    22    21    1
    15    23    24    1
    16    21    19   am
    17    17    14   ar
    18    13    14    1
    19    13    15    1
    20    13    12    1
    21    14    18   ar
    22    27    26    1
    23    19    12    1
    24    19    20    2
    25    12    11    1
    26    24    26   am
    27    24    25    2
    28    26    28    1
    29    11     6   am
    30     7     6    2
    31     6     5    1
    32     9     8    1
    33     5     8    1
    34     5     4    1
    35     8    10    1
    36     4     1   am
    37     1     2    2
    38     1     3    1
