@<TRIPOS>MOLECULE
1nks_AMP_C_1.pdb
 23 25 0 0 0
SMALL
GASTEIGER

@<TRIPOS>ATOM
      1  P         44.3180   19.2620  137.6140 P.3   195  AMP195      0.5327
      2  O1P       42.8710   19.3240  137.5920 O.3   195  AMP195     -0.1145
      3  O2P       45.1980   19.3950  136.4610 O.2   195  AMP195     -0.2224
      4  O3P       44.9120   17.8580  138.1660 O.3   195  AMP195     -0.1145
      5  O5'       44.7820   20.2330  138.6830 O.3   195  AMP195     -0.2675
      6  C5'       44.1560   20.1740  140.0560 C.3   195  AMP195      0.1860
      7  C4'       43.7780   21.4510  140.7160 C.3   195  AMP195      0.1823
      8  O4'       44.9170   22.3000  140.9340 O.3   195  AMP195     -0.3135
      9  C3'       42.7230   22.3250  140.0380 C.3   195  AMP195      0.2184
     10  O3'       41.3960   21.9090  140.0160 O.3   195  AMP195     -0.2174
     11  C2'       42.9070   23.6470  140.6360 C.3   195  AMP195      0.2570
     12  O2'       42.3650   23.6840  141.9200 O.3   195  AMP195     -0.2130
     13  C1'       44.4360   23.6120  140.7060 C.3   195  AMP195      0.3186
     14  N9        45.1790   24.3290  139.6630 N.pl3 195  AMP195     -0.1439
     15  C8        45.8260   23.7430  138.6100 C.3   195  AMP195      0.3377
     16  N7        46.4930   24.5970  137.9060 N.2   195  AMP195     -0.2095
     17  C5        46.2680   25.8420  138.4700 C.2   195  AMP195      0.2526
     18  C6        46.6840   27.1500  138.1580 C.2   195  AMP195      0.4393
     19  N6        47.4850   27.4670  137.1040 N.pl3 195  AMP195      0.2180
     20  N1        46.2680   28.1120  139.0000 N.2   195  AMP195      0.0021
     21  C2        45.4920   27.8110  140.0150 C.3   195  AMP195      0.5254
     22  N3        45.0030   26.6480  140.4160 N.2   195  AMP195     -0.0055
     23  C4        45.4310   25.6490  139.6050 C.2   195  AMP195      0.3518
@<TRIPOS>BOND
     1     3     1    2
     2    19    18    1
     3     2     1    1
     4     1     4    1
     5     1     5    1
     6    16    17    2
     7    16    15    1
     8    18    17    1
     9    18    20    2
    10    17    23    1
    11    15    14    1
    12     5     6    1
    13    20    21    1
    14    23    14    1
    15    23    22    2
    16    14    13    1
    17    21    22    1
    18    10     9    1
    19     9    11    1
    20     9     7    1
    21     6     7    1
    22    11    13    1
    23    11    12    1
    24    13     8    1
    25     7     8    1
