@<TRIPOS>MOLECULE
1nks_ADP_F_1.pdb
 27 29 0 0 0
SMALL
GASTEIGER

@<TRIPOS>ATOM
      1  PB        13.4820   63.4500   65.3100 P.3   196  ADP196      0.5373
      2  O1B       13.7680   63.0520   66.7320 O.3   196  ADP196     -0.1143
      3  O2B       14.6200   64.4140   64.6640 O.2   196  ADP196     -0.2221
      4  O3B       12.1500   64.0600   65.1570 O.3   196  ADP196     -0.1143
      5  PA        13.6020   61.7270   63.0000 P.3   196  ADP196      0.2231
      6  O1A       13.5210   62.9210   62.1590 O.2   196  ADP196     -0.5169
      7  O2A       12.3670   60.9180   62.8630 O.3   196  ADP196     -0.4370
      8  O3A       13.6630   62.1590   64.4950 O.3   196  ADP196     -0.2261
      9  O5'       14.8980   60.8480   62.8020 O.3   196  ADP196     -0.3111
     10  C5'       16.1140   61.2630   62.2030 C.3   196  ADP196      0.1813
     11  C4'       16.8450   60.0550   61.6340 C.3   196  ADP196      0.1821
     12  O4'       16.7680   58.9700   62.5770 O.3   196  ADP196     -0.3135
     13  C3'       16.2620   59.5320   60.3160 C.3   196  ADP196      0.2184
     14  O3'       17.2880   59.3130   59.3360 O.3   196  ADP196     -0.2174
     15  C2'       15.6230   58.2110   60.6700 C.3   196  ADP196      0.2570
     16  O2'       15.5930   57.2640   59.5950 O.3   196  ADP196     -0.2130
     17  C1'       16.4930   57.7720   61.8370 C.3   196  ADP196      0.3186
     18  N9        15.8380   56.7320   62.6750 N.pl3 196  ADP196     -0.1439
     19  C8        14.8060   56.9560   63.4870 C.3   196  ADP196      0.3377
     20  N7        14.5920   55.8620   64.2010 N.2   196  ADP196     -0.2095
     21  C5        15.4610   54.9390   63.8660 C.2   196  ADP196      0.2526
     22  C6        15.7130   53.6430   64.2620 C.2   196  ADP196      0.4393
     23  N6        14.9630   53.0700   65.2090 N.pl3 196  ADP196      0.2180
     24  N1        16.7230   52.9600   63.6880 N.2   196  ADP196      0.0021
     25  C2        17.4850   53.5090   62.7350 C.3   196  ADP196      0.5254
     26  N3        17.2520   54.7560   62.3450 N.2   196  ADP196     -0.0055
     27  C4        16.2680   55.4960   62.8740 C.2   196  ADP196      0.3518
@<TRIPOS>BOND
     1    14    13    1
     2    16    15    1
     3    13    15    1
     4    13    11    1
     5    15    17    1
     6    11    10    1
     7    11    12    1
     8    17    12    1
     9    17    18    1
    10     6     5    2
    11    10     9    1
    12    26    25    1
    13    26    27    2
    14    18    27    1
    15    18    19    1
    16    25    24    1
    17     9     5    1
    18     7     5    1
    19    27    21    1
    20     5     8    1
    21    19    20    1
    22    24    22    2
    23    21    20    2
    24    21    22    1
    25    22    23    1
    26     8     1    1
    27     3     1    2
    28     4     1    1
    29     1     2    1
