@<TRIPOS>MOLECULE
1nkt_ADP_A_1.pdb
 27 29 0 0 0
SMALL
GASTEIGER

@<TRIPOS>ATOM
      1  PB        83.0230   98.7190  202.2340 P.3   900  ADP900      0.5373
      2  O1B       81.9040   99.7360  202.3740 O.3   900  ADP900     -0.1143
      3  O2B       82.5950   97.3090  202.7990 O.3   900  ADP900     -0.1143
      4  O3B       83.6660   98.6850  200.7410 O.2   900  ADP900     -0.2221
      5  PA        84.6810   98.8720  204.5940 P.3   900  ADP900      0.2231
      6  O1A       85.3560   97.6090  204.2010 O.2   900  ADP900     -0.5169
      7  O2A       83.8090   98.7750  205.8540 O.3   900  ADP900     -0.4370
      8  O3A       83.9720   99.5090  203.2930 O.3   900  ADP900     -0.2261
      9  O5'       85.7320  100.0640  204.9030 O.3   900  ADP900     -0.3111
     10  C5'       86.5410  100.6780  203.9150 C.3   900  ADP900      0.1813
     11  C4'       87.6460  101.4680  204.6230 C.3   900  ADP900      0.1821
     12  O4'       87.2050  102.7060  205.1520 O.3   900  ADP900     -0.3135
     13  C3'       88.1880  100.6660  205.7930 C.3   900  ADP900      0.2184
     14  O3'       89.6020  100.6810  205.7330 O.3   900  ADP900     -0.2174
     15  C2'       87.6820  101.3960  207.0130 C.3   900  ADP900      0.2570
     16  O2'       88.6450  101.3560  208.0220 O.3   900  ADP900     -0.2130
     17  C1'       87.4820  102.8160  206.5320 C.3   900  ADP900      0.3186
     18  N9        86.3900  103.5180  207.2530 N.pl3 900  ADP900     -0.1439
     19  C8        85.0830  103.1030  207.4500 C.3   900  ADP900      0.3377
     20  N7        84.4130  104.0500  208.1680 N.2   900  ADP900     -0.2095
     21  C5        85.2680  105.0680  208.4340 C.2   900  ADP900      0.2526
     22  C6        85.1410  106.2840  209.1250 C.2   900  ADP900      0.4393
     23  N6        83.9370  106.7730  209.3840 N.pl3 900  ADP900      0.2180
     24  N1        86.2420  107.1340  209.2470 N.2   900  ADP900      0.0021
     25  C2        87.4640  106.8030  208.6880 C.3   900  ADP900      0.5254
     26  N3        87.5770  105.5980  208.0170 N.2   900  ADP900     -0.0055
     27  C4        86.5160  104.7410  207.8780 C.2   900  ADP900      0.3518
@<TRIPOS>BOND
     1     4     1    2
     2     1     2    1
     3     1     3    1
     4     1     8    1
     5     8     5    1
     6    10    11    1
     7    10     9    1
     8     6     5    2
     9     5     9    1
    10     5     7    1
    11    11    12    1
    12    11    13    1
    13    12    17    1
    14    14    13    1
    15    13    15    1
    16    17    15    1
    17    17    18    1
    18    15    16    1
    19    18    19    1
    20    18    27    1
    21    19    20    1
    22    27    26    2
    23    27    21    1
    24    26    25    1
    25    20    21    2
    26    21    22    1
    27    25    24    1
    28    22    24    2
    29    22    23    1
