@<TRIPOS>MOLECULE
1nkx_MAN_A_1.pdb
 11 11 0 0 0
SMALL
GASTEIGER

@<TRIPOS>ATOM
      1  C1        -0.2280    1.3770   37.4360 C.3     9  MAN9        0.1777
      2  C2         0.5900    0.4410   36.5310 C.3     9  MAN9        0.2141
      3  C3         0.8330   -0.9340   37.2170 C.3     9  MAN9        0.2173
      4  C4        -0.2860   -1.3100   38.1900 C.3     9  MAN9        0.2142
      5  C5        -0.4830   -0.2120   39.2500 C.3     9  MAN9        0.1810
      6  C6         0.2640   -0.5650   40.5170 C.3     9  MAN9        0.2141
      7  O2         1.8290    1.0590   36.2200 O.3     9  MAN9       -0.2176
      8  O3         2.0780   -0.9580   37.8950 O.3     9  MAN9       -0.2175
      9  O4        -1.4910   -1.6120   37.4400 O.3     9  MAN9       -0.2176
     10  O5         0.0490    1.0630   38.8120 O.3     9  MAN9       -0.3481
     11  O6         1.0210    0.5360   41.0060 O.3     9  MAN9       -0.2176
@<TRIPOS>BOND
     1     7     2    1
     2     2     3    1
     3     2     1    1
     4     3     8    1
     5     3     4    1
     6     1    10    1
     7     9     4    1
     8     4     5    1
     9    10     5    1
    10     5     6    1
    11     6    11    1
