@<TRIPOS>MOLECULE
1nl2_LPS_A_1.pdb
 32 31 0 0 0
SMALL
GASTEIGER

@<TRIPOS>ATOM
      1  OT2        4.2040   32.5770  130.9300 O.co2 451  LPS451     -0.2440
      2  C          4.5040   31.5720  131.6220 C.2   451  LPS451      0.3844
      3  OT1        5.6760   31.2870  131.9970 O.co2 451  LPS451     -0.2440
      4  C12        3.2970   30.6900  132.0100 C.3   451  LPS451      0.2241
      5  N          3.7270   29.3870  132.6060 N.3   451  LPS451     -0.1181
      6  C11        2.2190   31.3840  132.9050 C.3   451  LPS451      0.1796
      7  O12        2.0720   32.8260  132.7220 O.3   451  LPS451     -0.3119
      8  P          2.6500   34.0710  133.6210 P.3   451  LPS451      0.2141
      9  O13        3.7810   33.6040  134.4620 O.3   451  LPS451     -0.4373
     10  O14        2.8970   35.2290  132.7450 O.2   451  LPS451     -0.5172
     11  O11        1.3800   34.4240  134.5440 O.3   451  LPS451     -0.3112
     12  C1         0.8930   33.9030  135.7810 C.3   451  LPS451      0.1857
     13  C2        -0.5660   34.3450  135.9830 C.3   451  LPS451      0.2252
     14  O21       -0.6280   35.6000  136.6510 O.3   451  LPS451     -0.2164
     15  C3        -1.4450   33.3380  136.7230 C.3   451  LPS451      0.2437
     16  O31       -1.8900   32.3390  135.8030 O.3   451  LPS451     -0.4456
     17  C31       -3.1200   31.8400  135.9870 C.2   451  LPS451      0.3171
     18  O32       -4.1180   32.5040  136.2040 O.2   451  LPS451     -0.2501
     19  C32       -3.0710   30.2740  135.8160 C.3   451  LPS451      0.1096
     20  C33       -2.6060   29.3540  136.9810 C.3   451  LPS451      0.0116
     21  C34       -3.0890   27.8850  136.7990 C.3   451  LPS451      0.0006
     22  C35       -2.7140   26.8740  137.9030 C.3   451  LPS451      0.0000
     23  C36       -3.4910   26.9990  139.2270 C.3   451  LPS451      0.0000
     24  C37       -4.6010   25.9560  139.4110 C.3   451  LPS451      0.0000
     25  C38       -5.8380   26.5090  140.1470 C.3   451  LPS451      0.0000
     26  C39       -7.2050   26.3690  139.4190 C.3   451  LPS451      0.0000
     27  C40       -7.4650   27.2210  138.1410 C.3   451  LPS451      0.0000
     28  C41       -7.6830   28.7430  138.3160 C.3   451  LPS451      0.0000
     29  C42       -6.6070   29.6100  137.6590 C.3   451  LPS451      0.0000
     30  C43       -6.5150   31.0500  138.1230 C.3   451  LPS451      0.0000
     31  C44       -5.5070   31.2720  139.1940 C.3   451  LPS451      0.0000
     32  C45       -5.1730   32.7320  139.4130 C.3   451  LPS451      0.0000
@<TRIPOS>BOND
     1     1     2   ar
     2     2     3   ar
     3     2     4    1
     4     4     5    1
     5     4     6    1
     6     7     6    1
     7     7     8    1
     8    10     8    2
     9     8     9    1
    10     8    11    1
    11    11    12    1
    12    12    13    1
    13    16    17    1
    14    16    15    1
    15    19    17    1
    16    19    20    1
    17    13    14    1
    18    13    15    1
    19    17    18    2
    20    21    20    1
    21    21    22    1
    22    29    30    1
    23    29    28    1
    24    22    23    1
    25    30    31    1
    26    27    28    1
    27    27    26    1
    28    31    32    1
    29    23    24    1
    30    24    25    1
    31    26    25    1
