@<TRIPOS>MOLECULE
1nl4_HFP_B_1.pdb
 20 19 0 0 0
SMALL
GASTEIGER

@<TRIPOS>ATOM
      1  P         51.1760   41.3100   -0.2920 P.3   501  HFP501      0.1516
      2  O1P       49.7750   40.8630   -0.1960 O.3   501  HFP501     -0.3553
      3  O2P       52.1080   40.1670   -0.8290 O.3   501  HFP501     -0.3553
      4  O3P       51.3100   42.5310   -1.2370 O.2   501  HFP501     -0.4573
      5  C1        51.7660   41.8050    1.4480 C.3   501  HFP501      0.2242
      6  O1        50.6290   42.2890    2.1880 O.3   501  HFP501     -0.2104
      7  C2        52.8520   42.9430    1.4620 C.2   501  HFP501      0.0051
      8  C3        53.7810   43.2030    2.5040 C.2   501  HFP501     -0.0450
      9  C4        53.8290   42.3600    3.7820 C.3   501  HFP501      0.0261
     10  C5        54.8120   44.3570    2.4020 C.3   501  HFP501      0.0264
     11  C6        55.4650   44.4770    0.9820 C.3   501  HFP501      0.0297
     12  C7        56.8340   45.1650    0.9990 C.2   501  HFP501     -0.0342
     13  C8        57.2920   45.9020   -0.0430 C.2   501  HFP501     -0.0478
     14  C9        56.4320   46.0790   -1.2950 C.3   501  HFP501      0.0260
     15  C10       58.6680   46.5530    0.0130 C.3   501  HFP501      0.0263
     16  C11       58.6870   47.7800    0.8870 C.3   501  HFP501      0.0297
     17  C12       60.0950   48.3630    0.8940 C.2   501  HFP501     -0.0342
     18  C13       60.4380   49.4840    1.5750 C.2   501  HFP501     -0.0478
     19  C14       59.4370   50.2740    2.3930 C.3   501  HFP501      0.0260
     20  C15       61.8490   50.0080    1.5200 C.3   501  HFP501      0.0260
@<TRIPOS>BOND
     1    14    13    1
     2     4     1    2
     3     3     1    1
     4     1     2    1
     5     1     5    1
     6    13    15    1
     7    13    12    2
     8    15    16    1
     9    16    17    1
    10    17    18    2
    11    11    12    1
    12    11    10    1
    13     5     7    1
    14     5     6    1
    15     7     8    2
    16    20    18    1
    17    18    19    1
    18    10     8    1
    19     8     9    1
