@<TRIPOS>MOLECULE
1nl4_FTL_B_1.pdb
 35 39 0 0 0
SMALL
GASTEIGER

@<TRIPOS>ATOM
      1  C8        49.6320   49.5050   -2.5050 C.3     1  FTL1        0.1180
      2  N2        49.6550   48.2880   -1.6520 N.pl3   1  FTL1       -0.2983
      3  C40       50.6980   48.0230   -0.7740 C.ar    1  FTL1        0.0484
      4  C43       50.7690   46.8010   -0.0580 C.ar    1  FTL1        0.0152
      5  C44       51.8680   46.5220    0.7790 C.ar    1  FTL1        0.0115
      6  C45       52.9020   47.4740    0.9090 C.ar    1  FTL1        0.0685
      7  C46       52.8510   48.6900    0.2130 C.ar    1  FTL1        0.0109
      8  C47       51.7450   48.9560   -0.6250 C.ar    1  FTL1        0.0152
      9  C51       53.9080   49.7510    0.3000 C.ar    1  FTL1        0.0007
     10  C52       53.6170   51.0630    0.7680 C.ar    1  FTL1        0.0000
     11  C53       54.6710   52.0690    0.7680 C.ar    1  FTL1        0.0000
     12  C54       55.9610   51.7330    0.3140 C.ar    1  FTL1        0.0000
     13  C55       56.2320   50.4260   -0.1370 C.ar    1  FTL1        0.0000
     14  C56       55.2170   49.4480   -0.1430 C.ar    1  FTL1        0.0000
     15  C65       53.9970   47.1620    1.8020 C.1     1  FTL1        0.1004
     16  C7        54.4000   53.3770    1.2200 C.ar    1  FTL1        0.0000
     17  N1        54.8760   46.9230    2.5210 N.1     1  FTL1       -0.1908
     18  C2        52.3300   51.4260    1.2380 C.ar    1  FTL1        0.0000
     19  C3        53.1060   53.7050    1.6770 C.ar    1  FTL1        0.0000
     20  C4        52.0800   52.7370    1.6900 C.ar    1  FTL1        0.0000
     21  N3        49.6990   45.4880   -4.9580 N.ar    1  FTL1       -0.2226
     22  C10       49.9990   46.3810   -3.9610 C.ar    1  FTL1        0.1150
     23  C12       48.8240   46.4160   -3.1570 C.ar    1  FTL1        0.0778
     24  N4        47.9120   45.5770   -3.6790 N.ar    1  FTL1       -0.3089
     25  C5        48.4210   44.9850   -4.7990 C.ar    1  FTL1        0.1784
     26  C15       46.5750   45.3170   -3.1280 C.3     1  FTL1        0.1318
     27  C16       48.6750   51.2110   -0.7770 C.ar    1  FTL1       -0.0026
     28  C11       49.2750   50.9120   -2.0210 C.ar    1  FTL1       -0.0017
     29  C13       49.5560   51.9580   -2.9250 C.ar    1  FTL1        0.0077
     30  C14       49.2330   53.2860   -2.5910 C.ar    1  FTL1        0.0682
     31  C17       48.6380   53.5750   -1.3490 C.ar    1  FTL1        0.0103
     32  C6        48.3540   52.5430   -0.4330 C.ar    1  FTL1        0.0004
     33  C9        49.4860   54.3490   -3.5290 C.1     1  FTL1        0.1004
     34  N5        49.6810   55.2040   -4.2890 N.1     1  FTL1       -0.1908
     35  C18       48.6080   47.2770   -1.9090 C.3     1  FTL1        0.1370
@<TRIPOS>BOND
     1    21    25   ar
     2    21    22   ar
     3    25    24   ar
     4    34    33    3
     5    22    23   ar
     6    24    23   ar
     7    24    26    1
     8    33    30    1
     9    23    35    1
    10    29    30   ar
    11    29    28   ar
    12    30    31   ar
    13     1    28    1
    14     1     2    1
    15    28    27   ar
    16    35     2    1
    17     2     3    1
    18    31    32   ar
    19    27    32   ar
    20     3     8   ar
    21     3     4   ar
    22     8     7   ar
    23    14    13   ar
    24    14     9   ar
    25    13    12   ar
    26     4     5   ar
    27     7     9    1
    28     7     6   ar
    29     9    10   ar
    30    12    11   ar
    31    10    11   ar
    32    10    18   ar
    33    11    16   ar
    34     5     6   ar
    35     6    15    1
    36    16    19   ar
    37    18    20   ar
    38    19    20   ar
    39    15    17    3
