@<TRIPOS>MOLECULE
1nl5_MAL_A_1.pdb
 23 24 0 0 0
SMALL
GASTEIGER

@<TRIPOS>ATOM
      1  C1       113.0340   31.6030   23.4690 C.3   371  MAL371      0.2695
      2  C2       113.9010   30.5510   22.7570 C.3   371  MAL371      0.2406
      3  C3       115.3450   31.0600   22.7100 C.3   371  MAL371      0.2198
      4  C4       115.3880   32.4120   21.9850 C.3   371  MAL371      0.2144
      5  C5       114.4200   33.4060   22.6440 C.3   371  MAL371      0.1835
      6  C6       114.3010   34.6890   21.8410 C.3   371  MAL371      0.2142
      7  O1       113.4590   31.7500   24.8030 O.3   371  MAL371     -0.3257
      8  O2       113.8430   29.3070   23.4460 O.3   371  MAL371     -0.2149
      9  O3       116.1650   30.1130   22.0440 O.3   371  MAL371     -0.2174
     10  O4       116.7030   32.9470   22.0210 O.3   371  MAL371     -0.2176
     11  O5       113.0950   32.8310   22.7370 O.3   371  MAL371     -0.3256
     12  O6       113.5680   35.6770   22.5430 O.3   371  MAL371     -0.2176
     13  C1'      111.5180   31.6490   28.5780 C.3   371  MAL371      0.3023
     14  C2'      111.3460   30.4250   27.6510 C.3   371  MAL371      0.2433
     15  C3'      112.3590   30.4110   26.5030 C.3   371  MAL371      0.2168
     16  C4'      112.4210   31.7680   25.8030 C.3   371  MAL371      0.1804
     17  C5'      112.7000   32.8660   26.8420 C.3   371  MAL371      0.1804
     18  C6'      112.7140   34.2540   26.2040 C.3   371  MAL371      0.2141
     19  O1'      112.6520   31.4910   29.3580 O.3   371  MAL371     -0.1869
     20  O2'      111.5110   29.2280   28.4050 O.3   371  MAL371     -0.2148
     21  O3'      111.9760   29.4060   25.5730 O.3   371  MAL371     -0.2175
     22  O5'      111.6500   32.8810   27.8390 O.3   371  MAL371     -0.3237
     23  O6'      113.5130   35.1680   26.9430 O.3   371  MAL371     -0.2176
@<TRIPOS>BOND
     1     6    12    1
     2     6     5    1
     3     4    10    1
     4     4     5    1
     5     4     3    1
     6     9     3    1
     7     5    11    1
     8     3     2    1
     9    11     1    1
    10     2     8    1
    11     2     1    1
    12     1     7    1
    13     7    16    1
    14    21    15    1
    15    16    15    1
    16    16    17    1
    17    18    17    1
    18    18    23    1
    19    15    14    1
    20    17    22    1
    21    14    20    1
    22    14    13    1
    23    22    13    1
    24    13    19    1
