@<TRIPOS>MOLECULE
1nl7_COA_A_1.pdb
 48 50 0 0 0
SMALL
GASTEIGER

@<TRIPOS>ATOM
      1  N1A       35.2690  -27.3940   21.0070 N.2   1393  COA1393     0.0021
      2  C2A       35.4650  -27.7600   22.2920 C.3   1393  COA1393     0.5254
      3  N3A       35.2320  -26.9240   23.3180 N.2   1393  COA1393    -0.0055
      4  C4A       34.7870  -25.6810   23.0950 C.2   1393  COA1393     0.3518
      5  C5A       34.5630  -25.2320   21.7430 C.2   1393  COA1393     0.2526
      6  C6A       34.8290  -26.1700   20.6620 C.2   1393  COA1393     0.4393
      7  N6A       34.6390  -25.7640   19.4000 N.pl3 1393  COA1393     0.2180
      8  N7A       34.1340  -23.9810   21.7220 N.2   1393  COA1393    -0.2095
      9  C8A       34.0730  -23.6170   23.0110 C.3   1393  COA1393     0.3377
     10  N9A       34.4740  -24.6280   23.8160 N.pl3 1393  COA1393    -0.1439
     11  C1B       34.5400  -24.6600   25.2790 C.3   1393  COA1393     0.3185
     12  C2B       35.1200  -23.3940   25.9010 C.3   1393  COA1393     0.2543
     13  O2B       36.5360  -23.5090   26.1630 O.3   1393  COA1393    -0.2131
     14  C3B       34.2610  -23.2550   27.1510 C.3   1393  COA1393     0.1928
     15  O3B       34.9450  -23.8620   28.2560 O.3   1393  COA1393    -0.2673
     16  P3B       34.2430  -24.1730   29.6780 P.3   1393  COA1393     0.5327
     17  O7A       35.2560  -23.9110   30.7740 O.3   1393  COA1393    -0.1145
     18  O8A       32.8870  -23.1490   29.8780 O.3   1393  COA1393    -0.1145
     19  O9A       33.7750  -25.8100   29.7110 O.2   1393  COA1393    -0.2224
     20  C4B       32.9300  -23.9540   26.8120 C.3   1393  COA1393     0.1795
     21  O4B       33.1880  -24.8250   25.7120 O.3   1393  COA1393    -0.3136
     22  C5B       31.7970  -22.9920   26.4420 C.3   1393  COA1393     0.1812
     23  O5B       32.0820  -22.3160   25.2130 O.3   1393  COA1393    -0.3112
     24  P1A       31.9580  -20.7070   25.0870 P.3   1393  COA1393     0.2189
     25  O1A       32.5010  -20.0520   26.3420 O.3   1393  COA1393    -0.4371
     26  O2A       32.7810  -20.1380   23.7080 O.2   1393  COA1393    -0.5170
     27  O3A       30.3580  -20.4910   24.9800 O.3   1393  COA1393    -0.2703
     28  P2A       29.6520  -19.0410   24.8910 P.3   1393  COA1393     0.2188
     29  O4A       29.5570  -18.4610   26.2910 O.3   1393  COA1393    -0.4371
     30  O5A       30.4780  -18.0070   23.8280 O.2   1393  COA1393    -0.5170
     31  O6A       28.1550  -19.2970   24.3010 O.3   1393  COA1393    -0.3138
     32  CBP       26.8720  -19.9830   22.3150 C.3   1393  COA1393     0.0645
     33  CCP       27.8690  -20.3760   23.4030 C.3   1393  COA1393     0.1519
     34  CDP       26.7220  -21.1890   21.3850 C.3   1393  COA1393     0.0056
     35  CEP       25.5330  -19.6300   22.9710 C.3   1393  COA1393     0.0056
     36  CAP       27.4030  -18.7740   21.5220 C.3   1393  COA1393     0.2312
     37  OAP       28.7770  -18.9450   21.1340 O.3   1393  COA1393    -0.2131
     38  C9P       26.5650  -18.4950   20.2970 C.2   1393  COA1393     0.2719
     39  O9P       25.5370  -17.8540   20.4330 O.2   1393  COA1393    -0.2706
     40  N8P       27.0000  -18.9450   19.1100 N.am  1393  COA1393    -0.2028
     41  C7P       26.2850  -18.7380   17.8610 C.3   1393  COA1393     0.1248
     42  C6P       26.2800  -17.2650   17.4810 C.3   1393  COA1393     0.1102
     43  C5P       25.2120  -17.0100   16.4500 C.2   1393  COA1393     0.2432
     44  O5P       24.0970  -17.4960   16.6070 O.2   1393  COA1393    -0.2733
     45  N4P       25.5430  -16.2410   15.3950 N.am  1393  COA1393    -0.2044
     46  C3P       24.6220  -15.8940   14.3120 C.3   1393  COA1393     0.1276
     47  C2P       23.5310  -16.9360   14.1530 C.3   1393  COA1393     0.0920
     48  S1P       22.8110  -17.0130   12.5110 S.3   1393  COA1393    -0.0802
@<TRIPOS>BOND
     1    48    47    1
     2    47    46    1
     3    46    45    1
     4    45    43   am
     5    43    44    2
     6    43    42    1
     7    42    41    1
     8    41    40    1
     9    40    38   am
    10     7     6    1
    11    38    39    2
    12    38    36    1
    13     6     1    2
    14     6     5    1
    15     1     2    1
    16    37    36    1
    17    34    32    1
    18    36    32    1
    19     8     5    2
    20     8     9    1
    21     5     4    1
    22     2     3    1
    23    32    35    1
    24    32    33    1
    25     9    10    1
    26     4     3    2
    27     4    10    1
    28    33    31    1
    29    26    24    2
    30    10    11    1
    31    30    28    2
    32    31    28    1
    33    28    27    1
    34    28    29    1
    35    27    24    1
    36    24    23    1
    37    24    25    1
    38    23    22    1
    39    11    21    1
    40    11    12    1
    41    21    20    1
    42    12    13    1
    43    12    14    1
    44    22    20    1
    45    20    14    1
    46    14    15    1
    47    15    16    1
    48    16    19    2
    49    16    18    1
    50    16    17    1
