@<TRIPOS>MOLECULE
1nl9_989_A_1.pdb
 39 41 0 0 0
SMALL
GASTEIGER

@<TRIPOS>ATOM
      1  O22       36.6580   29.5000   24.0190 O.co2 322  989322     -0.2354
      2  C21       35.6080   28.7400   24.4130 C.2   322  989322      0.4411
      3  O23       34.7470   29.1720   25.1210 O.co2 322  989322     -0.2354
      4  C18       35.5430   27.2770   23.8800 C.2   322  989322      0.3367
      5  O20       35.8780   26.4060   24.6770 O.2   322  989322     -0.2620
      6  N17       35.1250   26.9770   22.5520 N.am  322  989322     -0.2282
      7  C19       35.0770   25.6090   22.0500 C.ar  322  989322      0.0649
      8  C28       33.8320   25.1790   21.4580 C.ar  322  989322      0.0155
      9  C27       33.6470   23.8880   20.9270 C.ar  322  989322      0.0013
     10  C26       34.6920   22.9580   20.9560 C.ar  322  989322      0.0003
     11  C25       35.9260   23.3190   21.5200 C.ar  322  989322      0.0078
     12  C24       36.1640   24.6160   22.0720 C.ar  322  989322      0.0937
     13  C33       37.5320   24.8230   22.6270 C.2   322  989322      0.3890
     14  O34       38.1510   25.8280   22.4800 O.co2 322  989322     -0.2405
     15  O35       38.0450   23.7900   23.3310 O.co2 322  989322     -0.2405
     16  C10       34.6920   28.0320   21.7050 C.ar  322  989322      0.0585
     17  C9        33.3820   28.5810   21.9580 C.ar  322  989322      0.0149
     18  C8        32.8500   29.6210   21.1820 C.ar  322  989322     -0.0029
     19  C7        33.5800   30.1890   20.0990 C.ar  322  989322     -0.0199
     20  C3        34.9180   29.6720   19.7980 C.ar  322  989322     -0.0027
     21  C4        35.4720   28.5890   20.6090 C.ar  322  989322      0.0137
     22  C5        36.7870   28.0840   20.3050 C.ar  322  989322      0.0012
     23  C6        37.5460   28.6280   19.2330 C.ar  322  989322      0.0000
     24  C1        37.0150   29.6830   18.4400 C.ar  322  989322     -0.0000
     25  C2        35.7220   30.1980   18.7140 C.ar  322  989322     -0.0003
     26  C36       32.9120   31.3080   19.3060 C.3   322  989322      0.0574
     27  C37       32.3120   30.7900   17.9580 C.3   322  989322      0.1770
     28  N41       31.7070   31.9260   17.2520 N.am  322  989322     -0.1974
     29  C61       32.2190   32.3740   16.0860 C.2   322  989322      0.2423
     30  O66       33.1960   31.9010   15.5140 O.2   322  989322     -0.2733
     31  C62       31.4680   33.5610   15.5050 C.3   322  989322      0.0964
     32  C40       31.2950   29.6300   18.1280 C.2   322  989322      0.2616
     33  O43       31.7310   28.4810   18.1910 O.2   322  989322     -0.2715
     34  N44       29.9660   29.9050   18.2080 N.am  322  989322     -0.2040
     35  C45       28.8920   28.9250   18.3750 C.3   322  989322      0.1152
     36  C46       27.6830   29.5000   19.1330 C.3   322  989322      0.0234
     37  C49       27.9330   29.6020   20.6510 C.3   322  989322      0.0018
     38  C52       26.7150   30.1700   21.4020 C.3   322  989322      0.0001
     39  C55       27.0890   30.8300   22.7320 C.3   322  989322      0.0000
@<TRIPOS>BOND
     1    31    29    1
     2    30    29    2
     3    29    28   am
     4    28    27    1
     5    27    32    1
     6    27    26    1
     7    32    33    2
     8    32    34   am
     9    34    35    1
    10    35    36    1
    11    24    25   ar
    12    24    23   ar
    13    25    20   ar
    14    36    37    1
    15    23    22   ar
    16    26    19    1
    17    20    19   ar
    18    20    21   ar
    19    19    18   ar
    20    22    21   ar
    21    21    16   ar
    22    37    38    1
    23     9    10   ar
    24     9     8   ar
    25    10    11   ar
    26    18    17   ar
    27    38    39    1
    28     8     7   ar
    29    11    12   ar
    30    16    17   ar
    31    16     6    1
    32     7    12   ar
    33     7     6    1
    34    12    13    1
    35    14    13   ar
    36     6     4   am
    37    13    15   ar
    38     4     2    1
    39     4     5    2
    40     1     2   ar
    41     2     3   ar
