@<TRIPOS>MOLECULE
1nli_ADE_A_1.pdb
 10 11 0 0 0
SMALL
GASTEIGER

@<TRIPOS>ATOM
      1  N9         4.5680   32.5340   -0.2290 N.2   248  ADE248     -0.1914
      2  C8         3.2820   32.6900   -0.6910 C.3   248  ADE248      0.2618
      3  N7         2.8070   33.9300   -0.6340 N.2   248  ADE248     -0.2267
      4  C5         3.8740   34.6390   -0.0940 C.2   248  ADE248      0.2303
      5  C6         4.0330   36.0070    0.1700 C.2   248  ADE248      0.4393
      6  N6         2.9950   36.8490   -0.0290 N.pl3 248  ADE248      0.2185
      7  N1         5.2400   36.4250    0.6620 N.2   248  ADE248     -0.0265
      8  C2         6.1810   35.4860    0.8660 C.3   248  ADE248      0.4008
      9  N3         6.1060   34.1520    0.6520 N.2   248  ADE248     -0.1640
     10  C4         4.9520   33.7900    0.1580 C.1   248  ADE248      0.0579
@<TRIPOS>BOND
     1     2     3    1
     2     2     1    1
     3     3     4    2
     4     1    10    2
     5     4    10    1
     6     4     5    1
     7     6     5    1
     8    10     9    2
     9     5     7    2
    10     9     8    1
    11     7     8    1
