@<TRIPOS>MOLECULE
1nlj_2CA_A_1.pdb
 37 40 0 0 0
SMALL
GASTEIGER

@<TRIPOS>ATOM
      1  S1        29.6300  -32.9150   -2.0180 S.O2  300  2CA300      0.0933
      2  O1        28.8170  -33.6090   -2.9910 O.2   300  2CA300     -0.1482
      3  O2        29.0090  -32.6540   -0.7440 O.2   300  2CA300     -0.1482
      4  O4        34.9610  -38.0910   -2.0460 O.2   300  2CA300     -0.2715
      5  O5        37.4430  -36.1140   -0.9680 O.2   300  2CA300     -0.2650
      6  O6        39.0130  -38.0210    0.1770 O.2   300  2CA300     -0.4488
      7  N2        34.1850  -36.0140   -2.4720 N.am  300  2CA300     -0.2027
      8  N3        37.4190  -37.2680   -2.9830 N.am  300  2CA300     -0.1914
      9  N4        30.7400  -31.4510   -4.0110 N.ar  300  2CA300     -0.2242
     10  C8        35.0620  -36.9930   -2.6440 C.2   300  2CA300      0.2613
     11  C9        36.2380  -36.6680   -3.6230 C.3   300  2CA300      0.1731
     12  C10       35.9390  -37.3450   -4.9760 C.3   300  2CA300      0.0311
     13  C11       36.5900  -36.8630   -6.3110 C.3   300  2CA300      0.0022
     14  C12       37.3160  -37.9990   -6.9810 C.3   300  2CA300      0.0001
     15  C13       37.6380  -35.8030   -6.0820 C.3   300  2CA300      0.0001
     16  C14       37.8260  -37.0480   -1.6900 C.2   300  2CA300      0.2999
     17  C15       38.7850  -38.0400   -1.1800 C.ar  300  2CA300      0.2000
     18  C16       39.5080  -38.9730   -1.7960 C.ar  300  2CA300      0.0453
     19  C17       40.9300  -40.9300   -0.6930 C.ar  300  2CA300      0.0031
     20  C18       41.4380  -41.3500    0.5730 C.ar  300  2CA300      0.0002
     21  C19       41.1420  -40.6110    1.7670 C.ar  300  2CA300      0.0031
     22  C20       40.2580  -39.5040    1.7610 C.ar  300  2CA300      0.0375
     23  C21       39.7940  -39.0820    0.4420 C.ar  300  2CA300      0.1455
     24  C22       40.1290  -39.7520   -0.7520 C.ar  300  2CA300      0.0377
     25  C23       30.2360  -31.3390   -2.7460 C.ar  300  2CA300      0.2062
     26  C24       30.2220  -30.0900   -2.0310 C.ar  300  2CA300      0.0398
     27  C25       31.0530  -29.0390   -2.5310 C.ar  300  2CA300      0.0046
     28  C26       31.5970  -29.1320   -3.8390 C.ar  300  2CA300      0.0208
     29  C27       31.4270  -30.3470   -4.5490 C.ar  300  2CA300      0.1004
     30  C01       32.9650  -36.2610   -1.5070 C.3   300  2CA300      0.1317
     31  C02       33.0950  -35.3750   -0.2080 C.3   300  2CA300      0.0517
     32  C03       33.2270  -33.8500   -0.4020 C.2   300  2CA300     -0.0069
     33  C04       32.0290  -33.0970   -1.0340 C.2   300  2CA300      0.0792
     34  N05       30.9160  -33.8590   -1.6960 N.pl3 300  2CA300     -0.1857
     35  C06       31.3360  -34.6800   -2.8710 C.3   300  2CA300      0.1505
     36  O08       30.5640  -36.5960   -1.5880 O.3   300  2CA300     -0.2194
     37  C07       31.6630  -36.1070   -2.3500 C.3   300  2CA300      0.1936
@<TRIPOS>BOND
     1    14    13    1
     2    13    15    1
     3    13    12    1
     4    12    11    1
     5    29     9   ar
     6    29    28   ar
     7     9    25   ar
     8    28    27   ar
     9    11     8    1
    10    11    10    1
    11     2     1    2
    12     8    16   am
    13    35    37    1
    14    35    34    1
    15    25    26   ar
    16    25     1    1
    17    10     7   am
    18    10     4    2
    19    27    26   ar
    20     7    30    1
    21    37    36    1
    22    37    30    1
    23     1    34    1
    24     1     3    2
    25    18    17   ar
    26    18    24   ar
    27    34    33    1
    28    16    17    1
    29    16     5    2
    30    30    31    1
    31    17     6   ar
    32    33    32    2
    33    24    19   ar
    34    24    23   ar
    35    19    20   ar
    36    32    31    1
    37     6    23   ar
    38    23    22   ar
    39    20    21   ar
    40    22    21   ar
