@<TRIPOS>MOLECULE
1nlk_ADP_L_1.pdb
 28 30 0 0 0
SMALL
GASTEIGER

@<TRIPOS>ATOM
      1  PB        31.2600   58.0970   12.0360 P.3     1  ADP1        0.2221
      2  PB        31.3900   55.1310   11.6430 P.3     1  ADP1        0.1565
      3  O1B       30.0170   58.8490   12.2800 O.3     1  ADP1       -0.4369
      4  O2B       31.0840   56.6530   11.7720 O.3     1  ADP1       -0.2898
      5  O3B       31.6510   58.6320   10.5780 O.2     1  ADP1       -0.5169
      6  PA        33.3810   57.8230   13.7350 P.3     1  ADP1        0.2189
      7  O1A       34.7320   57.5880   13.1460 O.2     1  ADP1       -0.5170
      8  O2A       33.4240   58.3630   15.1180 O.3     1  ADP1       -0.4371
      9  O3A       32.4260   58.5280   12.8440 O.3     1  ADP1       -0.2701
     10  O5'       32.8660   56.2980   13.9330 O.3     1  ADP1       -0.3112
     11  C5'       32.8060   55.6830   15.2110 C.3     1  ADP1        0.1813
     12  C4'       31.4550   55.0810   15.5590 C.3     1  ADP1        0.1821
     13  O4'       31.5270   54.8380   16.9840 O.3     1  ADP1       -0.3135
     14  C3'       30.2690   56.0440   15.4050 C.3     1  ADP1        0.2184
     15  O3'       29.5980   55.9950   14.1340 O.3     1  ADP1       -0.2174
     16  C2'       29.3750   55.7520   16.6120 C.3     1  ADP1        0.2570
     17  O2'       28.6440   54.5150   16.4960 O.3     1  ADP1       -0.2130
     18  C1'       30.4600   55.5330   17.6620 C.3     1  ADP1        0.3186
     19  N9        30.9050   56.7770   18.3270 N.pl3   1  ADP1       -0.1439
     20  C8        31.7330   57.7670   17.8720 C.3     1  ADP1        0.3377
     21  N7        31.8530   58.7750   18.6810 N.2     1  ADP1       -0.2095
     22  C5        31.0520   58.4280   19.7570 C.2     1  ADP1        0.2526
     23  C6        30.7840   59.0750   20.9650 C.2     1  ADP1        0.4393
     24  N6        31.3420   60.2450   21.2730 N.pl3   1  ADP1        0.2180
     25  N1        29.9510   58.4630   21.8180 N.2     1  ADP1        0.0021
     26  C2        29.4110   57.2980   21.4770 C.3     1  ADP1        0.5254
     27  N3        29.5830   56.5850   20.3740 N.2     1  ADP1       -0.0055
     28  C4        30.4480   57.2210   19.5460 C.2     1  ADP1        0.3518
@<TRIPOS>BOND
     1     5     1    2
     2     2     4    1
     3     4     1    1
     4     1     3    1
     5     1     9    1
     6     9     6    1
     7     7     6    2
     8     6    10    1
     9     6     8    1
    10    10    11    1
    11    15    14    1
    12    11    12    1
    13    14    12    1
    14    14    16    1
    15    12    13    1
    16    17    16    1
    17    16    18    1
    18    13    18    1
    19    18    19    1
    20    20    19    1
    21    20    21    1
    22    19    28    1
    23    21    22    2
    24    28    22    1
    25    28    27    2
    26    22    23    1
    27    27    26    1
    28    23    24    1
    29    23    25    2
    30    26    25    1
