@<TRIPOS>MOLECULE
1nlm_UD1_A_1.pdb
 39 41 0 0 0
SMALL
GASTEIGER

@<TRIPOS>ATOM
      1  C1'       38.5130   -6.7280   23.8410 C.3   401  UD1401      0.2633
      2  C2'       39.2490   -6.9000   25.1800 C.3   401  UD1401      0.1845
      3  C3'       40.7360   -6.5590   24.9810 C.3   401  UD1401      0.2094
      4  C4'       41.3560   -7.3930   23.8510 C.3   401  UD1401      0.2136
      5  C5'       40.5410   -7.2660   22.5720 C.3   401  UD1401      0.1834
      6  C6'       41.0140   -8.2360   21.5090 C.3   401  UD1401      0.2142
      7  C7'       38.3700   -6.4710   27.4030 C.2   401  UD1401      0.2420
      8  C8'       37.2940   -7.5410   27.5590 C.3   401  UD1401      0.0964
      9  N2'       38.6590   -6.0230   26.1790 N.am  401  UD1401     -0.1992
     10  O1'       38.6030   -5.3440   23.4140 O.3   401  UD1401     -0.2864
     11  O3'       41.4400   -6.7530   26.2020 O.3   401  UD1401     -0.2183
     12  O4'       42.6830   -6.9540   23.5860 O.3   401  UD1401     -0.2176
     13  O5'       39.1550   -7.5600   22.8450 O.3   401  UD1401     -0.3260
     14  O6'       40.5910   -7.8270   20.2200 O.3   401  UD1401     -0.2176
     15  O7'       38.9580   -6.0010   28.3910 O.2   401  UD1401     -0.2733
     16  N1        35.3490    0.3010   17.2470 N.am  401  UD1401     -0.1766
     17  C2        34.4940    0.9760   16.3940 C.1   401  UD1401      0.2845
     18  N3        33.7080    1.9260   16.9940 N.2   401  UD1401     -0.2452
     19  C4        33.6850    2.2610   18.3330 C.1   401  UD1401      0.2182
     20  C5        34.5930    1.5170   19.1500 C.2   401  UD1401      0.1242
     21  C6        35.3750    0.5860   18.5950 C.2   401  UD1401      0.0929
     22  O2        34.4340    0.7460   15.2060 O.2   401  UD1401     -0.1918
     23  O4        32.9070    3.1280   18.7240 O.2   401  UD1401     -0.2085
     24  C1B       36.2200   -0.7300   16.6680 C.3   401  UD1401      0.2401
     25  C2B       37.6990   -0.3560   16.5930 C.3   401  UD1401      0.2319
     26  O2'       37.9960    0.3420   15.3990 O.3   401  UD1401     -0.2157
     27  C3B       38.3530   -1.7300   16.6150 C.3   401  UD1401      0.2158
     28  C4B       37.4390   -2.5310   17.5250 C.3   401  UD1401      0.1799
     29  O4B       36.1490   -1.8670   17.4940 O.3   401  UD1401     -0.3320
     30  O3B       38.3750   -2.3280   15.3260 O.3   401  UD1401     -0.2175
     31  C5B       37.9060   -2.6100   18.9460 C.3   401  UD1401      0.1813
     32  O5B       38.1850   -3.9510   19.2850 O.3   401  UD1401     -0.3112
     33  PA        39.0710   -4.2930   20.5590 P.3   401  UD1401      0.2189
     34  O1A       38.9290   -5.7610   20.7270 O.3   401  UD1401     -0.4371
     35  O2A       40.4170   -3.7510   20.2620 O.2   401  UD1401     -0.5170
     36  O3A       38.2840   -3.6870   21.6770 O.3   401  UD1401     -0.2703
     37  PB        37.4970   -4.6680   22.4820 P.3   401  UD1401      0.2208
     38  O1B       36.7930   -5.7650   21.7750 O.2   401  UD1401     -0.5170
     39  O2B       36.4670   -4.1440   23.4060 O.3   401  UD1401     -0.4371
@<TRIPOS>BOND
     1    22    17    2
     2    30    27    1
     3    26    25    1
     4    17    18    2
     5    17    16   am
     6    25    27    1
     7    25    24    1
     8    27    28    1
     9    24    16    1
    10    24    29    1
    11    18    19    2
    12    16    21    1
    13    29    28    1
    14    28    31    1
    15    19    23    2
    16    19    20    1
    17    21    20    2
    18    31    32    1
    19    32    33    1
    20    14     6    1
    21    35    33    2
    22    33    34    1
    23    33    36    1
    24     6     5    1
    25    36    37    1
    26    38    37    2
    27    37    39    1
    28    37    10    1
    29     5    13    1
    30     5     4    1
    31    13     1    1
    32    10     1    1
    33    12     4    1
    34     1     2    1
    35     4     3    1
    36     3     2    1
    37     3    11    1
    38     2     9    1
    39     9     7   am
    40     7     8    1
    41     7    15    2
