@<TRIPOS>MOLECULE
1nlu_III_B_1.pdb
 30 31 0 0 0
SMALL
GASTEIGER

@<TRIPOS>ATOM
      1  CA        23.3010   12.0160    7.5880 C.3     1  IVA1        0.0868
      2  CB        23.4090   12.7860    6.2470 C.3     1  IVA1        0.0091
      3  CG1       22.9800   11.9480    5.0420 C.3     1  IVA1        0.0005
      4  CG2       22.6140   14.0860    6.3070 C.3     1  IVA1        0.0005
      5  C         23.8960   12.8250    8.7430 C.2     1  IVA1        0.2418
      6  O         25.0390   13.2340    8.6950 O.2     1  IVA1       -0.2733
      7  N         23.1660   13.0650    9.8250 N.am    2  PHE2       -0.1974
      8  CA        23.6540   13.8940   10.9210 C.3     2  PHE2        0.1770
      9  CB        22.4670   14.4400   11.7230 C.3     2  PHE2        0.0574
     10  CG        21.4400   15.1280   10.8730 C.ar    2  PHE2       -0.0199
     11  CD1       20.1020   14.7290   10.9520 C.ar    2  PHE2       -0.0038
     12  CD2       21.7550   16.0950    9.9320 C.ar    2  PHE2       -0.0038
     13  CE1       19.1220   15.3620   10.1960 C.ar    2  PHE2        0.0055
     14  CE2       20.7280   16.6970    9.2020 C.ar    2  PHE2        0.0055
     15  CZ        19.4040   16.4070    9.3330 C.ar    2  PHE2        0.0300
     16  I         18.1110   17.1850    8.0430 I       2  PHE2       -0.0425
     17  C         24.5650   13.1010   11.8440 C.2     2  PHE2        0.2616
     18  O         24.1950   12.0040   12.2800 O.2     2  PHE2       -0.2715
     19  N         25.7450   13.6530   12.1840 N.am    3  TYR3       -0.2027
     20  CA        26.6210   12.9980   13.1510 C.3     3  TYR3        0.1325
     21  C         26.5430   13.7470   14.4990 C.3     3  TYR3        0.2039
     22  O         27.3690   13.1200   15.4900 O.3     3  TYR3       -0.2185
     23  CB        28.0400   12.9130   12.6050 C.3     3  TYR3        0.0507
     24  CG        28.2280   11.9380   11.4580 C.ar    3  TYR3       -0.0202
     25  CD1       29.1010   12.2390   10.4260 C.ar    3  TYR3       -0.0009
     26  CD2       27.5670   10.7200   11.4270 C.ar    3  TYR3       -0.0009
     27  CE1       29.2980   11.3600    9.3790 C.ar    3  TYR3        0.0417
     28  CE2       27.7550    9.8250   10.3720 C.ar    3  TYR3        0.0417
     29  CZ        28.6250   10.1490    9.3550 C.ar    3  TYR3        0.1957
     30  OH        28.8100    9.2640    8.3030 O.3     3  TYR3       -0.2866
@<TRIPOS>BOND
     1     3     2    1
     2     2     4    1
     3     2     1    1
     4     1     5    1
     5    16    15    1
     6    30    29    1
     7     6     5    2
     8     5     7   am
     9    14    15   ar
    10    14    12   ar
    11    15    13   ar
    12    29    27   ar
    13    29    28   ar
    14    27    25   ar
    15     7     8    1
    16    12    10   ar
    17    13    11   ar
    18    28    26   ar
    19    25    24   ar
    20    10    11   ar
    21    10     9    1
    22     8     9    1
    23     8    17    1
    24    26    24   ar
    25    24    23    1
    26    17    19   am
    27    17    18    2
    28    19    20    1
    29    23    20    1
    30    20    21    1
    31    21    22    1
