@<TRIPOS>MOLECULE
1nlv_ATP_A_1.pdb
 31 33 0 0 0
SMALL
GASTEIGER

@<TRIPOS>ATOM
      1  PG        13.8370    1.1490   15.1020 P.3   401  ATP401      0.5373
      2  O1G       12.5380    1.0250   15.7780 O.3   401  ATP401     -0.1143
      3  O2G       15.0590    1.1130   15.9830 O.3   401  ATP401     -0.1143
      4  O3G       14.1060    0.1040   14.0430 O.2   401  ATP401     -0.2221
      5  PB        14.7480    3.3450   13.3990 P.3   401  ATP401      0.2277
      6  O1B       16.1490    2.9210   13.2430 O.3   401  ATP401     -0.4368
      7  O2B       14.3260    3.5750   12.0150 O.2   401  ATP401     -0.5168
      8  O3B       13.7760    2.5000   14.2690 O.3   401  ATP401     -0.2258
      9  PA        15.5010    5.8870   14.5160 P.3   401  ATP401      0.2189
     10  O1A       16.3550    5.7200   15.7160 O.3   401  ATP401     -0.4371
     11  O2A       16.2300    6.2040   13.2940 O.2   401  ATP401     -0.5170
     12  O3A       14.6210    4.6240   14.3250 O.3   401  ATP401     -0.2700
     13  O5'       14.4300    6.9550   14.8430 O.3   401  ATP401     -0.3112
     14  C5'       13.3970    7.4850   13.9940 C.3   401  ATP401      0.1813
     15  C4'       12.2950    8.0240   14.8780 C.3   401  ATP401      0.1821
     16  O4'       12.8470    9.0670   15.7590 O.3   401  ATP401     -0.3135
     17  C3'       11.1290    8.6270   14.0920 C.3   401  ATP401      0.2184
     18  O3'        9.8800    8.3030   14.7180 O.3   401  ATP401     -0.2174
     19  C2'       11.4600   10.1200   14.2050 C.3   401  ATP401      0.2570
     20  O2'       10.3280   10.9770   14.0800 O.3   401  ATP401     -0.2130
     21  C1'       12.1220   10.2540   15.6160 C.3   401  ATP401      0.3186
     22  N9        12.9120   11.4900   15.7940 N.pl3 401  ATP401     -0.1439
     23  C8        13.9470   11.9660   15.0450 C.3   401  ATP401      0.3377
     24  N7        14.4040   13.1290   15.5140 N.2   401  ATP401     -0.2095
     25  C5        13.6510   13.3800   16.6390 C.2   401  ATP401      0.2526
     26  C6        13.6140   14.4450   17.5700 C.2   401  ATP401      0.4393
     27  N6        14.4110   15.5060   17.5360 N.pl3 401  ATP401      0.2180
     28  N1        12.7130   14.4220   18.6030 N.2   401  ATP401      0.0021
     29  C2        11.8370   13.3360   18.6750 C.3   401  ATP401      0.5254
     30  N3        11.8010   12.3050   17.8580 N.2   401  ATP401     -0.0055
     31  C4        12.7040   12.3930   16.8250 C.2   401  ATP401      0.3518
@<TRIPOS>BOND
     1     7     5    2
     2     6     5    1
     3    11     9    2
     4     5     8    1
     5     5    12    1
     6    14    13    1
     7    14    15    1
     8     4     1    2
     9    20    19    1
    10    17    19    1
    11    17    18    1
    12    17    15    1
    13    19    21    1
    14     8     1    1
    15    12     9    1
    16     9    13    1
    17     9    10    1
    18    15    16    1
    19    23    24    1
    20    23    22    1
    21     1     2    1
    22     1     3    1
    23    24    25    2
    24    21    16    1
    25    21    22    1
    26    22    31    1
    27    25    31    1
    28    25    26    1
    29    31    30    2
    30    27    26    1
    31    26    28    2
    32    30    29    1
    33    28    29    1
