@<TRIPOS>MOLECULE
1nly_AGS_A_1.pdb
 31 33 0 0 0
SMALL
GASTEIGER

@<TRIPOS>ATOM
      1  PG       -34.0490   57.0990   24.1540 P.3   402  AGS402      0.4340
      2  S1G      -34.0450   56.4590   25.8760 S.3   402  AGS402      0.0416
      3  O2G      -33.6500   58.5220   24.2180 O.3   402  AGS402     -0.1305
      4  O3G      -33.2380   56.2880   23.1950 O.2   402  AGS402     -0.2423
      5  PB       -36.0860   56.0820   22.2490 P.3   402  AGS402      0.2262
      6  O1B      -36.0160   56.8430   20.9810 O.2   402  AGS402     -0.5168
      7  O2B      -35.3730   54.7930   22.2070 O.3   402  AGS402     -0.4369
      8  O3B      -35.5060   57.0770   23.4160 O.3   402  AGS402     -0.2405
      9  PA       -38.3290   54.3740   22.7280 P.3   402  AGS402      0.2189
     10  O1A      -38.3380   53.3800   21.6210 O.2   402  AGS402     -0.5170
     11  O2A      -37.7410   54.0180   24.1200 O.3   402  AGS402     -0.4371
     12  O3A      -37.5680   55.7990   22.3640 O.3   402  AGS402     -0.2701
     13  O5'      -39.8130   54.9510   22.7530 O.3   402  AGS402     -0.3112
     14  C5'      -40.7330   54.1220   23.4440 C.3   402  AGS402      0.1813
     15  C4'      -42.0640   54.9130   23.3810 C.3   402  AGS402      0.1821
     16  O4'      -42.4470   55.0980   22.0130 O.3   402  AGS402     -0.3135
     17  C3'      -43.1680   54.1950   24.0560 C.3   402  AGS402      0.2184
     18  O3'      -44.0520   55.1070   24.6030 O.3   402  AGS402     -0.2174
     19  C2'      -43.8440   53.4590   22.9270 C.3   402  AGS402      0.2570
     20  O2'      -45.2170   53.0080   23.2070 O.3   402  AGS402     -0.2130
     21  C1'      -43.6830   54.4590   21.7680 C.3   402  AGS402      0.3186
     22  N9       -43.5490   53.7850   20.4590 N.pl3 402  AGS402     -0.1439
     23  C8       -42.4270   53.2730   19.7710 C.3   402  AGS402      0.3377
     24  N7       -42.6200   52.7270   18.5670 N.2   402  AGS402     -0.2095
     25  C5       -43.9900   52.8980   18.4490 C.2   402  AGS402      0.2526
     26  C6       -44.9150   52.5300   17.4370 C.2   402  AGS402      0.4393
     27  N6       -44.4470   51.8890   16.2170 N.pl3 402  AGS402      0.2180
     28  N1       -46.2860   52.8260   17.6110 N.2   402  AGS402      0.0021
     29  C2       -46.7330   53.4440   18.7790 C.3   402  AGS402      0.5254
     30  N3       -45.9600   53.8460   19.8260 N.2   402  AGS402     -0.0055
     31  C4       -44.5860   53.5150   19.6180 C.2   402  AGS402      0.3518
@<TRIPOS>BOND
     1    27    26    1
     2    26    28    2
     3    26    25    1
     4    28    29    1
     5    25    24    2
     6    25    31    1
     7    24    23    1
     8    29    30    1
     9    31    30    2
    10    31    22    1
    11    23    22    1
    12    22    21    1
    13     6     5    2
    14    10     9    2
    15    21    16    1
    16    21    19    1
    17    16    15    1
    18     7     5    1
    19     5    12    1
    20     5     8    1
    21    12     9    1
    22     9    13    1
    23     9    11    1
    24    13    14    1
    25    19    20    1
    26    19    17    1
    27     4     1    2
    28    15    14    1
    29    15    17    1
    30     8     1    1
    31    17    18    1
    32     1     3    1
    33     1     2    1
