@<TRIPOS>MOLECULE
1nm1_ATP_A_1.pdb
 31 33 0 0 0
SMALL
GASTEIGER

@<TRIPOS>ATOM
      1  PG        14.2070   -0.0900   14.9750 P.3   401  ATP401      0.5373
      2  O1G       12.9460   -0.2450   15.7160 O.3   401  ATP401     -0.1143
      3  O2G       15.5040   -0.1410   15.7370 O.3   401  ATP401     -0.1143
      4  O3G       14.4140   -1.1640   13.9180 O.2   401  ATP401     -0.2221
      5  PB        14.9070    2.2290   13.2860 P.3   401  ATP401      0.2277
      6  O1B       16.3240    1.9310   13.0850 O.3   401  ATP401     -0.4368
      7  O2B       14.4270    2.4050   11.9250 O.2   401  ATP401     -0.5168
      8  O3B       14.0530    1.2820   14.1740 O.3   401  ATP401     -0.2258
      9  PA        15.4530    4.8440   14.5100 P.3   401  ATP401      0.2189
     10  O1A       16.3350    4.6890   15.7150 O.3   401  ATP401     -0.4371
     11  O2A       16.1370    5.2980   13.2990 O.2   401  ATP401     -0.5170
     12  O3A       14.6610    3.4990   14.2270 O.3   401  ATP401     -0.2700
     13  O5'       14.2780    5.8000   14.8820 O.3   401  ATP401     -0.3112
     14  C5'       13.2150    6.2860   14.0310 C.3   401  ATP401      0.1813
     15  C4'       12.1580    6.8860   14.9200 C.3   401  ATP401      0.1821
     16  O4'       12.7790    7.9130   15.7440 O.3   401  ATP401     -0.3135
     17  C3'       10.9720    7.5070   14.1550 C.3   401  ATP401      0.2184
     18  O3'        9.7060    7.2660   14.7930 O.3   401  ATP401     -0.2174
     19  C2'       11.3700    8.9850   14.2400 C.3   401  ATP401      0.2570
     20  O2'       10.2700    9.8960   14.1400 O.3   401  ATP401     -0.2130
     21  C1'       12.0700    9.0970   15.6230 C.3   401  ATP401      0.3186
     22  N9        12.8770   10.2930   15.7950 N.pl3 401  ATP401     -0.1439
     23  C8        13.9260   10.7280   15.0600 C.3   401  ATP401      0.3377
     24  N7        14.3970   11.8920   15.5260 N.2   401  ATP401     -0.2095
     25  C5        13.5920   12.2140   16.5960 C.2   401  ATP401      0.2526
     26  C6        13.5610   13.3010   17.5140 C.2   401  ATP401      0.4393
     27  N6        14.3720   14.3600   17.4700 N.pl3 401  ATP401      0.2180
     28  N1        12.6140   13.3310   18.5180 N.2   401  ATP401      0.0021
     29  C2        11.7260   12.2530   18.6140 C.3   401  ATP401      0.5254
     30  N3        11.6790   11.2100   17.8100 N.2   401  ATP401     -0.0055
     31  C4        12.6600   11.2230   16.8160 C.2   401  ATP401      0.3518
@<TRIPOS>BOND
     1     7     5    2
     2     6     5    1
     3     5     8    1
     4     5    12    1
     5    11     9    2
     6     4     1    2
     7    14    13    1
     8    14    15    1
     9    20    19    1
    10    17    19    1
    11    17    18    1
    12    17    15    1
    13     8     1    1
    14    12     9    1
    15    19    21    1
    16     9    13    1
    17     9    10    1
    18    15    16    1
    19     1     2    1
    20     1     3    1
    21    23    24    1
    22    23    22    1
    23    24    25    2
    24    21    16    1
    25    21    22    1
    26    22    31    1
    27    25    31    1
    28    25    26    1
    29    31    30    2
    30    27    26    1
    31    26    28    2
    32    30    29    1
    33    28    29    1
