@<TRIPOS>MOLECULE
1nm5_NAD_A_1.pdb
 44 48 0 0 0
SMALL
GASTEIGER

@<TRIPOS>ATOM
      1  PA        -7.7410    6.2400   26.6800 P.3   400  NAD400      0.2189
      2  O1A       -7.0970    5.0490   27.2780 O.3   400  NAD400     -0.4371
      3  O2A       -7.0400    7.5140   27.1720 O.2   400  NAD400     -0.5170
      4  O5B       -9.3320    6.2630   26.9400 O.3   400  NAD400     -0.3112
      5  C5B      -10.1380    5.2110   26.4660 C.3   400  NAD400      0.1813
      6  C4B      -11.3800    5.6720   25.6950 C.3   400  NAD400      0.1821
      7  O4B      -12.4250    6.0940   26.5680 O.3   400  NAD400     -0.3135
      8  C3B      -11.1390    6.8190   24.7090 C.3   400  NAD400      0.2184
      9  O3B      -11.3390    6.3720   23.3930 O.3   400  NAD400     -0.2174
     10  C2B      -12.1670    7.8810   25.0840 C.3   400  NAD400      0.2570
     11  O2B      -12.8080    8.4780   23.9800 O.3   400  NAD400     -0.2130
     12  C1B      -13.1700    7.0820   25.8920 C.3   400  NAD400      0.3186
     13  N9A      -13.9390    7.9040   26.8250 N.pl3 400  NAD400     -0.1439
     14  C8A      -13.4830    8.8250   27.7230 C.3   400  NAD400      0.3377
     15  N7A      -14.5520    9.3200   28.3880 N.2   400  NAD400     -0.2095
     16  C5A      -15.6750    8.7320   27.9170 C.2   400  NAD400      0.2526
     17  C6A      -17.0280    8.8630   28.2310 C.2   400  NAD400      0.4393
     18  N6A      -17.4230    9.7150   29.1690 N.pl3 400  NAD400      0.2180
     19  N1A      -17.9750    8.1020   27.5710 N.2   400  NAD400      0.0021
     20  C2A      -17.5690    7.2190   26.5940 C.3   400  NAD400      0.5254
     21  N3A      -16.2210    7.0890   26.2880 N.2   400  NAD400     -0.0055
     22  C4A      -15.2960    7.8350   26.9380 C.2   400  NAD400      0.3518
     23  O3        -7.6660    6.2440   25.0850 O.3   400  NAD400     -0.2703
     24  PN        -6.5800    5.3820   24.3180 P.3   400  NAD400      0.2189
     25  O1N       -6.9070    3.9550   24.5190 O.2   400  NAD400     -0.5170
     26  O2N       -5.2200    5.8580   24.6480 O.3   400  NAD400     -0.4371
     27  O5D       -6.9130    5.7250   22.7900 O.3   400  NAD400     -0.3112
     28  C5D       -7.5620    6.9120   22.3850 C.3   400  NAD400      0.1813
     29  C4D       -7.1310    7.2510   20.9650 C.3   400  NAD400      0.1799
     30  O4D       -5.8300    7.8060   21.0200 O.3   400  NAD400     -0.3327
     31  C3D       -7.0710    6.0240   20.0610 C.3   400  NAD400      0.2158
     32  O3D       -7.9250    6.1550   18.9560 O.3   400  NAD400     -0.2175
     33  C2D       -5.6220    5.9100   19.6200 C.3   400  NAD400      0.2309
     34  O2D       -5.4870    5.6630   18.2370 O.3   400  NAD400     -0.2158
     35  C1D       -4.9940    7.2420   20.0210 C.3   400  NAD400      0.2263
     36  N1N       -3.6020    7.0290   20.4880 N.pl3 400  NAD400     -0.2787
     37  C2N       -2.5710    7.4850   19.7090 C.3   400  NAD400      0.1244
     38  C3N       -1.2480    7.2990   20.1090 C.2   400  NAD400      0.0544
     39  C7N       -0.1340    7.8240   19.2340 C.2   400  NAD400      0.2818
     40  O7N       -0.4790    8.4800   18.0340 O.2   400  NAD400     -0.2670
     41  N7N        1.1550    7.6750   19.5590 N.am  400  NAD400     -0.0839
     42  C4N       -0.9960    6.6340   21.3070 C.2   400  NAD400      0.0033
     43  C5N       -2.0430    6.1670   22.0950 C.2   400  NAD400      0.0157
     44  C6N       -3.3510    6.3730   21.6700 C.2   400  NAD400      0.0633
@<TRIPOS>BOND
     1    40    39    2
     2    34    33    1
     3    32    31    1
     4    39    41   am
     5    39    38    1
     6    33    35    1
     7    33    31    1
     8    37    38    1
     9    37    36    1
    10    35    36    1
    11    35    30    1
    12    31    29    1
    13    38    42    2
    14    36    44    1
    15    29    30    1
    16    29    28    1
    17    42    43    1
    18    44    43    2
    19    28    27    1
    20    27    24    1
    21     9     8    1
    22    11    10    1
    23    24    25    2
    24    24    26    1
    25    24    23    1
    26     8    10    1
    27     8     6    1
    28    10    12    1
    29    23     1    1
    30     6     5    1
    31     6     7    1
    32    12     7    1
    33    12    13    1
    34    21    20    1
    35    21    22    2
    36     5     4    1
    37    20    19    1
    38     1     4    1
    39     1     3    2
    40     1     2    1
    41    13    22    1
    42    13    14    1
    43    22    16    1
    44    19    17    2
    45    14    15    1
    46    16    17    1
    47    16    15    2
    48    17    18    1
