@<TRIPOS>MOLECULE
1nm5_NAP_C_1.pdb
 48 52 0 0 0
SMALL
GASTEIGER

@<TRIPOS>ATOM
      1  PA       -25.2050  -36.5890    7.7900 P.3   300  NAP300      0.2189
      2  O1A      -26.5330  -37.1440    8.0290 O.2   300  NAP300     -0.5170
      3  O2A      -24.1780  -37.4790    8.4900 O.3   300  NAP300     -0.4371
      4  O5B      -24.8760  -36.4650    6.2390 O.3   300  NAP300     -0.3112
      5  C5B      -23.7940  -35.6550    5.8580 C.3   300  NAP300      0.1813
      6  C4B      -23.5700  -35.7520    4.3650 C.3   300  NAP300      0.1820
      7  O4B      -22.4880  -34.9260    3.9750 O.3   300  NAP300     -0.3136
      8  C3B      -23.2090  -37.1850    3.9820 C.3   300  NAP300      0.2157
      9  O3B      -24.3080  -37.8420    3.3780 O.3   300  NAP300     -0.2175
     10  C2B      -22.0010  -37.0520    3.0690 C.3   300  NAP300      0.2314
     11  O2B      -22.1970  -37.7760    1.8730 O.3   300  NAP300     -0.2630
     12  C1B      -21.8440  -35.5310    2.8830 C.3   300  NAP300      0.3158
     13  N9A      -20.4380  -35.1160    2.8200 N.pl3 300  NAP300     -0.1439
     14  C8A      -19.3820  -35.6120    3.5340 C.3   300  NAP300      0.3377
     15  N7A      -18.2590  -34.9660    3.1260 N.2   300  NAP300     -0.2095
     16  C5A      -18.5810  -34.0690    2.1740 C.2   300  NAP300      0.2526
     17  C6A      -17.8280  -33.1590    1.4430 C.2   300  NAP300      0.4393
     18  N6A      -16.5510  -32.9380    1.7320 N.pl3 300  NAP300      0.2180
     19  N1A      -18.4520  -32.3580    0.5140 N.2   300  NAP300      0.0021
     20  C2A      -19.8200  -32.4650    0.3240 C.3   300  NAP300      0.5254
     21  N3A      -20.5580  -33.3600    1.0600 N.2   300  NAP300     -0.0055
     22  C4A      -19.9480  -34.1540    1.9700 C.2   300  NAP300      0.3518
     23  O3       -25.1490  -35.0350    8.2050 O.3   300  NAP300     -0.2703
     24  PN       -26.3160  -34.2050    8.9160 P.3   300  NAP300      0.2189
     25  O1N      -27.5150  -34.1790    8.0850 O.2   300  NAP300     -0.5170
     26  O2N      -25.7210  -32.8820    9.2230 O.3   300  NAP300     -0.4371
     27  O5D      -26.7170  -35.0660   10.2110 O.3   300  NAP300     -0.3112
     28  C5D      -25.8780  -35.2260   11.3320 C.3   300  NAP300      0.1813
     29  C4D      -26.0130  -36.6450   11.8770 C.3   300  NAP300      0.1799
     30  O4D      -24.9920  -36.9300   12.8280 O.3   300  NAP300     -0.3327
     31  C3D      -27.3450  -36.8780   12.5790 C.3   300  NAP300      0.2158
     32  O3D      -27.8510  -38.1540   12.2700 O.3   300  NAP300     -0.2175
     33  C2D      -26.9990  -36.8520   14.0400 C.3   300  NAP300      0.2309
     34  O2D      -27.8420  -37.6880   14.7800 O.3   300  NAP300     -0.2158
     35  C1D      -25.5660  -37.3690   14.0460 C.3   300  NAP300      0.2263
     36  N1N      -24.8160  -36.8870   15.2210 N.pl3 300  NAP300     -0.2787
     37  C2N      -24.8490  -35.5510   15.5220 C.3   300  NAP300      0.1244
     38  C3N      -24.1570  -35.0890   16.6330 C.2   300  NAP300      0.0544
     39  C7N      -24.2320  -33.6370   16.9740 C.2   300  NAP300      0.2818
     40  O7N      -24.1450  -33.2580   18.3130 O.2   300  NAP300     -0.2670
     41  N7N      -24.3840  -32.7450   15.9940 N.am  300  NAP300     -0.0839
     42  C4N      -23.4260  -35.9700   17.4270 C.2   300  NAP300      0.0033
     43  C5N      -23.4030  -37.3300   17.1040 C.2   300  NAP300      0.0157
     44  C6N      -24.1000  -37.7820   15.9870 C.2   300  NAP300      0.0633
     45  P2B      -21.0430  -37.9350    0.7680 P.3   300  NAP300      0.5328
     46  O1X      -21.6150  -38.7630   -0.3060 O.2   300  NAP300     -0.2224
     47  O2X      -20.5980  -36.5870    0.1960 O.3   300  NAP300     -0.1145
     48  O3X      -19.8190  -38.6490    1.3440 O.3   300  NAP300     -0.1145
@<TRIPOS>BOND
     1    46    45    2
     2    47    45    1
     3    20    19    1
     4    20    21    1
     5    19    17    2
     6    45    48    1
     7    45    11    1
     8    21    22    2
     9    17    18    1
    10    17    16    1
    11    11    10    1
    12    22    16    1
    13    22    13    1
    14    16    15    2
    15    13    12    1
    16    13    14    1
    17    12    10    1
    18    12     7    1
    19    10     8    1
    20    15    14    1
    21     9     8    1
    22     7     6    1
    23     8     6    1
    24     6     5    1
    25     5     4    1
    26     4     1    1
    27     1     2    2
    28     1    23    1
    29     1     3    1
    30    25    24    2
    31    23    24    1
    32    24    26    1
    33    24    27    1
    34    27    28    1
    35    28    29    1
    36    29    31    1
    37    29    30    1
    38    32    31    1
    39    31    33    1
    40    30    35    1
    41    33    35    1
    42    33    34    1
    43    35    36    1
    44    36    37    1
    45    36    44    1
    46    37    38    1
    47    44    43    2
    48    41    39   am
    49    38    39    1
    50    38    42    2
    51    39    40    2
    52    43    42    1
