@<TRIPOS>MOLECULE
1nm6_L86_A_1.pdb
 36 39 0 0 0
SMALL
GASTEIGER

@<TRIPOS>ATOM
      1  C8        19.7500  -14.6900   25.8430 C.ar  247  L86247     -0.0042
      2  C2        19.8720  -16.0970   25.4690 C.ar  247  L86247     -0.0202
      3  C10       21.1040  -16.6450   24.8970 C.ar  247  L86247     -0.0042
      4  C4        22.2150  -15.7450   24.6160 C.ar  247  L86247     -0.0003
      5  C5        22.0730  -14.3280   24.9530 C.ar  247  L86247     -0.0000
      6  C6        20.8640  -13.7860   25.5750 C.ar  247  L86247     -0.0003
      7  C11       18.6660  -17.0280   25.5720 C.3   247  L86247      0.0529
      8  C1        18.1190  -17.3620   24.1480 C.3   247  L86247      0.1351
      9  N18       17.4830  -16.1590   23.5540 N.2   247  L86247     -0.2166
     10  C21       18.1680  -15.4220   22.5500 C.1   247  L86247      0.0864
     11  C22       17.6550  -14.1290   22.0720 C.2   247  L86247      0.3171
     12  N23       18.4010  -13.4040   21.1440 N.am  247  L86247     -0.2212
     13  C24       19.7030  -13.7840   20.6150 C.2   247  L86247      0.1344
     14  C25       20.1550  -15.0150   21.1180 C.2   247  L86247      0.1363
     15  N3        19.4310  -15.7840   22.0220 N.2   247  L86247     -0.1866
     16  O28       16.5820  -13.7110   22.5080 O.2   247  L86247     -0.2582
     17 CL2        20.5490  -12.9380   19.4210 Cl    247  L86247     -0.0639
     18  C33       17.8220  -12.1540   20.6190 C.3   247  L86247      0.2222
     19  C34       16.4000  -12.3880   20.1360 C.1   247  L86247      0.1477
     20  N37       15.5600  -11.3670   20.3840 N.2   247  L86247     -0.2000
     21  O38       16.1010  -13.4250   19.5430 O.2   247  L86247     -0.2253
     22  C39       14.1190  -11.5080   20.0730 C.3   247  L86247      0.1636
     23  C40       13.2220  -11.4900   21.3090 C.ar  247  L86247     -0.0010
     24  C43       12.3980  -12.6360   21.6430 C.ar  247  L86247     -0.0228
     25  C44       11.5260  -12.6240   22.7980 C.ar  247  L86247     -0.0045
     26  C45       11.4830  -11.4190   23.6050 C.ar  247  L86247     -0.0003
     27  C15       13.1860  -10.2860   22.1300 C.ar  247  L86247     -0.0026
     28  C9        12.4100  -13.8930   20.7730 C.3   247  L86247      0.0449
     29  C50       12.3020  -10.2670   23.2760 C.ar  247  L86247     -0.0003
     30  C3        13.6320  -14.7580   21.1300 C.3   247  L86247      0.0934
     31  C7        17.0410  -18.4520   24.2150 C.3   247  L86247      0.1140
     32  N2        16.6590  -19.0130   22.8870 N.3   247  L86247     -0.2159
     33  N5        13.6570  -15.9310   20.2380 N.3   247  L86247     -0.2176
     34  C12       14.9430  -16.6860   20.2790 C.3   247  L86247      0.0902
     35  C13       15.1150  -17.4590   21.6010 C.3   247  L86247      0.0376
     36  C14       16.4310  -18.2960   21.6030 C.3   247  L86247      0.0903
@<TRIPOS>BOND
     1    17    13    1
     2    21    19    2
     3    22    20    1
     4    22    23    1
     5    19    20    2
     6    19    18    1
     7    33    34    1
     8    33    30    1
     9    34    35    1
    10    13    14    2
    11    13    12    1
    12    18    12    1
    13    28    30    1
    14    28    24    1
    15    14    15    1
    16    12    11   am
    17    23    24   ar
    18    23    27   ar
    19    35    36    1
    20    36    32    1
    21    24    25   ar
    22    15    10    2
    23    11    16    2
    24    11    10    1
    25    27    29   ar
    26    10     9    2
    27    25    26   ar
    28    32    31    1
    29    29    26   ar
    30     9     8    1
    31     8    31    1
    32     8     7    1
    33     4     3   ar
    34     4     5   ar
    35     3     2   ar
    36     5     6   ar
    37     2     7    1
    38     2     1   ar
    39     6     1   ar
