@<TRIPOS>MOLECULE
1nm9_AGL_A_1.pdb
 10 10 0 0 0
SMALL
GASTEIGER

@<TRIPOS>ATOM
      1  C1        11.1870   43.1540   20.5520 C.3   505  AGL505      0.1775
      2  C2        10.8970   43.3880   19.0720 C.3   505  AGL505      0.2130
      3  C3        10.3550   44.8030   18.8260 C.3   505  AGL505      0.2044
      4  C4         9.1820   45.0810   19.7850 C.3   505  AGL505      0.1517
      5  C5         9.6310   44.8520   21.2430 C.3   505  AGL505      0.1355
      6  C6         8.5650   45.1530   22.3000 C.3   505  AGL505      0.0337
      7  O2        12.0740   43.1360   18.3140 O.3   505  AGL505     -0.2177
      8  O3         9.9530   44.9230   17.4680 O.3   505  AGL505     -0.2187
      9  N4         8.5670   46.3850   19.5450 N.3   505  AGL505     -0.1276
     10  O5        10.0220   43.4670   21.3450 O.3   505  AGL505     -0.3519
@<TRIPOS>BOND
     1     8     3    1
     2     7     2    1
     3     3     2    1
     4     3     4    1
     5     2     1    1
     6     9     4    1
     7     4     5    1
     8     1    10    1
     9     5    10    1
    10     5     6    1
