@<TRIPOS>MOLECULE
1nm9_GLC_A_1.pdb
 12 12 0 0 0
SMALL
GASTEIGER

@<TRIPOS>ATOM
      1  C1        16.0550   42.6530   22.7530 C.3   506  GLC506      0.3024
      2  C2        15.9840   42.6040   21.2190 C.3   506  GLC506      0.2434
      3  C3        14.7380   43.3360   20.6930 C.3   506  GLC506      0.2199
      4  C4        13.4810   42.8840   21.4440 C.3   506  GLC506      0.2144
      5  C5        13.7260   43.0550   22.9530 C.3   506  GLC506      0.1836
      6  C6        12.5290   42.7130   23.8450 C.3   506  GLC506      0.2142
      7  O1        16.3840   43.9580   23.2090 O.3   506  GLC506     -0.1869
      8  O2        17.1570   43.1840   20.6860 O.3   506  GLC506     -0.2148
      9  O3        14.5830   43.1910   19.2940 O.3   506  GLC506     -0.2174
     10  O4        12.3600   43.6300   20.9950 O.3   506  GLC506     -0.2176
     11  O5        14.8270   42.2420   23.3280 O.3   506  GLC506     -0.3236
     12  O6        11.9980   41.4520   23.4960 O.3   506  GLC506     -0.2176
@<TRIPOS>BOND
     1     9     3    1
     2     8     2    1
     3     3     2    1
     4     3     4    1
     5    10     4    1
     6     2     1    1
     7     4     5    1
     8     1     7    1
     9     1    11    1
    10     5    11    1
    11     5     6    1
    12    12     6    1
