@<TRIPOS>MOLECULE
1nm9_HMC_A_1.pdb
 11 11 0 0 0
SMALL
GASTEIGER

@<TRIPOS>ATOM
      1  C1         7.4460   46.5330   18.9420 C.3   504  HMC504      0.0612
      2  C2         6.3410   47.5240   19.3430 C.3   504  HMC504      0.1893
      3  O2         6.8830   48.8070   19.5870 O.3   504  HMC504     -0.2200
      4  C3         5.5850   46.9330   20.5440 C.3   504  HMC504      0.2165
      5  O3         4.7680   47.8830   21.2400 O.3   504  HMC504     -0.2173
      6  C4         4.7780   45.7230   20.0510 C.3   504  HMC504      0.2052
      7  O4         4.5590   44.7940   21.1110 O.3   504  HMC504     -0.2157
      8  C5         5.4630   45.0090   18.9040 C.2   504  HMC504      0.0167
      9  C6         6.6580   45.3660   18.3800 C.2   504  HMC504     -0.0269
     10  C7         4.7190   43.8700   18.2630 C.3   504  HMC504      0.2066
     11  O7         3.9050   44.5170   17.2910 O.3   504  HMC504     -0.2155
@<TRIPOS>BOND
     1    11    10    1
     2    10     8    1
     3     9     8    2
     4     9     1    1
     5     8     6    1
     6     1     2    1
     7     2     3    1
     8     2     4    1
     9     6     4    1
    10     6     7    1
    11     4     5    1
