@<TRIPOS>MOLECULE
1nma_MAN_N_1.pdb
 11 11 0 0 0
SMALL
GASTEIGER

@<TRIPOS>ATOM
      1  C1        54.2050   51.3250   34.9520 C.3   473  MAN473      0.1777
      2  C2        53.8340   50.8600   33.5530 C.3   473  MAN473      0.2141
      3  C3        52.5000   50.2000   33.5450 C.3   473  MAN473      0.2173
      4  C4        52.5510   49.0340   34.4900 C.3   473  MAN473      0.2142
      5  C5        52.8530   49.5030   35.9430 C.3   473  MAN473      0.1810
      6  C6        52.9620   48.2870   36.9190 C.3   473  MAN473      0.2141
      7  O2        54.7830   49.8750   33.1490 O.3   473  MAN473     -0.2176
      8  O3        52.0410   49.7290   32.2850 O.3   473  MAN473     -0.2175
      9  O4        51.2840   48.4280   34.3940 O.3   473  MAN473     -0.2176
     10  O5        54.1050   50.2410   35.9250 O.3   473  MAN473     -0.3481
     11  O6        54.0090   48.4770   37.8470 O.3   473  MAN473     -0.2176
@<TRIPOS>BOND
     1     8     3    1
     2     7     2    1
     3     3     2    1
     4     3     4    1
     5     2     1    1
     6     9     4    1
     7     4     5    1
     8     1    10    1
     9    10     5    1
    10     5     6    1
    11     6    11    1
