@<TRIPOS>MOLECULE
1nma_BMA_N_1.pdb
 11 11 0 0 0
SMALL
GASTEIGER

@<TRIPOS>ATOM
      1  C1        50.5620   57.9060   39.1140 C.3   471  BMA471      0.1777
      2  C2        51.6640   57.1660   38.3640 C.3   471  BMA471      0.2141
      3  C3        51.3520   55.6970   38.1460 C.3   471  BMA471      0.2173
      4  C4        50.8120   55.0380   39.4280 C.3   471  BMA471      0.2142
      5  C5        49.6690   55.8830   40.0540 C.3   471  BMA471      0.1810
      6  C6        49.1060   55.3040   41.3830 C.3   471  BMA471      0.2141
      7  O2        52.8480   57.2510   39.1000 O.3   471  BMA471     -0.2176
      8  O3        52.5630   54.9930   37.7380 O.3   471  BMA471     -0.2175
      9  O4        50.3080   53.7560   39.0690 O.3   471  BMA471     -0.2176
     10  O5        50.1570   57.2250   40.3040 O.3   471  BMA471     -0.3481
     11  O6        47.6980   55.5000   41.4470 O.3   471  BMA471     -0.2176
@<TRIPOS>BOND
     1     8     3    1
     2     3     2    1
     3     3     4    1
     4     2     7    1
     5     2     1    1
     6     9     4    1
     7     1    10    1
     8     4     5    1
     9     5    10    1
    10     5     6    1
    11     6    11    1
