@<TRIPOS>MOLECULE
1nmb_BMA_N_1.pdb
 11 11 0 0 0
SMALL
GASTEIGER

@<TRIPOS>ATOM
      1  C1        49.9520   57.4530   38.3640 C.3   471  BMA471      0.1777
      2  C2        51.0650   56.6910   37.6430 C.3   471  BMA471      0.2141
      3  C3        50.7460   55.2680   37.3960 C.3   471  BMA471      0.2173
      4  C4        50.2400   54.7140   38.7580 C.3   471  BMA471      0.2142
      5  C5        49.1340   55.5300   39.4130 C.3   471  BMA471      0.1810
      6  C6        48.4390   55.0140   40.7710 C.3   471  BMA471      0.2141
      7  O2        52.2280   56.6300   38.4880 O.3   471  BMA471     -0.2176
      8  O3        51.9830   54.6400   36.9200 O.3   471  BMA471     -0.2175
      9  O4        49.6510   53.4910   38.5560 O.3   471  BMA471     -0.2176
     10  O5        49.7030   56.8400   39.5930 O.3   471  BMA471     -0.3481
     11  O6        47.0020   54.8080   40.4880 O.3   471  BMA471     -0.2176
@<TRIPOS>BOND
     1     8     3    1
     2     3     2    1
     3     3     4    1
     4     2     1    1
     5     2     7    1
     6     1    10    1
     7     9     4    1
     8     4     5    1
     9     5    10    1
    10     5     6    1
    11    11     6    1
