@<TRIPOS>MOLECULE
1nmb_MAN_N_1.pdb
 11 11 0 0 0
SMALL
GASTEIGER

@<TRIPOS>ATOM
      1  C1        51.9600   53.6770   35.8730 C.3   472  MAN472      0.1777
      2  C2        53.1880   52.8630   35.8020 C.3   472  MAN472      0.2141
      3  C3        54.3320   53.6840   35.1380 C.3   472  MAN472      0.2173
      4  C4        53.9560   54.1540   33.7040 C.3   472  MAN472      0.2142
      5  C5        52.7680   55.0130   33.9880 C.3   472  MAN472      0.1810
      6  C6        52.1510   55.6520   32.7880 C.3   472  MAN472      0.2141
      7  O2        52.7200   51.7810   34.9300 O.3   472  MAN472     -0.2176
      8  O3        55.5610   53.0100   34.9860 O.3   472  MAN472     -0.2175
      9  O4        55.0410   54.7760   32.9460 O.3   472  MAN472     -0.2176
     10  O5        51.7490   54.2420   34.6250 O.3   472  MAN472     -0.3481
     11  O6        51.1490   56.5350   33.4090 O.3   472  MAN472     -0.2176
@<TRIPOS>BOND
     1     6    11    1
     2     6     5    1
     3     9     4    1
     4     4     5    1
     5     4     3    1
     6     5    10    1
     7    10     1    1
     8     7     2    1
     9     8     3    1
    10     3     2    1
    11     2     1    1
