@<TRIPOS>MOLECULE
1nmd_ATP_A_1.pdb
 31 33 0 0 0
SMALL
GASTEIGER

@<TRIPOS>ATOM
      1  PG        14.2720   -1.5860   14.9420 P.3   401  ATP401      0.5373
      2  O1G       13.1140   -1.8470   15.7900 O.3   401  ATP401     -0.1143
      3  O2G       15.6630   -1.5000   15.5450 O.3   401  ATP401     -0.1143
      4  O3G       14.4450   -2.6510   13.8890 O.2   401  ATP401     -0.2221
      5  PB        14.7680    0.7190   13.2210 P.3   401  ATP401      0.2277
      6  O1B       16.1770    0.4360   12.9350 O.3   401  ATP401     -0.4368
      7  O2B       14.1890    0.9060   11.9030 O.2   401  ATP401     -0.5168
      8  O3B       13.9860   -0.2360   14.1650 O.3   401  ATP401     -0.2258
      9  PA        15.4220    3.3090   14.4770 P.3   401  ATP401      0.2189
     10  O1A       16.3080    3.1180   15.6700 O.3   401  ATP401     -0.4371
     11  O2A       16.1330    3.8140   13.2890 O.2   401  ATP401     -0.5170
     12  O3A       14.5880    1.9910   14.1610 O.3   401  ATP401     -0.2700
     13  O5'       14.2550    4.2460   14.8820 O.3   401  ATP401     -0.3112
     14  C5'       13.1930    4.7470   14.0610 C.3   401  ATP401      0.1813
     15  C4'       12.1550    5.3580   14.9630 C.3   401  ATP401      0.1821
     16  O4'       12.7840    6.3930   15.7710 O.3   401  ATP401     -0.3135
     17  C3'       10.9750    5.9770   14.2020 C.3   401  ATP401      0.2184
     18  O3'        9.7060    5.7490   14.8500 O.3   401  ATP401     -0.2174
     19  C2'       11.3740    7.4500   14.2570 C.3   401  ATP401      0.2570
     20  O2'       10.2770    8.3520   14.1500 O.3   401  ATP401     -0.2130
     21  C1'       12.0770    7.5870   15.6290 C.3   401  ATP401      0.3186
     22  N9        12.8730    8.7960   15.7990 N.pl3 401  ATP401     -0.1439
     23  C8        13.8960    9.2680   15.0460 C.3   401  ATP401      0.3377
     24  N7        14.3530   10.4260   15.5270 N.2   401  ATP401     -0.2095
     25  C5        13.5740   10.7050   16.6300 C.2   401  ATP401      0.2526
     26  C6        13.5370   11.7740   17.5730 C.2   401  ATP401      0.4393
     27  N6        14.3350   12.8260   17.5650 N.pl3 401  ATP401      0.2180
     28  N1        12.6200   11.7600   18.5930 N.2   401  ATP401      0.0021
     29  C2        11.7420   10.6670   18.6630 C.3   401  ATP401      0.5254
     30  N3        11.7050    9.6350   17.8290 N.2   401  ATP401     -0.0055
     31  C4        12.6540    9.7010   16.8270 C.2   401  ATP401      0.3518
@<TRIPOS>BOND
     1     7     5    2
     2     6     5    1
     3     5    12    1
     4     5     8    1
     5    11     9    2
     6     4     1    2
     7    14    13    1
     8    14    15    1
     9    20    19    1
    10    12     9    1
    11     8     1    1
    12    17    19    1
    13    17    18    1
    14    17    15    1
    15    19    21    1
    16     9    13    1
    17     9    10    1
    18     1     3    1
    19     1     2    1
    20    15    16    1
    21    23    24    1
    22    23    22    1
    23    24    25    2
    24    21    16    1
    25    21    22    1
    26    22    31    1
    27    25    31    1
    28    25    26    1
    29    31    30    2
    30    27    26    1
    31    26    28    2
    32    30    29    1
    33    28    29    1
