@<TRIPOS>MOLECULE
1nme_158_A_1.pdb
 13 12 0 0 0
SMALL
GASTEIGER

@<TRIPOS>ATOM
      1  O13       36.6690   91.7870   19.8100 O.2   9001  1589001    -0.2723
      2  C5        37.1860   92.6370   19.0900 C.2   9001  1589001     0.2536
      3  C6        38.5370   93.2210   19.4060 C.3   9001  1589001     0.1551
      4  S7        38.3590   94.3840   20.7680 S.3   9001  1589001    -0.0718
      5  N4        36.6140   93.1170   17.9990 N.am  9001  1589001    -0.1983
      6  C3        35.2600   92.7440   17.6230 C.3   9001  1589001     0.1635
      7  C2        35.2980   91.6970   16.5310 C.2   9001  1589001     0.1713
      8  O8        34.3110   91.4610   15.8510 O.2   9001  1589001    -0.2942
      9  C1        36.5680   90.9400   16.2660 C.3   9001  1589001     0.0741
     10  C9        34.5060   94.0240   17.2430 C.3   9001  1589001     0.1432
     11  C10       34.0320   94.7710   18.4800 C.2   9001  1589001     0.3671
     12  O11       33.8220   94.1440   19.5460 O.co2 9001  1589001    -0.2456
     13  O12       33.8310   96.0080   18.4190 O.co2 9001  1589001    -0.2456
@<TRIPOS>BOND
     1     8     7    2
     2     9     7    1
     3     7     6    1
     4    10     6    1
     5    10    11    1
     6     6     5    1
     7     5     2   am
     8    13    11   ar
     9    11    12   ar
    10     2     3    1
    11     2     1    2
    12     3     4    1
