@<TRIPOS>MOLECULE
1nme_159_B_1.pdb
 17 17 0 0 0
SMALL
GASTEIGER

@<TRIPOS>ATOM
      1  O5        41.7660   99.8940   23.1920 O.co2 9002  1599002    -0.2404
      2  C12       42.9190   99.4720   23.3050 C.2   9002  1599002     0.3909
      3  O4        43.8570  100.2000   22.9450 O.co2 9002  1599002    -0.2404
      4  C8        43.1470   98.0910   23.8540 C.ar  9002  1599002     0.1199
      5  C9        44.4080   97.5340   23.8760 C.ar  9002  1599002     0.2021
      6  C10       44.6220   96.2520   24.3740 C.ar  9002  1599002     0.0436
      7  C11       43.5510   95.5100   24.8560 C.ar  9002  1599002     0.0232
      8  O3        45.4220   98.2410   23.4220 O.3   9002  1599002    -0.2863
      9  C7        42.0750   97.3420   24.3300 C.ar  9002  1599002     0.0298
     10  C6        42.2680   96.0530   24.8370 C.ar  9002  1599002     0.1240
     11  S2        41.0070   95.2160   25.3880 S.O2  9002  1599002     0.0769
     12  O1        40.1580   96.1540   26.3290 O.2   9002  1599002    -0.1516
     13  O2        41.5130   93.9240   26.1470 O.2   9002  1599002    -0.1516
     14  N1        40.1110   94.7280   24.1510 N.3   9002  1599002    -0.0768
     15  C5        40.6940   93.7780   23.2150 C.3   9002  1599002     0.1279
     16  C4        39.8660   92.5050   23.0720 C.3   9002  1599002     0.0894
     17  S1        38.1030   92.9050   22.8930 S.3   9002  1599002    -0.0805
@<TRIPOS>BOND
     1    17    16    1
     2     3     2   ar
     3    16    15    1
     4     1     2   ar
     5    15    14    1
     6     2     4    1
     7     8     5    1
     8     4     5   ar
     9     4     9   ar
    10     5     6   ar
    11    14    11    1
    12     9    10   ar
    13     6     7   ar
    14    10     7   ar
    15    10    11    1
    16    11    13    2
    17    11    12    2
