@<TRIPOS>MOLECULE
1nml_HEM_A_1.pdb
 43 50 0 0 0
SMALL
GASTEIGER

@<TRIPOS>ATOM
      1  CHA       45.9360   15.7240   25.4460 C.2   401  HEM401      0.0000
      2  CHB       49.4420   14.4690   28.4960 C.2   401  HEM401      0.0000
      3  CHC       46.2800   11.5600   30.5840 C.2   401  HEM401      0.0000
      4  CHD       43.5060   11.8140   26.7060 C.2   401  HEM401      0.0000
      5  C1A       47.1600   15.7120   26.0820 C.2   401  HEM401      0.0000
      6  C2A       48.3320   16.5560   25.8260 C.2   401  HEM401      0.0000
      7  C3A       49.3500   16.1210   26.5990 C.2   401  HEM401      0.0000
      8  C4A       48.7970   15.0840   27.4570 C.2   401  HEM401      0.0000
      9  CMA       50.8100   16.6140   26.6460 C.3   401  HEM401      0.0000
     10  CAA       48.3520   17.6940   24.7850 C.3   401  HEM401      0.0000
     11  CBA       49.2240   17.4270   23.5500 C.3   401  HEM401      0.0000
     12  CGA       49.2410   18.5760   22.5560 C.2   401  HEM401      0.0000
     13  O1A       50.2230   18.5560   21.7470 O.co2 401  HEM401      0.0000
     14  O2A       48.3340   19.4090   22.5360 O.co2 401  HEM401      0.0000
     15  C1B       48.8610   13.6320   29.3980 C.ar  401  HEM401      0.0000
     16  C2B       49.4950   13.2230   30.6330 C.ar  401  HEM401      0.0000
     17  C3B       48.5480   12.4820   31.2740 C.ar  401  HEM401      0.0000
     18  C4B       47.4150   12.3540   30.3960 C.ar  401  HEM401      0.0000
     19  CMB       50.9210   13.6350   31.0780 C.3   401  HEM401      0.0000
     20  CAB       48.5790   11.8190   32.6630 C.3   401  HEM401      0.0000
     21  CBB       48.6060   12.8800   33.8020 C.3   401  HEM401      0.0000
     22  C1C       45.2810   11.2730   29.6820 C.2   401  HEM401      0.0000
     23  C2C       44.3200   10.1700   29.7840 C.2   401  HEM401      0.0000
     24  C3C       43.5780   10.1920   28.6610 C.2   401  HEM401      0.0000
     25  C4C       44.0580   11.3030   27.8540 C.2   401  HEM401      0.0000
     26  CMC       44.3050    9.1820   30.9820 C.3   401  HEM401      0.0000
     27  CAC       42.4820    9.2140   28.1700 C.3   401  HEM401      0.0000
     28  CBC       41.2420    8.9300   29.0260 C.3   401  HEM401      0.0000
     29  C1D       43.8220   12.9650   26.0370 C.ar  401  HEM401      0.0000
     30  C2D       43.0570   13.5710   24.9630 C.ar  401  HEM401      0.0000
     31  C3D       43.6680   14.7590   24.6820 C.ar  401  HEM401      0.0000
     32  C4D       44.8960   14.7960   25.4860 C.ar  401  HEM401      0.0000
     33  CMD       41.7620   13.0040   24.3150 C.3   401  HEM401      0.0000
     34  CAD       43.0910   15.7920   23.6590 C.3   401  HEM401      0.0000
     35  CBD       42.6210   16.6430   24.8510 C.3   401  HEM401      0.0000
     36  CGD       42.1040   17.6590   25.7820 C.3   401  HEM401      0.0000
     37  O1D       43.2090   18.2120   25.9830 O.2   401  HEM401      0.0000
     38  O2D       41.4460   17.1370   26.6900 O.2   401  HEM401      0.0000
     39  NA        47.5040   14.8170   27.0630 N.2   401  HEM401      0.0000
     40  NB        47.5870   13.1060   29.2560 N.ar  401  HEM401      0.0000
     41  NC        45.1140   11.9220   28.4860 N.2   401  HEM401      0.0000
     42  ND        44.9520   13.7260   26.3650 N.ar  401  HEM401      0.0000
     43 FE         46.2930   13.3620   27.7490 Fe    401  HEM401      0.0000
@<TRIPOS>BOND
     1    13    12   ar
     2    14    12   ar
     3    12    11    1
     4    11    10    1
     5    34    31    1
     6    34    35    1
     7    33    30    1
     8    31    30   ar
     9    31    32   ar
    10    10     6    1
    11    35    36    1
    12    30    29   ar
    13     1    32    2
    14     1     5    1
    15    32    42   ar
    16    36    37    1
    17    36    38    1
    18     6     5    1
    19     6     7    2
    20    29    42   ar
    21    29     4    2
    22     5    39    2
    23    42    43    1
    24     7     9    1
    25     7     8    1
    26     4    25    1
    27    39     8    1
    28    39    43    1
    29     8     2    2
    30    43    41    1
    31    43    40    1
    32    25    41    2
    33    25    24    1
    34    27    24    1
    35    27    28    1
    36    41    22    1
    37     2    15    1
    38    24    23    2
    39    40    15   ar
    40    40    18   ar
    41    15    16   ar
    42    22    23    1
    43    22     3    2
    44    23    26    1
    45    18     3    1
    46    18    17   ar
    47    16    19    1
    48    16    17   ar
    49    17    20    1
    50    20    21    1
