@<TRIPOS>MOLECULE
1nmm_NAG_B_1.pdb
 15 15 0 0 0
SMALL
GASTEIGER

@<TRIPOS>ATOM
      1  C1         2.6980   -1.5850   17.8530 C.3   403  NAG403      0.2917
      2  C2         1.8680   -2.2870   18.9090 C.3   403  NAG403      0.1871
      3  C3         1.9290   -1.4570   20.2020 C.3   403  NAG403      0.2095
      4  C4         3.3880   -1.2670   20.6380 C.3   403  NAG403      0.2136
      5  C5         4.2170   -0.6300   19.4990 C.3   403  NAG403      0.1835
      6  C6         5.7410   -0.5580   19.7890 C.3   403  NAG403      0.2142
      7  C7        -0.0930   -3.5990   18.1270 C.2   403  NAG403      0.2421
      8  C8        -1.5410   -3.4800   17.6780 C.3   403  NAG403      0.0964
      9  N2         0.4650   -2.4040   18.4490 N.am  403  NAG403     -0.1991
     10  O1         2.6880   -2.3570   16.6900 O.3   403  NAG403     -0.1879
     11  O3         1.1640   -2.1380   21.2320 O.3   403  NAG403     -0.2183
     12  O4         3.4770   -0.4370   21.7860 O.3   403  NAG403     -0.2176
     13  O5         4.0380   -1.4240   18.2940 O.3   403  NAG403     -0.3242
     14  O6         6.3100   -1.8590   20.0070 O.3   403  NAG403     -0.2176
     15  O7         0.4740   -4.6780   18.1760 O.2   403  NAG403     -0.2733
@<TRIPOS>BOND
     1    10     1    1
     2     8     7    1
     3     1    13    1
     4     1     2    1
     5     7    15    2
     6     7     9   am
     7    13     5    1
     8     9     2    1
     9     2     3    1
    10     5     6    1
    11     5     4    1
    12     6    14    1
    13     3     4    1
    14     3    11    1
    15     4    12    1
