@<TRIPOS>MOLECULE
1nmq_160_A_1.pdb
 35 36 0 0 0
SMALL
GASTEIGER

@<TRIPOS>ATOM
      1  O35      -10.3680   33.1990  -10.1700 O.2   1278  1601278    -0.2678
      2  C18       -9.1900   33.4310  -10.3840 C.2   1278  1601278     0.2709
      3  C19       -8.7350   34.8480  -10.4600 C.ar  1278  1601278     0.0857
      4  S20      -10.0180   35.9540  -10.3200 S.2   1278  1601278    -0.0641
      5  C21       -8.8510   37.1430  -10.4730 C.ar  1278  1601278     0.1353
      6  S24       -9.3310   38.8250  -10.4340 S.O2  1278  1601278     0.0160
      7  O33       -8.2310   39.5870   -9.8090 O.2   1278  1601278    -0.1681
      8  O34       -9.5710   39.3090  -11.8070 O.2   1278  1601278    -0.1681
      9  C25      -10.8240   39.0060   -9.4850 C.3   1278  1601278     0.1822
     10  C22       -7.5270   36.7790  -10.6300 C.ar  1278  1601278     0.0257
     11  C23       -7.4610   35.3960  -10.6210 C.ar  1278  1601278     0.0130
     12  N17       -8.3260   32.4350  -10.5470 N.am  1278  1601278    -0.2003
     13  C16       -8.8260   31.1140  -10.8870 C.3   1278  1601278     0.1280
     14  C15       -9.0070   30.2290   -9.6590 C.3   1278  1601278     0.0921
     15  S14       -7.3810   29.8400   -8.9950 S.3   1278  1601278    -0.0800
     16  S13       -7.5330   28.0760   -8.0140 S.3   1278  1601278    -0.0773
     17  C12       -6.5120   28.3330   -6.5410 C.3   1278  1601278     0.0949
     18  C8        -6.4090   29.8140   -6.2360 C.ar  1278  1601278    -0.0092
     19  C9        -7.4980   30.5060   -5.7110 C.ar  1278  1601278    -0.0033
     20  C10       -7.3880   31.8700   -5.4330 C.ar  1278  1601278     0.0011
     21  C11       -6.1920   32.5480   -5.6840 C.ar  1278  1601278     0.0199
     22  C7        -5.2200   30.4920   -6.4820 C.ar  1278  1601278     0.0166
     23  C6        -5.1110   31.8530   -6.2120 C.ar  1278  1601278     0.1233
     24  S5        -3.6240   32.6630   -6.5260 S.O2  1278  1601278     0.0772
     25  O27       -3.8980   33.9960   -7.1160 O.2   1278  1601278    -0.1516
     26  O28       -2.7950   31.8520   -7.4480 O.2   1278  1601278    -0.1516
     27  N4        -2.7920   32.8380   -5.0440 N.3   1278  1601278    -0.0712
     28  C3        -1.4720   32.3000   -4.9420 C.3   1278  1601278     0.1659
     29  C2        -1.4280   31.2710   -3.8570 C.2   1278  1601278     0.1692
     30  O26       -0.5550   31.3350   -3.0130 O.2   1278  1601278    -0.2945
     31  C1        -2.4620   30.1840   -3.8360 C.3   1278  1601278     0.0738
     32  C29       -0.5580   33.4610   -4.5930 C.3   1278  1601278     0.1408
     33  C30       -0.0050   34.1060   -5.8390 C.2   1278  1601278     0.3668
     34  O31        0.2700   33.4230   -6.7970 O.co2 1278  1601278    -0.2456
     35  O32        0.2120   35.4200   -5.8920 O.co2 1278  1601278    -0.2456
@<TRIPOS>BOND
     1     8     6    2
     2    13    12    1
     3    13    14    1
     4    10    11   ar
     5    10     5   ar
     6    11     3   ar
     7    12     2   am
     8     5     6    1
     9     5     4   ar
    10     3     2    1
    11     3     4   ar
    12     6     7    2
    13     6     9    1
    14     2     1    2
    15    14    15    1
    16    15    16    1
    17    16    17    1
    18    26    24    2
    19    25    24    2
    20    34    33   ar
    21    17    18    1
    22    24    23    1
    23    24    27    1
    24    22    18   ar
    25    22    23   ar
    26    18    19   ar
    27    23    21   ar
    28    35    33   ar
    29    33    32    1
    30    19    20   ar
    31    21    20   ar
    32    27    28    1
    33    28    32    1
    34    28    29    1
    35    29    31    1
    36    29    30    2
