@<TRIPOS>MOLECULE
1nms_161_A_1.pdb
 32 33 0 0 0
SMALL
GASTEIGER

@<TRIPOS>ATOM
      1  C1        -7.9630   -1.3300   17.6300 C.3   1278  1611278     0.0741
      2  C2        -7.5230   -0.0890   18.3490 C.2   1278  1611278     0.1713
      3  O24       -7.0320    0.8420   17.7230 O.2   1278  1611278    -0.2942
      4  C3        -7.7570    0.1010   19.8330 C.3   1278  1611278     0.1638
      5  C25       -6.5200    0.6800   20.5460 C.3   1278  1611278     0.1432
      6  C26       -6.8490    1.2040   21.8060 C.2   1278  1611278     0.3671
      7  O28       -8.0440    1.5160   22.0820 O.co2 1278  1611278    -0.2456
      8  O27       -5.9660    1.4010   22.6820 O.co2 1278  1611278    -0.2456
      9  N4        -8.0620   -1.1540   20.4870 N.am  1278  1611278    -0.1953
     10  C5        -9.3190   -1.3940   20.8920 C.2   1278  1611278     0.2651
     11  O29      -10.2590   -0.7170   20.5150 O.2   1278  1611278    -0.2684
     12  C6        -9.6080   -2.4820   21.8850 C.ar  1278  1611278     0.0550
     13  C7        -8.6260   -3.3800   22.3430 C.ar  1278  1611278     0.0043
     14  C8        -8.9090   -4.3660   23.2850 C.ar  1278  1611278    -0.0027
     15  C11      -10.9200   -2.5720   22.3640 C.ar  1278  1611278     0.0043
     16  C10      -11.2070   -3.5480   23.3240 C.ar  1278  1611278    -0.0027
     17  C9       -10.2340   -4.4500   23.7650 C.ar  1278  1611278    -0.0029
     18  C12      -10.6160   -5.5130   24.7800 C.3   1278  1611278     0.1414
     19  N13      -10.8910   -4.8150   26.0060 N.3   1278  1611278    -0.0766
     20  S14      -11.7090   -5.7560   27.1780 S.O2  1278  1611278     0.0637
     21  O30      -11.8150   -4.9270   28.3620 O.2   1278  1611278    -0.1555
     22  O31      -12.9560   -6.2500   26.5920 O.2   1278  1611278    -0.1555
     23  C15      -10.6920   -7.0870   27.5800 C.3   1278  1611278     0.1915
     24  C16       -9.4180   -6.8160   28.0650 C.2   1278  1611278     0.0129
     25  C20      -11.1310   -8.4050   27.4480 C.2   1278  1611278     0.0063
     26  C19      -10.3110   -9.4840   27.7850 C.2   1278  1611278     0.0397
     27  C18       -9.0430   -9.2620   28.2740 C.2   1278  1611278     0.2015
     28  O23       -8.2560  -10.1780   28.6460 O.2   1278  1611278    -0.2864
     29  C17       -8.6090   -7.8870   28.4010 C.2   1278  1611278     0.1163
     30  C21       -7.2520   -7.6600   28.9100 C.2   1278  1611278     0.3906
     31  O32       -6.8630   -6.5010   28.9970 O.co2 1278  1611278    -0.2404
     32  O22       -6.5750   -8.6370   29.2350 O.co2 1278  1611278    -0.2404
@<TRIPOS>BOND
     1     1     2    1
     2     3     2    2
     3     2     4    1
     4     4     9    1
     5     4     5    1
     6     9    10   am
     7    11    10    2
     8     5     6    1
     9    10    12    1
    10     6     7   ar
    11     6     8   ar
    12    12    13   ar
    13    12    15   ar
    14    13    14   ar
    15    15    16   ar
    16    14    17   ar
    17    16    17   ar
    18    17    18    1
    19    18    19    1
    20    19    20    1
    21    22    20    2
    22    20    23    1
    23    20    21    2
    24    25    23    1
    25    25    26    2
    26    23    24    1
    27    26    27    1
    28    24    29    2
    29    27    29    1
    30    27    28    2
    31    29    30    1
    32    30    31   ar
    33    30    32   ar
