@<TRIPOS>MOLECULE
1nmu_MTT_A_1.pdb
 45 48 0 0 0
SMALL
GASTEIGER

@<TRIPOS>ATOM
      1  O14       38.4680   28.1900   17.8100 O.3   382  MTT382     -0.2176
      2  C14       39.3480   28.9020   18.5550 C.3   382  MTT382      0.2144
      3  C13       39.4690   30.3210   17.9170 C.3   382  MTT382      0.2198
      4  O13       39.8400   30.3320   16.5460 O.3   382  MTT382     -0.2174
      5  C12       40.4620   31.1030   18.7110 C.3   382  MTT382      0.2406
      6  O12       40.7540   32.4160   18.3090 O.3   382  MTT382     -0.2149
      7  C11       40.2880   31.0620   20.2360 C.3   382  MTT382      0.2695
      8  C15       38.8500   29.0890   20.0000 C.3   382  MTT382      0.1835
      9  O15       39.8210   29.8280   20.7460 O.3   382  MTT382     -0.3256
     10  C16       38.6340   27.8490   20.8140 C.3   382  MTT382      0.2142
     11  O16       38.3570   28.1580   22.1970 O.3   382  MTT382     -0.2176
     12  O24       39.9010   32.1790   21.1040 O.3   382  MTT382     -0.3257
     13  C24       40.8640   31.8580   22.0520 C.3   382  MTT382      0.1804
     14  C23       42.0440   32.8600   21.9990 C.3   382  MTT382      0.2167
     15  O23       42.6420   33.1870   20.7550 O.3   382  MTT382     -0.2175
     16  C22       43.1500   32.3030   22.8990 C.3   382  MTT382      0.2404
     17  O22       44.4000   32.9540   23.0210 O.3   382  MTT382     -0.2149
     18  C21       42.6940   31.7780   24.2520 C.3   382  MTT382      0.2695
     19  C25       40.3360   31.8100   23.5320 C.3   382  MTT382      0.1803
     20  O25       41.3810   31.2840   24.3210 O.3   382  MTT382     -0.3257
     21  C26       39.1840   30.9400   23.8670 C.3   382  MTT382      0.2141
     22  O26       38.8040   31.0840   25.2270 O.3   382  MTT382     -0.2176
     23  O34       43.0570   32.1080   25.5850 O.3   382  MTT382     -0.3257
     24  C34       43.2030   30.8090   26.0800 C.3   382  MTT382      0.1804
     25  C33       44.7580   30.5250   26.1330 C.3   382  MTT382      0.2167
     26  O33       45.3940   30.7980   24.9120 O.3   382  MTT382     -0.2175
     27  C32       45.1480   29.1080   26.5770 C.3   382  MTT382      0.2404
     28  O32       46.1250   29.1750   27.5900 O.3   382  MTT382     -0.2149
     29  C31       43.9640   28.3190   27.0210 C.3   382  MTT382      0.2695
     30  C35       42.6850   30.4650   27.4570 C.3   382  MTT382      0.1803
     31  O35       42.8220   29.0120   27.4890 O.3   382  MTT382     -0.3257
     32  C36       41.2330   30.6870   27.8540 C.3   382  MTT382      0.2141
     33  O36       40.5200   29.4650   28.1660 O.3   382  MTT382     -0.2176
     34  O44       44.3530   27.2430   27.8660 O.3   382  MTT382     -0.3257
     35  C44       43.4030   26.2220   28.0890 C.3   382  MTT382      0.1804
     36  C43       43.4060   25.1970   26.9360 C.3   382  MTT382      0.2168
     37  O43       42.7770   25.8100   25.7450 O.3   382  MTT382     -0.2175
     38  C42       42.6540   23.8810   27.2170 C.3   382  MTT382      0.2433
     39  O42       43.5120   22.7600   26.8970 O.3   382  MTT382     -0.2148
     40  C41       42.0780   23.6670   28.6280 C.3   382  MTT382      0.3023
     41  O41       42.3590   22.4360   29.2120 O.3   382  MTT382     -0.1869
     42  C45       43.5170   25.5630   29.4330 C.3   382  MTT382      0.1804
     43  O45       42.3920   24.7000   29.5490 O.3   382  MTT382     -0.3237
     44  C46       43.4770   26.5090   30.6350 C.3   382  MTT382      0.2141
     45  O46       42.1920   26.6680   31.1720 O.3   382  MTT382     -0.2176
@<TRIPOS>BOND
     1     4     3    1
     2     1     2    1
     3     3     2    1
     4     3     5    1
     5     6     5    1
     6     2     8    1
     7     5     7    1
     8     8     9    1
     9     8    10    1
    10     7     9    1
    11     7    12    1
    12    15    14    1
    13    10    11    1
    14    12    13    1
    15    14    13    1
    16    14    16    1
    17    13    19    1
    18    16    17    1
    19    16    18    1
    20    19    21    1
    21    19    20    1
    22    21    22    1
    23    18    20    1
    24    18    23    1
    25    26    25    1
    26    23    24    1
    27    37    36    1
    28    24    25    1
    29    24    30    1
    30    25    27    1
    31    27    29    1
    32    27    28    1
    33    39    38    1
    34    36    38    1
    35    36    35    1
    36    29    31    1
    37    29    34    1
    38    38    40    1
    39    30    31    1
    40    30    32    1
    41    32    33    1
    42    34    35    1
    43    35    42    1
    44    40    41    1
    45    40    43    1
    46    42    43    1
    47    42    44    1
    48    44    45    1
