@<TRIPOS>MOLECULE
1nmx_ADP_A_1.pdb
 27 29 0 0 0
SMALL
GASTEIGER

@<TRIPOS>ATOM
      1  PB         8.1000   69.6750   30.9680 P.3   302  ADP302      0.5373
      2  O1B        6.8690   70.5510   31.0100 O.3   302  ADP302     -0.1143
      3  O2B        8.4340   69.0830   29.6370 O.2   302  ADP302     -0.2221
      4  O3B        9.3130   70.3130   31.6970 O.3   302  ADP302     -0.1143
      5  PA         7.9880   66.9000   31.9850 P.3   302  ADP302      0.2231
      6  O1A        9.3970   66.5800   31.6440 O.3   302  ADP302     -0.4370
      7  O2A        6.9100   66.2730   31.1450 O.2   302  ADP302     -0.5169
      8  O3A        7.7060   68.4880   32.0150 O.3   302  ADP302     -0.2261
      9  O5'        7.6650   66.4950   33.4850 O.3   302  ADP302     -0.3111
     10  C5'        8.5010   66.9900   34.5820 C.3   302  ADP302      0.1813
     11  C4'        8.5960   65.9050   35.6680 C.3   302  ADP302      0.1821
     12  O4'        7.3570   65.8980   36.3940 O.3   302  ADP302     -0.3135
     13  C3'        8.8290   64.4940   35.1560 C.3   302  ADP302      0.2184
     14  O3'        9.5680   63.7120   36.0800 O.3   302  ADP302     -0.2174
     15  C2'        7.3860   63.9420   35.0970 C.3   302  ADP302      0.2570
     16  O2'        7.2990   62.5420   35.2860 O.3   302  ADP302     -0.2130
     17  C1'        6.6960   64.6850   36.2410 C.3   302  ADP302      0.3186
     18  N9         5.2710   64.9640   35.9200 N.pl3 302  ADP302     -0.1439
     19  C8         4.7400   65.4060   34.7270 C.3   302  ADP302      0.3377
     20  N7         3.4310   65.6170   34.8050 N.2   302  ADP302     -0.2095
     21  C5         3.0970   65.2850   36.1330 C.2   302  ADP302      0.2526
     22  C6         1.8840   65.2940   36.8100 C.2   302  ADP302      0.4393
     23  N6         0.7440   65.6220   36.2800 N.pl3 302  ADP302      0.2180
     24  N1         2.0040   64.8940   38.0950 N.2   302  ADP302      0.0021
     25  C2         3.1250   64.5170   38.7110 C.3   302  ADP302      0.5254
     26  N3         4.3180   64.4800   38.1130 N.2   302  ADP302     -0.0055
     27  C4         4.2000   64.8890   36.8570 C.2   302  ADP302      0.3518
@<TRIPOS>BOND
     1     3     1    2
     2     1     2    1
     3     1     4    1
     4     1     8    1
     5     7     5    2
     6     6     5    1
     7     5     8    1
     8     5     9    1
     9     9    10    1
    10    10    11    1
    11    19    20    1
    12    19    18    1
    13    20    21    2
    14    15    13    1
    15    15    16    1
    16    15    17    1
    17    13    11    1
    18    13    14    1
    19    11    12    1
    20    18    17    1
    21    18    27    1
    22    21    22    1
    23    21    27    1
    24    17    12    1
    25    23    22    1
    26    22    24    2
    27    27    26    2
    28    24    25    1
    29    26    25    1
