@<TRIPOS>MOLECULE
1nmx_FDM_A_1.pdb
 21 22 0 0 0
SMALL
GASTEIGER

@<TRIPOS>ATOM
      1  N1        13.4000   77.8860   24.2340 N.am  301  FDM301     -0.1794
      2  C6        12.6430   77.0150   23.4660 C.2   301  FDM301      0.0877
      3  C2        13.8140   79.1660   23.8110 C.1   301  FDM301      0.2844
      4  O2        14.5040   79.8940   24.5640 O.2   301  FDM301     -0.1918
      5  N3        13.3720   79.5760   22.6130 N.2   301  FDM301     -0.2455
      6  C4        12.6120   78.7390   21.7670 C.1   301  FDM301      0.2134
      7  O4        12.2780   79.1810   20.5880 O.2   301  FDM301     -0.2088
      8  C5        12.2160   77.4170   22.2700 C.2   301  FDM301      0.0891
      9  C7        11.3620   76.5830   21.2980 C.3   301  FDM301      0.0462
     10  O4'       14.6150   76.1710   25.2780 O.3   301  FDM301     -0.3337
     11  F         14.4490   76.7720   28.4300 F     301  FDM301     -0.2344
     12  C1'       13.8690   77.3260   25.4760 C.3   301  FDM301      0.2092
     13  C2'       12.8590   76.9730   26.5850 C.3   301  FDM301      0.0898
     14  C3'       13.6820   76.0790   27.4900 C.3   301  FDM301      0.1947
     15  C4'       14.6500   75.3820   26.4910 C.3   301  FDM301      0.1796
     16  O5'       13.2840   73.5550   26.0470 O.3   301  FDM301     -0.2675
     17  C5'       14.6390   73.7910   26.4400 C.3   301  FDM301      0.1860
     18  P1        12.6470   72.1560   26.7960 P.3   301  FDM301      0.5327
     19  OP2       12.3690   72.7200   28.2410 O.3   301  FDM301     -0.1145
     20  OP1       11.4450   71.9190   26.0640 O.2   301  FDM301     -0.2224
     21  OP3       13.6740   71.1310   27.0430 O.3   301  FDM301     -0.1145
@<TRIPOS>BOND
     1     7     6    2
     2     9     8    1
     3     6     8    1
     4     6     5    2
     5     8     2    2
     6     5     3    2
     7     2     1    1
     8     3     1   am
     9     3     4    2
    10     1    12    1
    11    10    12    1
    12    10    15    1
    13    12    13    1
    14    16    17    1
    15    16    18    1
    16    20    18    2
    17    17    15    1
    18    15    14    1
    19    13    14    1
    20    18    21    1
    21    18    19    1
    22    14    11    1
