@<TRIPOS>MOLECULE
1nmy_ADP_A_1.pdb
 27 29 0 0 0
SMALL
GASTEIGER

@<TRIPOS>ATOM
      1  PB         8.0530   69.5430   30.7720 P.3   302  ADP302      0.5373
      2  O1B        6.9730   70.5470   30.8120 O.3   302  ADP302     -0.1143
      3  O2B        8.3760   69.0070   29.4140 O.2   302  ADP302     -0.2221
      4  O3B        9.4190   70.0730   31.4330 O.3   302  ADP302     -0.1143
      5  PA         8.0630   66.7600   31.7400 P.3   302  ADP302      0.2231
      6  O1A        9.4880   66.5810   31.3790 O.3   302  ADP302     -0.4370
      7  O2A        7.0830   65.9990   30.8880 O.2   302  ADP302     -0.5169
      8  O3A        7.5730   68.3160   31.7360 O.3   302  ADP302     -0.2261
      9  O5'        7.7470   66.3730   33.2290 O.3   302  ADP302     -0.3111
     10  C5'        8.5430   66.9180   34.2970 C.3   302  ADP302      0.1813
     11  C4'        8.6380   65.9460   35.4700 C.3   302  ADP302      0.1821
     12  O4'        7.3750   65.9510   36.1340 O.3   302  ADP302     -0.3135
     13  C3'        9.0010   64.5020   35.1710 C.3   302  ADP302      0.2184
     14  O3'        9.6980   63.9950   36.3010 O.3   302  ADP302     -0.2174
     15  C2'        7.5830   63.8830   35.0670 C.3   302  ADP302      0.2570
     16  O2'        7.5210   62.5150   35.3180 O.3   302  ADP302     -0.2130
     17  C1'        6.8180   64.6690   36.1360 C.3   302  ADP302      0.3186
     18  N9         5.3810   64.8170   35.8210 N.pl3 302  ADP302     -0.1439
     19  C8         4.8460   65.1990   34.6120 C.3   302  ADP302      0.3377
     20  N7         3.5460   65.4360   34.6860 N.2   302  ADP302     -0.2095
     21  C5         3.2170   65.1970   36.0360 C.2   302  ADP302      0.2526
     22  C6         2.0090   65.2800   36.7260 C.2   302  ADP302      0.4393
     23  N6         0.8790   65.6150   36.1970 N.pl3 302  ADP302      0.2180
     24  N1         2.1180   64.9630   38.0300 N.2   302  ADP302      0.0021
     25  C2         3.2490   64.6000   38.6420 C.3   302  ADP302      0.5254
     26  N3         4.4340   64.5040   38.0390 N.2   302  ADP302     -0.0055
     27  C4         4.3180   64.8160   36.7650 C.2   302  ADP302      0.3518
@<TRIPOS>BOND
     1     3     1    2
     2     1     2    1
     3     1     4    1
     4     1     8    1
     5     7     5    2
     6     6     5    1
     7     8     5    1
     8     5     9    1
     9     9    10    1
    10    10    11    1
    11    19    20    1
    12    19    18    1
    13    20    21    2
    14    15    13    1
    15    15    16    1
    16    15    17    1
    17    13    11    1
    18    13    14    1
    19    11    12    1
    20    18    17    1
    21    18    27    1
    22    21    22    1
    23    21    27    1
    24    12    17    1
    25    23    22    1
    26    22    24    2
    27    27    26    2
    28    24    25    1
    29    26    25    1
