@<TRIPOS>MOLECULE
1nmy_FDM_A_1.pdb
 21 22 0 0 0
SMALL
GASTEIGER

@<TRIPOS>ATOM
      1  N1        13.1980   77.8060   24.1840 N.am  301  FDM301     -0.1794
      2  C6        12.5390   76.8910   23.4090 C.2   301  FDM301      0.0877
      3  C2        13.5820   79.1010   23.7440 C.1   301  FDM301      0.2844
      4  O2        14.1930   79.8910   24.4720 O.2   301  FDM301     -0.1918
      5  N3        13.2270   79.3950   22.4780 N.2   301  FDM301     -0.2455
      6  C4        12.5400   78.5180   21.6320 C.1   301  FDM301      0.2134
      7  O4        12.2460   78.8980   20.3960 O.2   301  FDM301     -0.2088
      8  C5        12.1830   77.1860   22.1570 C.2   301  FDM301      0.0891
      9  C7        11.4520   76.2560   21.2090 C.3   301  FDM301      0.0462
     10  O4'       14.7220   76.2100   24.9910 O.3   301  FDM301     -0.3337
     11  F         14.7970   76.2470   28.1090 F     301  FDM301     -0.2344
     12  C1'       13.8540   77.2480   25.3490 C.3   301  FDM301      0.2092
     13  C2'       12.9960   76.8030   26.5380 C.3   301  FDM301      0.0898
     14  C3'       13.8660   75.7490   27.1980 C.3   301  FDM301      0.1947
     15  C4'       14.6230   75.1610   25.9840 C.3   301  FDM301      0.1796
     16  O5'       14.4820   72.8360   26.5630 O.3   301  FDM301     -0.2675
     17  C5'       14.2460   73.7350   25.4590 C.3   301  FDM301      0.1860
     18  P1        14.2470   71.2640   26.0900 P.3   301  FDM301      0.5327
     19  OP2       14.5810   71.2230   24.5890 O.2   301  FDM301     -0.2224
     20  OP1       15.1920   70.5140   26.8900 O.3   301  FDM301     -0.1145
     21  OP3       12.7470   71.0170   26.1810 O.3   301  FDM301     -0.1145
@<TRIPOS>BOND
     1     7     6    2
     2     9     8    1
     3     6     8    1
     4     6     5    2
     5     8     2    2
     6     5     3    2
     7     2     1    1
     8     3     1   am
     9     3     4    2
    10     1    12    1
    11    19    18    2
    12    10    12    1
    13    10    15    1
    14    12    13    1
    15    17    15    1
    16    17    16    1
    17    15    14    1
    18    18    21    1
    19    18    16    1
    20    18    20    1
    21    13    14    1
    22    14    11    1
