@<TRIPOS>MOLECULE
1nmy_ANP_A_1.pdb
 31 33 0 0 0
SMALL
GASTEIGER

@<TRIPOS>ATOM
      1  PG        10.4890   71.1350   30.6370 P.3   303  ANP303      0.4884
      2  O1G       11.7170   71.0740   31.4800 O.3   303  ANP303     -0.1240
      3  O2G       10.6610   70.4880   29.3190 O.2   303  ANP303     -0.2331
      4  O3G        9.8390   72.4740   30.6120 O.3   303  ANP303     -0.1240
      5  PB         8.1610   69.2430   30.7720 P.3   303  ANP303      0.4669
      6  O1B        6.9000   70.0020   30.8800 O.3   303  ANP303     -0.1253
      7  O2B        8.4720   68.7650   29.4190 O.2   303  ANP303     -0.2351
      8  N3B        9.4150   70.1280   31.4550 N.3   303  ANP303     -0.0163
      9  PA         7.7930   66.5850   31.7750 P.3   303  ANP303      0.2220
     10  O1A        6.5860   66.1590   31.0870 O.2   303  ANP303     -0.5170
     11  O2A        9.1310   66.0640   31.3030 O.3   303  ANP303     -0.4370
     12  O3A        7.9310   68.1580   31.8910 O.3   303  ANP303     -0.2360
     13  O5'        7.7050   66.2120   33.3350 O.3   303  ANP303     -0.3111
     14  C5'        8.6900   66.7090   34.2850 C.3   303  ANP303      0.1813
     15  C4'        8.7820   65.6750   35.4050 C.3   303  ANP303      0.1821
     16  O4'        7.5780   65.7740   36.1510 O.3   303  ANP303     -0.3135
     17  C3'        8.8550   64.2450   34.8540 C.3   303  ANP303      0.2184
     18  O3'        9.6020   63.3270   35.7090 O.3   303  ANP303     -0.2174
     19  C2'        7.4170   63.8110   34.7970 C.3   303  ANP303      0.2570
     20  O2'        7.2820   62.3680   34.9790 O.3   303  ANP303     -0.2130
     21  C1'        6.8140   64.5680   35.9960 C.3   303  ANP303      0.3186
     22  N9         5.3890   64.8880   35.7410 N.pl3 303  ANP303     -0.1439
     23  C8         4.8120   65.2170   34.5430 C.3   303  ANP303      0.3377
     24  N7         3.5140   65.3740   34.6170 N.2   303  ANP303     -0.2095
     25  C5         3.2140   65.1390   35.9360 C.2   303  ANP303      0.2526
     26  C6         1.9850   65.1590   36.6490 C.2   303  ANP303      0.4393
     27  N6         0.7840   65.4250   36.1010 N.pl3 303  ANP303      0.2180
     28  N1         2.0640   64.8750   37.9520 N.2   303  ANP303      0.0021
     29  C2         3.2520   64.6020   38.5010 C.3   303  ANP303      0.5254
     30  N3         4.4490   64.5560   37.9530 N.2   303  ANP303     -0.0055
     31  C4         4.3500   64.8450   36.6360 C.2   303  ANP303      0.3518
@<TRIPOS>BOND
     1     3     1    2
     2     7     5    2
     3     4     1    1
     4     1     8    1
     5     1     2    1
     6     5     6    1
     7     5     8    1
     8     5    12    1
     9    10     9    2
    10    11     9    1
    11     9    12    1
    12     9    13    1
    13    13    14    1
    14    14    15    1
    15    23    24    1
    16    23    22    1
    17    24    25    2
    18    19    17    1
    19    19    20    1
    20    19    21    1
    21    17    15    1
    22    17    18    1
    23    15    16    1
    24    22    21    1
    25    22    31    1
    26    25    31    1
    27    25    26    1
    28    21    16    1
    29    27    26    1
    30    31    30    2
    31    26    28    2
    32    28    29    1
    33    30    29    1
