@<TRIPOS>MOLECULE
1nmz_ANP_A_1.pdb
 31 33 0 0 0
SMALL
GASTEIGER

@<TRIPOS>ATOM
      1  PG        10.8550   70.9630   29.9570 P.3   303  ANP303      0.4884
      2  O1G       12.0640   71.1450   30.8720 O.3   303  ANP303     -0.1240
      3  O2G       11.2950   70.2570   28.7680 O.2   303  ANP303     -0.2331
      4  O3G       10.1510   72.2500   29.7110 O.3   303  ANP303     -0.1240
      5  PB         8.4140   69.3760   30.4040 P.3   303  ANP303      0.4669
      6  O1B        7.3540   70.3230   30.5720 O.3   303  ANP303     -0.1253
      7  O2B        8.6510   68.8590   29.0560 O.2   303  ANP303     -0.2351
      8  N3B        9.8880   70.0450   30.9470 N.3   303  ANP303     -0.0163
      9  PA         8.2170   66.7080   31.4640 P.3   303  ANP303      0.2220
     10  O1A        7.0360   66.1420   30.7280 O.2   303  ANP303     -0.5170
     11  O2A        9.5470   66.3330   30.9630 O.3   303  ANP303     -0.4370
     12  O3A        8.0450   68.3010   31.5250 O.3   303  ANP303     -0.2360
     13  O5'        8.0510   66.3530   32.9940 O.3   303  ANP303     -0.3111
     14  C5'        9.0060   66.8950   33.9950 C.3   303  ANP303      0.1813
     15  C4'        9.0810   65.8990   35.1360 C.3   303  ANP303      0.1821
     16  O4'        7.8730   65.9710   35.8820 O.3   303  ANP303     -0.3135
     17  C3'        9.2080   64.4400   34.7120 C.3   303  ANP303      0.2184
     18  O3'        9.9170   63.6580   35.7410 O.3   303  ANP303     -0.2174
     19  C2'        7.8020   63.9400   34.6490 C.3   303  ANP303      0.2570
     20  O2'        7.6710   62.5140   34.9210 O.3   303  ANP303     -0.2130
     21  C1'        7.1690   64.7140   35.8170 C.3   303  ANP303      0.3186
     22  N9         5.7330   64.9830   35.5620 N.pl3 303  ANP303     -0.1439
     23  C8         5.1000   65.1850   34.3630 C.3   303  ANP303      0.3377
     24  N7         3.8080   65.3980   34.4750 N.2   303  ANP303     -0.2095
     25  C5         3.5800   65.3020   35.8290 C.2   303  ANP303      0.2526
     26  C6         2.3870   65.4240   36.5890 C.2   303  ANP303      0.4393
     27  N6         1.1830   65.6590   36.0160 N.pl3 303  ANP303      0.2180
     28  N1         2.5170   65.2780   37.9110 N.2   303  ANP303      0.0021
     29  C2         3.7170   65.0260   38.4500 C.3   303  ANP303      0.5254
     30  N3         4.8890   64.9040   37.8460 N.2   303  ANP303     -0.0055
     31  C4         4.7440   65.0590   36.5100 C.2   303  ANP303      0.3518
@<TRIPOS>BOND
     1     3     1    2
     2     7     5    2
     3     4     1    1
     4     1     2    1
     5     1     8    1
     6     5     6    1
     7     5     8    1
     8     5    12    1
     9    10     9    2
    10    11     9    1
    11     9    12    1
    12     9    13    1
    13    13    14    1
    14    14    15    1
    15    23    24    1
    16    23    22    1
    17    24    25    2
    18    19    17    1
    19    19    20    1
    20    19    21    1
    21    17    15    1
    22    17    18    1
    23    15    16    1
    24    22    21    1
    25    22    31    1
    26    21    16    1
    27    25    31    1
    28    25    26    1
    29    27    26    1
    30    31    30    2
    31    26    28    2
    32    30    29    1
    33    28    29    1
