@<TRIPOS>MOLECULE
1nmz_NYM_A_1.pdb
 21 22 0 0 0
SMALL
GASTEIGER

@<TRIPOS>ATOM
      1  N1        13.4110   77.7090   24.0690 N.am  301  NYM301     -0.1794
      2  C6        12.6960   76.8300   23.3190 C.2   301  NYM301      0.0877
      3  C2        13.8080   79.0040   23.6300 C.1   301  NYM301      0.2844
      4  O2        14.4840   79.7270   24.3670 O.2   301  NYM301     -0.1918
      5  N3        13.3360   79.3770   22.4170 N.2   301  NYM301     -0.2455
      6  C4        12.5750   78.5360   21.5920 C.1   301  NYM301      0.2134
      7  O4        12.2400   79.0430   20.3990 O.2   301  NYM301     -0.2088
      8  C5        12.2410   77.1750   22.1070 C.2   301  NYM301      0.0891
      9  C7        11.3950   76.3400   21.1340 C.3   301  NYM301      0.0462
     10  O4'       14.6420   76.0690   25.0480 O.3   301  NYM301     -0.3351
     11  N3'       14.2200   76.1330   28.3610 N.3   301  NYM301     -0.1301
     12  C1'       13.9690   77.2010   25.3740 C.3   301  NYM301      0.2078
     13  C2'       12.9160   76.6980   26.3810 C.3   301  NYM301      0.0735
     14  C3'       13.5940   75.5400   27.1010 C.3   301  NYM301      0.1257
     15  C4'       14.7870   75.2460   26.1920 C.3   301  NYM301      0.1647
     16  O5'       13.4980   73.2640   25.8510 O.3   301  NYM301     -0.2676
     17  C5'       14.8880   73.7030   25.9350 C.3   301  NYM301      0.1846
     18  P1        13.0180   71.7410   26.1060 P.3   301  NYM301      0.5327
     19  OP2       13.6270   71.0470   27.2800 O.3   301  NYM301     -0.1145
     20  OP1       11.5870   71.8140   25.8090 O.3   301  NYM301     -0.1145
     21  OP3       14.0390   71.0770   24.9860 O.2   301  NYM301     -0.2224
@<TRIPOS>BOND
     1     7     6    2
     2     9     8    1
     3     6     8    1
     4     6     5    2
     5     8     2    2
     6     5     3    2
     7     2     1    1
     8     3     1   am
     9     3     4    2
    10     1    12    1
    11    21    18    2
    12    10    12    1
    13    10    15    1
    14    12    13    1
    15    20    18    1
    16    16    17    1
    17    16    18    1
    18    17    15    1
    19    18    19    1
    20    15    14    1
    21    13    14    1
    22    14    11    1
