@<TRIPOS>MOLECULE
1nn0_ADP_A_1.pdb
 27 29 0 0 0
SMALL
GASTEIGER

@<TRIPOS>ATOM
      1  PB         8.0560   69.1690   30.8940 P.3   302  ADP302      0.5373
      2  O1B        6.8870   70.0320   30.9380 O.3   302  ADP302     -0.1143
      3  O2B        8.3770   68.5510   29.5760 O.2   302  ADP302     -0.2221
      4  O3B        9.3770   69.7140   31.5820 O.3   302  ADP302     -0.1143
      5  PA         7.8970   66.3630   31.8930 P.3   302  ADP302      0.2231
      6  O1A        9.3230   66.1510   31.5780 O.3   302  ADP302     -0.4370
      7  O2A        6.7680   65.8410   31.0780 O.2   302  ADP302     -0.5169
      8  O3A        7.7240   67.9300   31.9310 O.3   302  ADP302     -0.2261
      9  O5'        7.6190   66.0610   33.4380 O.3   302  ADP302     -0.3111
     10  C5'        8.5220   66.5180   34.4500 C.3   302  ADP302      0.1813
     11  C4'        8.6350   65.4510   35.5340 C.3   302  ADP302      0.1821
     12  O4'        7.3710   65.4140   36.2300 O.3   302  ADP302     -0.3135
     13  C3'        8.9150   64.0400   35.0320 C.3   302  ADP302      0.2184
     14  O3'        9.6300   63.3630   36.0300 O.3   302  ADP302     -0.2174
     15  C2'        7.4820   63.4710   34.9430 C.3   302  ADP302      0.2570
     16  O2'        7.3940   62.0720   35.0660 O.3   302  ADP302     -0.2130
     17  C1'        6.7880   64.1610   36.1280 C.3   302  ADP302      0.3186
     18  N9         5.3430   64.3920   35.8530 N.pl3 302  ADP302     -0.1439
     19  C8         4.8300   64.7890   34.6190 C.3   302  ADP302      0.3377
     20  N7         3.4950   64.9550   34.7280 N.2   302  ADP302     -0.2095
     21  C5         3.1830   64.7440   36.0930 C.2   302  ADP302      0.2526
     22  C6         1.9800   64.8240   36.7950 C.2   302  ADP302      0.4393
     23  N6         0.8090   65.1270   36.3120 N.pl3 302  ADP302      0.2180
     24  N1         2.1140   64.4880   38.0850 N.2   302  ADP302      0.0021
     25  C2         3.2660   64.1480   38.6700 C.3   302  ADP302      0.5254
     26  N3         4.4360   64.0620   38.0610 N.2   302  ADP302     -0.0055
     27  C4         4.2920   64.3940   36.7850 C.2   302  ADP302      0.3518
@<TRIPOS>BOND
     1     3     1    2
     2     1     2    1
     3     1     4    1
     4     1     8    1
     5     7     5    2
     6     6     5    1
     7     5     8    1
     8     5     9    1
     9     9    10    1
    10    10    11    1
    11    19    20    1
    12    19    18    1
    13    20    21    2
    14    15    13    1
    15    15    16    1
    16    15    17    1
    17    13    11    1
    18    13    14    1
    19    11    12    1
    20    18    17    1
    21    18    27    1
    22    21    27    1
    23    21    22    1
    24    17    12    1
    25    23    22    1
    26    27    26    2
    27    22    24    2
    28    26    25    1
    29    24    25    1
