@<TRIPOS>MOLECULE
1nn0_2DT_A_1.pdb
 20 21 0 0 0
SMALL
GASTEIGER

@<TRIPOS>ATOM
      1  P         12.7690   71.3860   27.1910 P.3   301  2DT301      0.5327
      2  OP1       11.6550   71.3930   26.1770 O.2   301  2DT301     -0.2224
      3  OP2       13.4990   70.1090   27.3180 O.3   301  2DT301     -0.1145
      4  OP3       12.1610   72.0140   28.4710 O.3   301  2DT301     -0.1145
      5  O5'       13.9550   72.3290   26.8220 O.3   301  2DT301     -0.2676
      6  N1        13.2480   77.2350   24.1900 N.am  301  2DT301     -0.1795
      7  C6        12.5060   76.3900   23.4450 C.2   301  2DT301      0.0877
      8  C2        13.6510   78.5280   23.8060 C.1   301  2DT301      0.2844
      9  O2        14.3040   79.3070   24.4900 O.2   301  2DT301     -0.1918
     10  N3        13.1900   78.8940   22.5570 N.2   301  2DT301     -0.2455
     11  C4        12.4500   78.1120   21.7490 C.1   301  2DT301      0.2134
     12  O4        12.0850   78.4350   20.5060 O.2   301  2DT301     -0.2088
     13  C5        12.1420   76.7590   22.1580 C.2   301  2DT301      0.0891
     14  C5M       11.3030   75.9410   21.2060 C.3   301  2DT301      0.0462
     15  C2'       12.8110   76.5260   26.4320 C.3   301  2DT301      0.0545
     16  C5'       14.0220   73.3650   25.9180 C.3   301  2DT301      0.1831
     17  C4'       14.4860   74.7540   26.4460 C.3   301  2DT301      0.1473
     18  O4'       14.5640   75.5370   25.2340 O.3   301  2DT301     -0.3366
     19  C1'       13.8660   76.7080   25.3850 C.3   301  2DT301      0.2063
     20  C3'       13.3780   75.4280   27.2880 C.3   301  2DT301      0.0366
@<TRIPOS>BOND
     1    12    11    2
     2    14    13    1
     3    11    13    1
     4    11    10    2
     5    13     7    2
     6    10     8    2
     7     7     6    1
     8     8     6   am
     9     8     9    2
    10     6    19    1
    11    18    19    1
    12    18    17    1
    13    19    15    1
    14    16    17    1
    15    16     5    1
    16     2     1    2
    17    15    20    1
    18    17    20    1
    19     5     1    1
    20     1     3    1
    21     1     4    1
