@<TRIPOS>MOLECULE
1nn1_2DT_A_1.pdb
 20 21 0 0 0
SMALL
GASTEIGER

@<TRIPOS>ATOM
      1  P         13.7500   71.3740   26.3460 P.3   301  2DT301      0.5327
      2  OP1       14.6640   70.9210   25.1880 O.2   301  2DT301     -0.2224
      3  OP2       14.2780   70.6820   27.5350 O.3   301  2DT301     -0.1145
      4  OP3       12.2970   71.4930   25.8820 O.3   301  2DT301     -0.1145
      5  O5'       14.3400   72.8350   26.6030 O.3   301  2DT301     -0.2676
      6  N1        13.4970   77.8030   23.9540 N.am  301  2DT301     -0.1795
      7  C6        12.7920   76.9220   23.1940 C.2   301  2DT301      0.0877
      8  C2        13.9690   79.0710   23.5020 C.1   301  2DT301      0.2844
      9  O2        14.6470   79.7510   24.2820 O.2   301  2DT301     -0.1918
     10  N3        13.5130   79.4480   22.2650 N.2   301  2DT301     -0.2455
     11  C4        12.7430   78.5930   21.4580 C.1   301  2DT301      0.2134
     12  O4        12.3720   79.0010   20.2140 O.2   301  2DT301     -0.2088
     13  C5        12.3590   77.2760   21.9400 C.2   301  2DT301      0.0891
     14  C5M       11.5090   76.3770   21.0350 C.3   301  2DT301      0.0462
     15  C2'       12.9510   76.8280   26.1330 C.3   301  2DT301      0.0545
     16  C5'       14.4390   73.8950   25.6790 C.3   301  2DT301      0.1831
     17  C4'       14.7950   75.3130   26.1830 C.3   301  2DT301      0.1473
     18  O4'       14.8820   76.2360   25.0530 O.3   301  2DT301     -0.3366
     19  C1'       14.0630   77.3110   25.1940 C.3   301  2DT301      0.2063
     20  C3'       13.6980   75.9390   27.0780 C.3   301  2DT301      0.0366
@<TRIPOS>BOND
     1    12    11    2
     2    14    13    1
     3    11    13    1
     4    11    10    2
     5    13     7    2
     6    10     8    2
     7     7     6    1
     8     8     6   am
     9     8     9    2
    10     6    19    1
    11    18    19    1
    12    18    17    1
    13     2     1    2
    14    19    15    1
    15    16    17    1
    16    16     5    1
    17     4     1    1
    18    15    20    1
    19    17    20    1
    20     1     5    1
    21     1     3    1
