@<TRIPOS>MOLECULE
1nn1_ANP_A_1.pdb
 31 33 0 0 0
SMALL
GASTEIGER

@<TRIPOS>ATOM
      1  PG        10.8200   71.0450   30.3500 P.3   303  ANP303      0.4884
      2  O1G       11.9560   70.9230   31.3100 O.3   303  ANP303     -0.1240
      3  O2G       11.0930   70.4640   29.0500 O.2   303  ANP303     -0.2331
      4  O3G       10.0550   72.3480   30.3530 O.3   303  ANP303     -0.1240
      5  PB         8.3560   69.4000   30.5770 P.3   303  ANP303      0.4669
      6  O1B        7.3320   70.3950   30.7250 O.3   303  ANP303     -0.1253
      7  O2B        8.5520   68.8800   29.2300 O.2   303  ANP303     -0.2351
      8  N3B        9.7680   70.0660   31.2000 N.3   303  ANP303     -0.0163
      9  PA         8.1150   66.7220   31.5820 P.3   303  ANP303      0.2220
     10  O1A        7.0050   66.1050   30.8400 O.2   303  ANP303     -0.5170
     11  O2A        9.4950   66.3300   31.1840 O.3   303  ANP303     -0.4370
     12  O3A        7.9220   68.2990   31.6530 O.3   303  ANP303     -0.2360
     13  O5'        7.9570   66.3530   33.1480 O.3   303  ANP303     -0.3111
     14  C5'        8.8730   66.8910   34.1430 C.3   303  ANP303      0.1813
     15  C4'        8.9820   65.9210   35.3330 C.3   303  ANP303      0.1821
     16  O4'        7.7610   65.9720   36.0410 O.3   303  ANP303     -0.3135
     17  C3'        9.1360   64.4630   34.8630 C.3   303  ANP303      0.2184
     18  O3'        9.8490   63.6010   35.8040 O.3   303  ANP303     -0.2174
     19  C2'        7.7290   63.9570   34.7750 C.3   303  ANP303      0.2570
     20  O2'        7.6060   62.5140   35.0120 O.3   303  ANP303     -0.2130
     21  C1'        7.0830   64.7120   35.9390 C.3   303  ANP303      0.3186
     22  N9         5.6460   64.9650   35.6490 N.pl3 303  ANP303     -0.1439
     23  C8         5.0450   65.2240   34.4350 C.3   303  ANP303      0.3377
     24  N7         3.7660   65.4430   34.5370 N.2   303  ANP303     -0.2095
     25  C5         3.5160   65.2810   35.8880 C.2   303  ANP303      0.2526
     26  C6         2.2880   65.3960   36.6040 C.2   303  ANP303      0.4393
     27  N6         1.1130   65.6610   35.9690 N.pl3 303  ANP303      0.2180
     28  N1         2.3880   65.1810   37.9120 N.2   303  ANP303      0.0021
     29  C2         3.5660   64.9060   38.4740 C.3   303  ANP303      0.5254
     30  N3         4.7700   64.8110   37.9100 N.2   303  ANP303     -0.0055
     31  C4         4.6360   65.0050   36.5710 C.2   303  ANP303      0.3518
@<TRIPOS>BOND
     1     3     1    2
     2     7     5    2
     3     1     4    1
     4     1     8    1
     5     1     2    1
     6     5     6    1
     7     5     8    1
     8     5    12    1
     9    10     9    2
    10    11     9    1
    11     9    12    1
    12     9    13    1
    13    13    14    1
    14    14    15    1
    15    23    24    1
    16    23    22    1
    17    24    25    2
    18    19    17    1
    19    19    20    1
    20    19    21    1
    21    17    15    1
    22    17    18    1
    23    15    16    1
    24    22    21    1
    25    22    31    1
    26    25    31    1
    27    25    26    1
    28    21    16    1
    29    27    26    1
    30    31    30    2
    31    26    28    2
    32    30    29    1
    33    28    29    1
