@<TRIPOS>MOLECULE
1nn3_ADP_A_1.pdb
 27 29 0 0 0
SMALL
GASTEIGER

@<TRIPOS>ATOM
      1  PB         8.1730   69.3100   30.6490 P.3   302  ADP302      0.5373
      2  O1B        7.0080   70.2410   30.6810 O.3   302  ADP302     -0.1143
      3  O2B        8.5490   68.7050   29.3730 O.2   302  ADP302     -0.2221
      4  O3B        9.4700   69.9290   31.3370 O.3   302  ADP302     -0.1143
      5  PA         8.0040   66.5670   31.7320 P.3   302  ADP302      0.2231
      6  O1A        9.3820   66.2100   31.3420 O.3   302  ADP302     -0.4370
      7  O2A        6.9060   65.8820   30.9570 O.2   302  ADP302     -0.5169
      8  O3A        7.7350   68.1510   31.7150 O.3   302  ADP302     -0.2261
      9  O5'        7.7310   66.2070   33.2320 O.3   302  ADP302     -0.3111
     10  C5'        8.6810   66.7060   34.2240 C.3   302  ADP302      0.1813
     11  C4'        8.7420   65.6550   35.3430 C.3   302  ADP302      0.1821
     12  O4'        7.5180   65.7160   36.0660 O.3   302  ADP302     -0.3135
     13  C3'        8.9420   64.2310   34.8590 C.3   302  ADP302      0.2184
     14  O3'        9.6740   63.5170   35.8530 O.3   302  ADP302     -0.2174
     15  C2'        7.4930   63.7050   34.8620 C.3   302  ADP302      0.2570
     16  O2'        7.3870   62.3250   35.0420 O.3   302  ADP302     -0.2130
     17  C1'        6.8610   64.4890   36.0140 C.3   302  ADP302      0.3186
     18  N9         5.4330   64.7380   35.7300 N.pl3 302  ADP302     -0.1439
     19  C8         4.8550   65.0340   34.5070 C.3   302  ADP302      0.3377
     20  N7         3.5630   65.2530   34.5920 N.2   302  ADP302     -0.2095
     21  C5         3.2540   65.0590   35.9630 C.2   302  ADP302      0.2526
     22  C6         2.0620   65.1310   36.6650 C.2   302  ADP302      0.4393
     23  N6         0.9040   65.3970   36.1680 N.pl3 302  ADP302      0.2180
     24  N1         2.2260   64.8960   37.9920 N.2   302  ADP302      0.0021
     25  C2         3.3940   64.6210   38.5600 C.3   302  ADP302      0.5254
     26  N3         4.5810   64.5300   37.9650 N.2   302  ADP302     -0.0055
     27  C4         4.3940   64.7650   36.6740 C.2   302  ADP302      0.3518
@<TRIPOS>BOND
     1     3     1    2
     2     1     2    1
     3     1     4    1
     4     1     8    1
     5     7     5    2
     6     6     5    1
     7     8     5    1
     8     5     9    1
     9     9    10    1
    10    10    11    1
    11    19    20    1
    12    19    18    1
    13    20    21    2
    14    13    15    1
    15    13    11    1
    16    13    14    1
    17    15    16    1
    18    15    17    1
    19    11    12    1
    20    18    17    1
    21    18    27    1
    22    21    22    1
    23    21    27    1
    24    17    12    1
    25    23    22    1
    26    22    24    2
    27    27    26    2
    28    26    25    1
    29    24    25    1
